50163076
     RDKit          3D

 80 83  0  0  1  0  0  0  0  0999 V2000
    7.6323   -0.7108  -21.9502 C   0  0  0  0  0  0  0  0  0  0  0  0
    7.9559    0.6589  -21.9128 C   0  0  0  0  0  0  0  0  0  0  0  0
    6.3252   -1.1394  -21.6413 C   0  0  0  0  0  0  0  0  0  0  0  0
    6.9749    1.5998  -21.5626 C   0  0  0  0  0  0  0  0  0  0  0  0
    5.3472   -0.2003  -21.2631 C   0  0  0  0  0  0  0  0  0  0  0  0
    1.7197   -3.9352  -16.8034 C   0  0  0  0  0  0  0  0  0  0  0  0
    2.5225   -6.1901  -16.3104 C   0  0  0  0  0  0  0  0  0  0  0  0
    0.5381   -4.2002  -16.0838 C   0  0  0  0  0  0  0  0  0  0  0  0
    1.3435   -6.4506  -15.5858 C   0  0  0  0  0  0  0  0  0  0  0  0
    6.2068   -0.9806  -17.1203 C   0  0  0  0  0  0  0  0  0  0  0  0
    7.0003   -1.8705  -14.9942 C   0  0  0  0  0  0  0  0  0  0  0  0
    7.4754    0.4384  -15.5898 C   0  0  0  0  0  0  0  0  0  0  0  0
    6.3158   -2.0572  -16.2100 C   0  0  0  0  0  0  0  0  0  0  0  0
    6.8052    0.2630  -16.8164 C   0  0  0  0  0  0  0  0  0  0  0  0
    5.6753    1.1724  -21.2189 C   0  0  0  0  0  0  0  0  0  0  0  0
    2.7182   -4.9311  -16.9200 C   0  0  0  0  0  0  0  0  0  0  0  0
    7.5690   -0.6232  -14.6718 C   0  0  0  0  0  0  0  0  0  0  0  0
    0.3503   -5.4572  -15.4744 C   0  0  0  0  0  0  0  0  0  0  0  0
    5.7173   -3.3703  -16.5129 C   0  0  0  0  0  0  0  0  0  0  0  0
    6.7080    1.3910  -17.7518 C   0  0  0  0  0  0  0  0  0  0  0  0
    6.4565    8.1339  -20.2401 C   0  0  0  0  0  0  0  0  0  0  0  0
    5.8594    7.4095  -21.4570 C   0  0  0  0  0  0  0  0  0  0  0  0
    5.2213    7.2414  -20.0697 C   0  0  0  0  0  0  0  0  0  0  0  0
    3.6147   -4.5975  -19.2443 C   0  0  0  0  0  0  0  0  0  0  0  0
    7.9238    0.8000  -12.6505 C   0  0  0  0  0  0  0  0  0  0  0  0
    8.4089   -2.7035  -11.7361 C   0  0  0  0  0  0  0  0  0  0  0  0
    4.6984    2.1799  -20.6634 C   0  0  0  0  0  0  0  0  0  0  0  0
    4.2114    5.0546  -19.5177 C   0  0  0  0  0  0  0  0  0  0  0  0
    3.9657   -4.6872  -17.7530 C   0  0  1  0  0  0  0  0  0  0  0  0
    5.2756    2.7396  -19.3366 C   0  0  1  0  0  0  0  0  0  0  0  0
    4.3451    3.7738  -18.6676 C   0  0  2  0  0  0  0  0  0  0  0  0
    4.6218   -3.4354  -17.3613 N   0  0  0  0  0  0  0  0  0  0  0  0
    5.5146    1.6016  -18.4286 N   0  0  0  0  0  0  0  0  0  0  0  0
    8.1965   -0.4298  -13.4376 N   0  0  0  0  0  0  0  0  0  0  0  0
    5.3735    5.9554  -19.3409 N   0  0  0  0  0  0  0  0  0  0  0  0
    6.1716   -4.3868  -15.9960 O   0  0  0  0  0  0  0  0  0  0  0  0
    7.6364    2.1880  -17.8436 O   0  0  0  0  0  0  0  0  0  0  0  0
   10.2717   -0.8465  -11.9632 O   0  0  0  0  0  0  0  0  0  0  0  0
    9.8390   -2.3770  -13.9472 O   0  0  0  0  0  0  0  0  0  0  0  0
    3.0471    3.2101  -18.5099 O   0  0  0  0  0  0  0  0  0  0  0  0
   -0.7823   -5.7092  -14.7801 F   0  0  0  0  0  0  0  0  0  0  0  0
    9.3302   -1.5812  -12.8194 S   0  0  0  0  0  0  0  0  0  0  0  0
    8.3877   -1.4354  -22.2163 H   0  0  0  0  0  0  0  0  0  0  0  0
    8.9570    0.9851  -22.1532 H   0  0  0  0  0  0  0  0  0  0  0  0
    6.0743   -2.1885  -21.6948 H   0  0  0  0  0  0  0  0  0  0  0  0
    7.2155    2.6527  -21.5564 H   0  0  0  0  0  0  0  0  0  0  0  0
    4.3503   -0.5283  -21.0080 H   0  0  0  0  0  0  0  0  0  0  0  0
    1.8639   -2.9703  -17.2667 H   0  0  0  0  0  0  0  0  0  0  0  0
    3.2795   -6.9552  -16.4002 H   0  0  0  0  0  0  0  0  0  0  0  0
   -0.2243   -3.4399  -15.9991 H   0  0  0  0  0  0  0  0  0  0  0  0
    1.2004   -7.4122  -15.1153 H   0  0  0  0  0  0  0  0  0  0  0  0
    5.6668   -1.1086  -18.0468 H   0  0  0  0  0  0  0  0  0  0  0  0
    7.0904   -2.6934  -14.3006 H   0  0  0  0  0  0  0  0  0  0  0  0
    7.9200    1.3937  -15.3529 H   0  0  0  0  0  0  0  0  0  0  0  0
    7.4264    7.8143  -19.8313 H   0  0  0  0  0  0  0  0  0  0  0  0
    6.3624    9.2261  -20.1496 H   0  0  0  0  0  0  0  0  0  0  0  0
    5.3372    7.9828  -22.2371 H   0  0  0  0  0  0  0  0  0  0  0  0
    6.4012    6.5710  -21.9188 H   0  0  0  0  0  0  0  0  0  0  0  0
    4.2710    7.7752  -19.9211 H   0  0  0  0  0  0  0  0  0  0  0  0
    4.5307   -4.4210  -19.8272 H   0  0  0  0  0  0  0  0  0  0  0  0
    3.1497   -5.5401  -19.5688 H   0  0  0  0  0  0  0  0  0  0  0  0
    2.9117   -3.7671  -19.4061 H   0  0  0  0  0  0  0  0  0  0  0  0
    8.5037    0.7741  -11.7161 H   0  0  0  0  0  0  0  0  0  0  0  0
    8.2147    1.6833  -13.2380 H   0  0  0  0  0  0  0  0  0  0  0  0
    6.8508    0.8538  -12.4145 H   0  0  0  0  0  0  0  0  0  0  0  0
    9.0943   -3.4560  -11.3188 H   0  0  0  0  0  0  0  0  0  0  0  0
    7.9522   -2.1292  -10.9166 H   0  0  0  0  0  0  0  0  0  0  0  0
    7.6205   -3.2067  -12.3150 H   0  0  0  0  0  0  0  0  0  0  0  0
    4.5600    2.9997  -21.3837 H   0  0  0  0  0  0  0  0  0  0  0  0
    3.7309    1.6930  -20.4717 H   0  0  0  0  0  0  0  0  0  0  0  0
    4.1378    4.7721  -20.5783 H   0  0  0  0  0  0  0  0  0  0  0  0
    3.2980    5.5883  -19.2162 H   0  0  0  0  0  0  0  0  0  0  0  0
    4.6601   -5.5275  -17.6058 H   0  0  0  0  0  0  0  0  0  0  0  0
    6.2341    3.2312  -19.5595 H   0  0  0  0  0  0  0  0  0  0  0  0
    4.7657    4.0437  -17.6877 H   0  0  0  0  0  0  0  0  0  0  0  0
    4.2581   -2.5787  -17.7271 H   0  0  0  0  0  0  0  0  0  0  0  0
    4.7738    0.9438  -18.2929 H   0  0  0  0  0  0  0  0  0  0  0  0
    6.1920    5.4912  -19.6795 H   0  0  0  0  0  0  0  0  0  0  0  0
    5.4806    6.1512  -18.3661 H   0  0  0  0  0  0  0  0  0  0  0  0
    3.1063    2.4184  -17.9882 H   0  0  0  0  0  0  0  0  0  0  0  0
  1  2  2  0
  1  3  1  0
  2  4  1  0
  3  5  2  0
  4 15  2  0
  5 15  1  0
  6  8  2  0
  6 16  1  0
  7  9  1  0
  7 16  2  0
  8 18  1  0
  9 18  2  0
 10 13  2  0
 10 14  1  0
 11 13  1  0
 11 17  2  0
 12 14  2  0
 12 17  1  0
 13 19  1  0
 14 20  1  0
 15 27  1  0
 16 29  1  0
 17 34  1  0
 18 41  1  0
 19 32  1  0
 19 36  2  0
 20 33  1  0
 20 37  2  0
 21 22  1  0
 21 23  1  0
 22 23  1  0
 23 35  1  0
 24 29  1  0
 25 34  1  0
 26 42  1  0
 27 30  1  0
 28 31  1  0
 28 35  1  0
 29 32  1  0
 30 31  1  0
 30 33  1  0
 31 40  1  0
 34 42  1  0
 38 42  2  0
 39 42  2  0
  1 43  1  0
  2 44  1  0
  3 45  1  0
  4 46  1  0
  5 47  1  0
  6 48  1  0
  7 49  1  0
  8 50  1  0
  9 51  1  0
 10 52  1  0
 11 53  1  0
 12 54  1  0
 21 55  1  0
 21 56  1  0
 22 57  1  0
 22 58  1  0
 23 59  1  0
 24 60  1  0
 24 61  1  0
 24 62  1  0
 25 63  1  0
 25 64  1  0
 25 65  1  0
 26 66  1  0
 26 67  1  0
 26 68  1  0
 27 69  1  0
 27 70  1  0
 28 71  1  0
 28 72  1  0
 29 73  1  6
 30 74  1  6
 31 75  1  1
 32 76  1  0
 33 77  1  0
 35 78  1  0
 35 79  1  0
 40 80  1  0
M  CHG  1  35   1
M  END
>  <OMEGA_C>  (1) 
2jv0QHj4Nb8Emq/BfJb+QOSuKD92Ta/Ba2jKQEDYkb9WIa3BeDLfQHbHzD9AgKzBIxyrQGAlTb7e
GqrBvSDcP+LZe8BMbYbBTHEhQPIUxsCie4LB5r8JP/JnhsCyq4DBT/irP5FrzsBUX3nBYp7GQFwG
e79c9ojBwALgQABs779P6G/BlDbvQOh34D7Rb3nBOBvKQOapA8AcroHBO8TZQKimhj7wh4bBZJy1
QNMSlj9CwKnBLPYtQNLLncA0XIfBNDXyQEyJH7+Lv2rBgFezPgChrsAhl3fBAPS2QMiyV8BeGoTB
16fWQMoNsj+WA47BypvOQHwkAkGo66HB2X+7QIAa7UDcp6vBwhSnQKq550CojqDBHFdnQMEek8BS
9JnB/I/9QCrOTD9TaErBDYsGQTQGLcAJxzvBKFmWQBGEC0CkTqXBbsOGQF2/oUA+JJzBqM19QJ79
lcA8Bo7BidGoQOpVL0BmsZrBcQuLQDSFcUA6V5XBgOWTQAzdW8De44rB4HewQNgCzT/IbZPBDCUD
QXgQ3L5cAFfB5/OrQHySvkA0uprBtn3FQI1gjMB373/BWl30QCYIDECov47B/FgkQRC0WL9qaT/B
u2wdQZQgGMCeJ1/BLgNDQBRzTUBCFJTBIEZIv12xtsA8e2zBiUgVQRxkyr8THE3B7zMGQYu6t78P
u7HB408PQQQtfD+sObHBoWDCQDMQDMDkjq3Bo+XmQGLFKUBoc6zBtDWLQMM7B79SEKjBl5XuP/cZ
PsA+IorB3OJRQLWQ3sCPM4PBMq5lvsYnXMBh/H/BpKeZP3Aw7cAc2HHBwla1QHPljb/bX5DB4OTi
QM9gLMBXz2TB7nD9QP5ksj9spXXBbaXtQOQO+kB3pp7BJJnLQEOeE0FoMqHBMsqqQOpy/0Cn5bHB
etbMQEhF0kC2Wa/BA6yIQAvO+EBWXp/BzvuQQCl5jcACnp7BgZRJQJFIscDNjJzBf1g6QD8YccCj
P5vBSg8IQTMrRj8rdTvBjG8DQc911z/0zlPBjznbQNCPWj/WoUbBFYIRQR4vXcD7GTXBmHj+QGRF
CMBGqi7BWNvzQB47TcBMCkXBIeuRQIH7P0C+EavBScZuQNGy2D8cxqPB+2iEQP20mEBCoKTBJBJT
QLHTskDaupnBYR+VQHfhsMCz2IzBgn3HQEzLTkDieZzBeICYQDlmgUBUgI3BREKIQFEJJcAk0Y3B
KcOYQBaccT/WV5LBrCTGQOC3r0C0b53BP2GvQNjWxEDg7ZLBRs5GQM3HGkDG54/B

>  <OMEGA_E>  (1) 
rC5/Pw==

>  <OMEGA_NBR>  (1) 
      7431

$$$$
29073
     RDKit          3D

 67 69  0  0  1  0  0  0  0  0999 V2000
    6.7096   -1.3549  -21.6600 C   0  0  0  0  0  0  0  0  0  0  0  0
    7.3609   -0.1196  -21.4774 C   0  0  0  0  0  0  0  0  0  0  0  0
    5.3047   -1.4263  -21.5814 C   0  0  0  0  0  0  0  0  0  0  0  0
    6.6094    1.0434  -21.2148 C   0  0  0  0  0  0  0  0  0  0  0  0
    4.5512   -0.2663  -21.3027 C   0  0  0  0  0  0  0  0  0  0  0  0
    5.9926   -0.5344  -17.2060 C   0  0  0  0  0  0  0  0  0  0  0  0
    6.8813   -1.4794  -15.1417 C   0  0  0  0  0  0  0  0  0  0  0  0
    7.2262    0.8722  -15.6489 C   0  0  0  0  0  0  0  0  0  0  0  0
    6.1688   -1.6450  -16.3593 C   0  0  0  0  0  0  0  0  0  0  0  0
    6.5257    0.7149  -16.8533 C   0  0  0  0  0  0  0  0  0  0  0  0
    5.1989    0.9749  -21.1029 C   0  0  0  0  0  0  0  0  0  0  0  0
    7.4149   -0.2130  -14.7588 C   0  0  0  0  0  0  0  0  0  0  0  0
    5.5900   -2.9608  -16.7490 C   0  0  0  0  0  0  0  0  0  0  0  0
    6.3464    1.8606  -17.7425 C   0  0  0  0  0  0  0  0  0  0  0  0
    4.6974    8.4999  -21.0430 C   0  0  0  0  0  0  0  0  0  0  0  0
    5.5987    8.8244  -19.8376 C   0  0  0  0  0  0  0  0  0  0  0  0
    5.3800    7.3742  -20.2596 C   0  0  0  0  0  0  0  0  0  0  0  0
    3.9920   -4.2452  -18.2258 C   0  0  0  0  0  0  0  0  0  0  0  0
    8.6628    1.3702  -13.2358 C   0  0  0  0  0  0  0  0  0  0  0  0
    6.0102   -0.8180  -11.7737 C   0  0  0  0  0  0  0  0  0  0  0  0
    4.3783    2.2232  -20.7574 C   0  0  0  0  0  0  0  0  0  0  0  0
    4.1475    5.2647  -20.0176 C   0  0  0  0  0  0  0  0  0  0  0  0
    4.9599    2.9531  -19.5136 C   0  0  1  0  0  0  0  0  0  0  0  0
    4.1023    4.1267  -18.9911 C   0  0  2  0  0  0  0  0  0  0  0  0
    4.7477   -3.0414  -17.8606 N   0  0  0  0  0  0  0  0  0  0  0  0
    5.1562    1.9798  -18.4417 N   0  0  0  0  0  0  0  0  0  0  0  0
    8.0836    0.0129  -13.5151 N   0  0  0  0  0  0  0  0  0  0  0  0
    4.5737    6.5181  -19.3674 N   0  0  0  0  0  0  0  0  0  0  0  0
    5.8328   -3.9660  -16.0888 O   0  0  0  0  0  0  0  0  0  0  0  0
    7.2488    2.6824  -17.8705 O   0  0  0  0  0  0  0  0  0  0  0  0
    8.4647   -0.3918  -10.9569 O   0  0  0  0  0  0  0  0  0  0  0  0
    8.0436   -2.3958  -12.4330 O   0  0  0  0  0  0  0  0  0  0  0  0
    2.7499    3.7379  -18.7723 O   0  0  0  0  0  0  0  0  0  0  0  0
    7.7751   -0.9876  -12.1103 S   0  0  0  0  0  0  0  0  0  0  0  0
    7.2861   -2.2460  -21.8599 H   0  0  0  0  0  0  0  0  0  0  0  0
    8.4377   -0.0634  -21.5387 H   0  0  0  0  0  0  0  0  0  0  0  0
    4.8035   -2.3706  -21.7347 H   0  0  0  0  0  0  0  0  0  0  0  0
    7.1119    1.9923  -21.0982 H   0  0  0  0  0  0  0  0  0  0  0  0
    3.4746   -0.3266  -21.2418 H   0  0  0  0  0  0  0  0  0  0  0  0
    5.4452   -0.6441  -18.1304 H   0  0  0  0  0  0  0  0  0  0  0  0
    7.0220   -2.3305  -14.4919 H   0  0  0  0  0  0  0  0  0  0  0  0
    7.6303    1.8410  -15.3948 H   0  0  0  0  0  0  0  0  0  0  0  0
    3.6088    8.6402  -20.9707 H   0  0  0  0  0  0  0  0  0  0  0  0
    5.0316    8.7433  -22.0623 H   0  0  0  0  0  0  0  0  0  0  0  0
    6.5773    9.3015  -19.9950 H   0  0  0  0  0  0  0  0  0  0  0  0
    5.1544    9.1984  -18.9034 H   0  0  0  0  0  0  0  0  0  0  0  0
    6.2300    6.8932  -20.7658 H   0  0  0  0  0  0  0  0  0  0  0  0
    3.4079   -4.0497  -19.1372 H   0  0  0  0  0  0  0  0  0  0  0  0
    4.6905   -5.0750  -18.4091 H   0  0  0  0  0  0  0  0  0  0  0  0
    3.3111   -4.5137  -17.4047 H   0  0  0  0  0  0  0  0  0  0  0  0
    9.1371    1.3698  -12.2433 H   0  0  0  0  0  0  0  0  0  0  0  0
    9.4148    1.6123  -14.0012 H   0  0  0  0  0  0  0  0  0  0  0  0
    7.8609    2.1227  -13.2586 H   0  0  0  0  0  0  0  0  0  0  0  0
    5.7437   -1.4252  -10.8961 H   0  0  0  0  0  0  0  0  0  0  0  0
    5.7749    0.2379  -11.5740 H   0  0  0  0  0  0  0  0  0  0  0  0
    5.4358   -1.1629  -12.6462 H   0  0  0  0  0  0  0  0  0  0  0  0
    4.3927    2.9108  -21.6160 H   0  0  0  0  0  0  0  0  0  0  0  0
    3.3415    1.9234  -20.5451 H   0  0  0  0  0  0  0  0  0  0  0  0
    4.8608    5.0076  -20.8145 H   0  0  0  0  0  0  0  0  0  0  0  0
    3.1463    5.4026  -20.4520 H   0  0  0  0  0  0  0  0  0  0  0  0
    5.9405    3.3612  -19.8001 H   0  0  0  0  0  0  0  0  0  0  0  0
    4.5457    4.4875  -18.0513 H   0  0  0  0  0  0  0  0  0  0  0  0
    4.6544   -2.2324  -18.4409 H   0  0  0  0  0  0  0  0  0  0  0  0
    4.3983    1.3731  -18.2022 H   0  0  0  0  0  0  0  0  0  0  0  0
    5.1203    6.2911  -18.5613 H   0  0  0  0  0  0  0  0  0  0  0  0
    3.7596    7.0259  -19.0858 H   0  0  0  0  0  0  0  0  0  0  0  0
    2.7217    3.0327  -18.1363 H   0  0  0  0  0  0  0  0  0  0  0  0
  1  2  2  0
  1  3  1  0
  2  4  1  0
  3  5  2  0
  4 11  2  0
  5 11  1  0
  6  9  2  0
  6 10  1  0
  7  9  1  0
  7 12  2  0
  8 10  2  0
  8 12  1  0
  9 13  1  0
 10 14  1  0
 11 21  1  0
 12 27  1  0
 13 25  1  0
 13 29  2  0
 14 26  1  0
 14 30  2  0
 15 16  1  0
 15 17  1  0
 16 17  1  0
 17 28  1  0
 18 25  1  0
 19 27  1  0
 20 34  1  0
 21 23  1  0
 22 24  1  0
 22 28  1  0
 23 24  1  0
 23 26  1  0
 24 33  1  0
 27 34  1  0
 31 34  2  0
 32 34  2  0
  1 35  1  0
  2 36  1  0
  3 37  1  0
  4 38  1  0
  5 39  1  0
  6 40  1  0
  7 41  1  0
  8 42  1  0
 15 43  1  0
 15 44  1  0
 16 45  1  0
 16 46  1  0
 17 47  1  0
 18 48  1  0
 18 49  1  0
 18 50  1  0
 19 51  1  0
 19 52  1  0
 19 53  1  0
 20 54  1  0
 20 55  1  0
 20 56  1  0
 21 57  1  0
 21 58  1  0
 22 59  1  0
 22 60  1  0
 23 61  1  6
 24 62  1  1
 25 63  1  0
 26 64  1  0
 28 65  1  0
 28 66  1  0
 33 67  1  0
M  CHG  1  28   1
M  END
>  <OMEGA_C>  (2) 
GLXWQLFtrb+oR63BMozrQMTn9L240avB17+pQG2Ptr+2pqzBnYDTQPyOhT/ct6nBSqORQE9XiL4F
bKrBwsO/QAzOCL/WpYnBSDPcQKxdvb9cRHLBbD3nQDpFXz/QYXrBwGbFQOyO0r/e34LB0NLQQIwD
Nz+l04bBj12mQKyUeT+10qjBNkftQI4YWr7aI2zB+eCyQHh9PcD7/YXBpBXLQLcp7j+W8I3BOFGW
QLf/B0EIWKjBnyizQJ0wDUFZs57BuCisQHD560DAE6LBwnx/QMXYh8B1zpHB6ZoKQalhrz++xVPB
QVPAQIZmUb8fYTzBXhuMQKNJDkA4D6bBHLiEQHJ4qEAEJKDBzLeeQEQAPUDeG5zBQ0aDQAwOhEDU
7ZfBVu2XQOqmQsCb4o7Bpf+kQMpq/T+aiJPBO1YBQeDiUzypPVjB9luSQD2U0EBm8JrBCqa6QIrS
fcDUtYDB8PXnQKqsK0DB9o7Bgm8HQVmdyL5OTy/BsbIAQRFUGcB17UbBvP4vQP04b0CVLZbBtM34
QNTVfL+xw0HBDCjpQIG+D8AU4a7BpgAHQZ/ugb1TT6zBebaZQHi3F8DA4K3BSJTjQDoE/z8FyajB
tl9eQPU1p74r76nB6T6uQLbmJL8kC5HBDbTgQMAmFcCn3mfBQCv0QE6k6z/mUHbBUPZmQBk+CkEV
xKfB8wKhQGPkC0Gxf7DB43jSQPzSFEG99Z/BF/GkQLIsE0EhOpfBD1zHQG2V3EBFIKbBfRtaQByX
gcAAGZnBfhiWQD9mosC/RZPBuOhTQPNvkMC8PIvBcjESQS1Xrz9n5EPB5qIWQTJhzj8NBWDBNoz7
QM/aB0AZI1TBOsy3QGxttr9VVi7BWsy4QJGScz4WLznBVvKtQMfZlL+uVkrB6ZCMQDVKOkCC7azB
VttVQBIz9j9KXKTBYoubQP49oEAhhKbBq11JQL7hrEC7naPBWxi+QDgdV0CTZp7BQXaRQDmZj0AJ
aZDBOfGUQA7fDsD5hpPBfb6MQFXArz8unpHBc9mjQGFQyUCbfZTBspxwQCzU4EDEr5jBzS8uQB8Y
QkAQF5HBNrnQQLoZpb9CU63BSEPmQFPkeb3dL6zBof6jQKikrL/e/KvBvx/PQDjtjT/Ku6nBjdKM
QB+iOr4TZanBvwjDQJaiD79l5onBbtzfQDAjw79QD3PB6rzqQBwIVj+9x3rBsbfIQIYI178WNoPB
DGDUQApKLz98BYfBJ0CiQCvnhj8wLqjBwvHvQIa7gb5nt2zBgRi1QDzbPsBvNobB6I/NQBLb6z82
243BcAS5QOqKDEHXDZXBHqzOQHnP/0DmGZ7B2RafQPHP+ECRj5vBYsF7QC/7hsD1KZHB0yAPQcrJ
lz+a71TBMV4NQdNqHcBdTEPBOjeJQEOpE0A156TBPnCLQPycrEBI2ZzB1VGeQFfiPkDiC5vBoumE
QCOMhEDP/pXB52WXQF/wQcD8jY7Ba1qmQAe0/D9X45LBg+wBQct0Kr2zpVjByTKRQDH50UDsz5XB
qO+9QH0EgMCwNIHBM+3pQGyeK0C05o7BqWzLQP9iwb8ElUTBsbABQQi0hL6+LC/BbN4wQBQgdkDu
GZXB8ZT3QBiygr8LZ0LBlnfiQMjkC8CEOK/BEUcEQROjebwaMq3B2WqTQCZ7EsAP86zBjLDfQLdd
A0B4CKnByiBVQNMyb74hVajBQkixQFgbKb8tRZHBlF3lQByYGMCN+GjBriL4QPEa5j+DqHbB0RnB
QG4WCUFPqozB5AqzQN3IHUH7/pXBvCPYQLITCEHuhqXBqTLmQIXC5kBCMpzBRWOIQHBBA0FOWaHB
/glSQMLmf8D6B5jBAluTQCSqocDeMJPB60FUQJbVj8BKOYrBHXwVQa8dlj95hkTBrnscQRWBmj/q
ZGDBjh4FQU0cBUCdKlfBrRcKQdgmR8APgjXBCJQKQfklQcBBNFLBWh0eQa/hB8Bgu0LB9eGIQLki
QUDUnqvBUV9QQEt3AUDy4aLBPwSoQPqMqECS4qHBeH5eQN+PsUCR+KHBNkO9QC7sWEBusZ3BwEKS
QKnMikAIAY7BikuTQA1eDcATAJPBGqOOQOY7rT8d2JDB90anQD7HykDTTpDBE6tqQC8r2EA9MpLB
A2kpQKZYRECd1pDB

>  <OMEGA_E>  (2) 
7Lp+P2BoXj8=

>  <OMEGA_NBR>  (2) 
      2457

$$$$
29083
     RDKit          3D

 75 78  0  0  1  0  0  0  0  0999 V2000
    6.5481   -1.4764  -21.5178 C   0  0  0  0  0  0  0  0  0  0  0  0
    7.2584   -0.2859  -21.2661 C   0  0  0  0  0  0  0  0  0  0  0  0
    5.1394   -1.4722  -21.5056 C   0  0  0  0  0  0  0  0  0  0  0  0
    6.5605    0.9086  -20.9997 C   0  0  0  0  0  0  0  0  0  0  0  0
    4.4398   -0.2827  -21.2250 C   0  0  0  0  0  0  0  0  0  0  0  0
    6.0334   -0.5591  -17.2502 C   0  0  0  0  0  0  0  0  0  0  0  0
    6.9919   -1.5784  -15.2561 C   0  0  0  0  0  0  0  0  0  0  0  0
    7.3629    0.7844  -15.7083 C   0  0  0  0  0  0  0  0  0  0  0  0
    6.2162   -1.7006  -16.4452 C   0  0  0  0  0  0  0  0  0  0  0  0
    6.6235    0.6691  -16.8934 C   0  0  0  0  0  0  0  0  0  0  0  0
    5.1443    0.9104  -20.9550 C   0  0  0  0  0  0  0  0  0  0  0  0
    7.5245   -0.3208  -14.8456 C   0  0  0  0  0  0  0  0  0  0  0  0
    5.6166   -3.0146  -16.8460 C   0  0  0  0  0  0  0  0  0  0  0  0
    6.4212    1.8464  -17.7358 C   0  0  0  0  0  0  0  0  0  0  0  0
    2.3070   -4.1476  -16.9142 C   0  0  0  0  0  0  0  0  0  0  0  0
    3.2898   -5.2327  -17.3659 C   0  0  0  0  0  0  0  0  0  0  0  0
    3.0459   -2.7993  -17.1054 C   0  0  0  0  0  0  0  0  0  0  0  0
    4.1755   -4.5309  -18.3984 C   0  0  0  0  0  0  0  0  0  0  0  0
    5.1737    8.4654  -17.6950 C   0  0  0  0  0  0  0  0  0  0  0  0
    6.3143    7.5327  -18.1252 C   0  0  0  0  0  0  0  0  0  0  0  0
    4.3848   -3.1116  -17.8316 C   0  0  0  0  0  0  0  0  0  0  0  0
    4.8507    7.1486  -18.3905 C   0  0  0  0  0  0  0  0  0  0  0  0
    8.9877    1.1015  -13.3483 C   0  0  0  0  0  0  0  0  0  0  0  0
    8.9414   -2.4770  -12.1454 C   0  0  0  0  0  0  0  0  0  0  0  0
    4.3629    2.1847  -20.6496 C   0  0  0  0  0  0  0  0  0  0  0  0
    4.6797    4.7720  -17.7641 C   0  0  0  0  0  0  0  0  0  0  0  0
    4.9411    2.9523  -19.4383 C   0  0  1  0  0  0  0  0  0  0  0  0
    3.9900    4.0520  -18.9457 C   0  0  2  0  0  0  0  0  0  0  0  0
    5.1883    2.0053  -18.3486 N   0  0  0  0  0  0  0  0  0  0  0  0
    8.1742   -0.1327  -13.5942 N   0  0  0  0  0  0  0  0  0  0  0  0
    4.1827    6.1364  -17.5436 N   0  0  0  0  0  0  0  0  0  0  0  0
    6.1053   -4.0423  -16.3890 O   0  0  0  0  0  0  0  0  0  0  0  0
    7.3300    2.6558  -17.8958 O   0  0  0  0  0  0  0  0  0  0  0  0
    6.4319   -1.6530  -12.3553 O   0  0  0  0  0  0  0  0  0  0  0  0
    8.0617   -0.2729  -10.9972 O   0  0  0  0  0  0  0  0  0  0  0  0
    3.7209    4.9354  -20.0337 O   0  0  0  0  0  0  0  0  0  0  0  0
    7.7793   -1.0907  -12.1861 S   0  0  0  0  0  0  0  0  0  0  0  0
    7.0836   -2.3922  -21.7199 H   0  0  0  0  0  0  0  0  0  0  0  0
    8.3384   -0.2891  -21.2775 H   0  0  0  0  0  0  0  0  0  0  0  0
    4.5955   -2.3821  -21.7118 H   0  0  0  0  0  0  0  0  0  0  0  0
    7.1062    1.8249  -20.8291 H   0  0  0  0  0  0  0  0  0  0  0  0
    3.3598   -0.2833  -21.2163 H   0  0  0  0  0  0  0  0  0  0  0  0
    5.4363   -0.6261  -18.1476 H   0  0  0  0  0  0  0  0  0  0  0  0
    7.1801   -2.4552  -14.6542 H   0  0  0  0  0  0  0  0  0  0  0  0
    7.8148    1.7312  -15.4520 H   0  0  0  0  0  0  0  0  0  0  0  0
    1.3963   -4.1756  -17.5305 H   0  0  0  0  0  0  0  0  0  0  0  0
    2.0389   -4.2903  -15.8570 H   0  0  0  0  0  0  0  0  0  0  0  0
    3.8902   -5.5930  -16.5175 H   0  0  0  0  0  0  0  0  0  0  0  0
    2.7545   -6.0787  -17.8217 H   0  0  0  0  0  0  0  0  0  0  0  0
    2.4355   -2.1176  -17.7160 H   0  0  0  0  0  0  0  0  0  0  0  0
    3.2458   -2.3364  -16.1278 H   0  0  0  0  0  0  0  0  0  0  0  0
    5.1380   -5.0529  -18.5033 H   0  0  0  0  0  0  0  0  0  0  0  0
    3.6730   -4.4883  -19.3760 H   0  0  0  0  0  0  0  0  0  0  0  0
    4.9423    8.5937  -16.6273 H   0  0  0  0  0  0  0  0  0  0  0  0
    5.0149    9.4180  -18.2217 H   0  0  0  0  0  0  0  0  0  0  0  0
    6.9709    7.8141  -18.9618 H   0  0  0  0  0  0  0  0  0  0  0  0
    6.8982    6.9898  -17.3674 H   0  0  0  0  0  0  0  0  0  0  0  0
    4.5278   -2.4007  -18.6587 H   0  0  0  0  0  0  0  0  0  0  0  0
    4.5169    7.2227  -19.4360 H   0  0  0  0  0  0  0  0  0  0  0  0
    9.4083    1.0677  -12.3325 H   0  0  0  0  0  0  0  0  0  0  0  0
    9.8055    1.1538  -14.0821 H   0  0  0  0  0  0  0  0  0  0  0  0
    8.3464    1.9895  -13.4501 H   0  0  0  0  0  0  0  0  0  0  0  0
    8.7282   -3.1093  -11.2708 H   0  0  0  0  0  0  0  0  0  0  0  0
    8.8333   -3.0730  -13.0636 H   0  0  0  0  0  0  0  0  0  0  0  0
    9.9694   -2.0917  -12.0773 H   0  0  0  0  0  0  0  0  0  0  0  0
    4.3964    2.8402  -21.5323 H   0  0  0  0  0  0  0  0  0  0  0  0
    3.3187    1.9157  -20.4321 H   0  0  0  0  0  0  0  0  0  0  0  0
    4.5071    4.1857  -16.8496 H   0  0  0  0  0  0  0  0  0  0  0  0
    5.7593    4.8228  -17.9688 H   0  0  0  0  0  0  0  0  0  0  0  0
    5.8896    3.4190  -19.7422 H   0  0  0  0  0  0  0  0  0  0  0  0
    3.0599    3.5877  -18.5862 H   0  0  0  0  0  0  0  0  0  0  0  0
    4.4258    1.4425  -18.0294 H   0  0  0  0  0  0  0  0  0  0  0  0
    4.3320    6.3771  -16.5845 H   0  0  0  0  0  0  0  0  0  0  0  0
    3.2029    6.1530  -17.7428 H   0  0  0  0  0  0  0  0  0  0  0  0
    3.2985    4.4545  -20.7357 H   0  0  0  0  0  0  0  0  0  0  0  0
  1  2  2  0
  1  3  1  0
  2  4  1  0
  3  5  2  0
  4 11  2  0
  5 11  1  0
  6  9  2  0
  6 10  1  0
  7  9  1  0
  7 12  2  0
  8 10  2  0
  8 12  1  0
  9 13  1  0
 10 14  1  0
 11 25  1  0
 12 30  1  0
 13 21  1  0
 13 32  2  0
 14 29  1  0
 14 33  2  0
 15 16  1  0
 15 17  1  0
 16 18  1  0
 17 21  1  0
 18 21  1  0
 19 20  1  0
 19 22  1  0
 20 22  1  0
 22 31  1  0
 23 30  1  0
 24 37  1  0
 25 27  1  0
 26 28  1  0
 26 31  1  0
 27 28  1  0
 27 29  1  0
 28 36  1  0
 30 37  1  0
 34 37  2  0
 35 37  2  0
  1 38  1  0
  2 39  1  0
  3 40  1  0
  4 41  1  0
  5 42  1  0
  6 43  1  0
  7 44  1  0
  8 45  1  0
 15 46  1  0
 15 47  1  0
 16 48  1  0
 16 49  1  0
 17 50  1  0
 17 51  1  0
 18 52  1  0
 18 53  1  0
 19 54  1  0
 19 55  1  0
 20 56  1  0
 20 57  1  0
 21 58  1  0
 22 59  1  0
 23 60  1  0
 23 61  1  0
 23 62  1  0
 24 63  1  0
 24 64  1  0
 24 65  1  0
 25 66  1  0
 25 67  1  0
 26 68  1  0
 26 69  1  0
 27 70  1  6
 28 71  1  1
 29 72  1  0
 31 73  1  0
 31 74  1  0
 36 75  1  0
M  CHG  1  31   1
M  END
>  <OMEGA_C>  (3) 
7onRQHH5vL9eJKzB70ToQERlkr4NIarBUHakQIlvvL+SC6zB2u/RQOqbaD9R/6fB7xKOQBvBkL7I
zKnBwRHBQHUeD79qAIrBtr3fQEAKyr/+GHTB8pzrQAXNSD8pVXvBI+vGQHat2b/Zj4PB/vPTQOtG
Kz/FJYfB252kQLgQaT/Ko6fBu8jwQFs9pL5jh23BFLuzQI/uQMChxIbBfnrNQANX7D/h4o3BqqYT
QA25hMA7UIfB2IxSQExyp8BT7YrBR/BCQAknM8Dy14jBYZ2FQNj8kMAAMJPBwo6lQD5yB0Fnj43B
9Q7KQBcM8UCDAJHBU1CMQLckR8ASp47BpTibQKnB5EDAH5PBgM0PQQz/jD+6klXB9A8PQaqHHsCD
U0LB25yLQB7SC0BjMqXBcMCVQDO0mED3HI7BGx2eQBvyPECggZvBF1x/QB+qgUDJkJfBVgamQDBW
AEAJypLBtMkCQYzhB77sgVnBntiFQLldxEA3WYzBX17DQO1agcCUHIPBho/qQCP4KUCQKo/ByNHN
QDmV079/r0XB4vwAQcq/i75k9C/BZyNuQB3vnUAORaDB3+/4QPCci79h+kLBvqziQNkZGcBvwq3B
4mkFQYADlL5gOKrBSg6TQGV0GMDVsa3B3mXjQJeW6T8BoqbBugdXQEAQkb70uqnBOfatQBRIIL9V
LpHBccPlQG4hHcB0d2rB6RL6QFCY3T9RO3fBWLuyP8GehcBsPozB2nwCQGFKicAatn3BIPl4QJL5
ssDOI4TB60kwQG2EwsDTko7BBN8bQPKGB8BLuo3B17pPQNCGFcC/BYHBUmqkQKexocDSBpTBLxJr
QPefj8AgApvBcSeeQNd/CUG7BIXBcnqgQB6wFkH1xZHBVRHfQO4M+kC+sZfBVL7cQGGs30CF8IrB
6eOQQB6lGcAKRZXBIYqQQDgg50D1fJvBc4gWQTKriD/gUUXBN+McQaWukz9nUGHB4ooFQaSm/j/D
M1fB36YLQVH+RsBdVTTBUlUNQTWsRMCLBFHBw4IfQbXdBcBsPEHBi6+MQGHFNUA9QqzBwWVUQM80
9T/7dKPBOTqQQBLxhUDwy4bBgky4QEZUmkAewI/BAni8QMrQWkD2753BxNRDQL+cZUB/sJTB6p+N
QEWkuD9DPJDBfJ+KQAkRzEAMrYTB7/tMQIjlxEA18Y3BExtTQDqLjkC54qXB8qTCQOh90L9CyKzB
9PHbQPFI7b5EbKzBbzCWQABtxr9AA6vB/cfIQA9dSD9MWarBEwKDQJaTnb7+0qjBow3FQJUkIr/X
VYrBO8fiQNpRzr+qQ3TBq7HsQNFIQz8adnvBJtbLQPYf4r893IPBEtPVQHMtHz/RXYfBajucQEtd
XD+qeqjBkVDyQNj1rr4lqW3BwJi7QCftRsAhPYfBcz3OQMJ65D8lQo7Brp8rQBZrgsB/sYbBrXlh
QN3XqMBReYrBRFJWQGwJNMBHd4vB7paOQBoVl8BHKZPBUIPFQAli8EAc+ovB8w+jQNvPAEFcTYTB
mhuXQCPUUMCJ1I/BJmWqQNzZ0UCfN4XB2XISQfludz+XOFbBVq4JQXo4IMDMJ0DBdnyHQPO3C0AQ
vKXB1OKZQCh0kECmAo7BzkmeQGSMNkC9OZzB7VGCQNYffkDbrpfBpMqnQCj47D+F4ZPBnykDQdpL
JL6YjVnB4jKJQAQ7uUBelYrBiCfNQCx3g8B0ooPBiXXpQISRKkBDAY/B8F3HQKxysb/JSUbBvrn+
QOBNGr4IKDDBiIp6QPKdn0ANnp/BERr0QIjVfL+nwULBBVzRQFZnJcDpaq7Bhwr+QLDiBr9Rva3B
INeCQAltHMBDVqvBjRLcQMjZ1j9QL6rBsO9BQOmJfr53aKfBMteyQJYROr/bo5HBn4boQEpyHsCe
TGrBgAr6QAeC3D9TMnfBUfLSP39hhcCpnInBKngrQEmwgMDZznvBpXSDQC0ItsBPyoPBROs3QOf0
wcDhy43BY80uQGTnGcCT+ZHB18ZeQIIUA8AnO4XBiqesQCBcqcC+a5PBTAV+QOxRmMDdC5vBJKzA
QOkz8kB3rpTBhKHnQH/z9EA5I4rBqo2sQBpXCUFS9XnBSZiFQE/3B0HnhYfBVFKfQFOnKsDn7pbB
/OC6QNqPwkBt5HzBtIAYQbnrcD86s0XBTuofQa4uXj9DcWHBATMKQdD89T+xEVnBC2wEQVW7Q8DF
5THBjWkHQco5SMB4dU7BobUaQUSmD8DJiD7BJECJQBRRNkAXuqzBKYVLQFmiAEBEoaPBdsGWQJ3n
ckAnZYfBTuS7QOBPlEB6EZDBTWy8QAusUkBiHJ/BOVRGQE7tY0AwOZXB+y+RQJGzlj9+JpLBMLxh
QHhttEArh4XBeZ19QPaByUBo9pDB8fFcQHY0lECknKXBkVDCQCAc07+2F6zBd7rbQACt+L7x46vB
xNyVQIT6x7/HWarBOrDIQPI8RD/l+6nBtc+CQBq0oL6ZUKjB1enDQMn3FL/MPorBfjjiQAzVzb8+
nXTBa6XsQLxjRT8eJ3vBAgfLQNt43b+d8YPBU97UQBPqKj/kHofB8yicQEtOWj/ZHajBKOLyQNbY
u75XG27BJmq7QFIaRMD2X4fB90jNQCWY7D+e3Y3Bpi4wQEiugMBhQYTBDtBiQI4sp8CkqojBieJU
QBcVMcAF2InBrCyLQDChlcDjK5LBmeHBQI7L9UBX7Y3BTsqeQDuuA0H5e4bBV5uUQE/ETcD1Ko/B
MGqoQF7X10C8nobBMx70QBExJL8/bkbBd9wWQWE+DkA94VDB3YSHQMTFC0AynKXBV1aaQEsQlEAR
no7BWEKeQIZ0OEBJNpzBtC6CQOtggEAI65fBcUWnQHnw8z9tq5PBXOoEQQZcmL5861rBngeIQBeC
vEDicovBJzHOQI/tgcDgFoTBoCXoQFd7L0ANZo7BWKQlQfU8Ij80f2/B750pQQfSrr0rrkjBrz53
QPRbn0ChLKDBVOUcQVNBCz+zsVnBavHQQA4HJ8AHlq3BQ9H9QNwfDr/fMq3BK2mCQLcXHcAqlKrB
ehDcQHqW1D918qnBNY9BQLR4fr5T56bBN1+xQAKSKL/FgpHB2j3nQMu0HsAMumrB7SD6QLtg3D/i
e3bB/m/XP5UthMAAHIbBF7Y4QHx5fMBMFXfB3gWHQGAEtMAVgoLBudc2QCeBwMAsVovBSsgnQLBf
GcCE6o/BkVhhQFW1/L+68YPBXRqpQPmwp8CONJPBc49wQBFIl8CylZnBT8i8QKsP9UDjoZbB48Xj
QKV7/EDePIzB4panQENiDUGn9X7BTpmAQEWsCUHY34nBrGGaQDLaJ8DQcJbB0L25QO4ry0CCSn/B
NmwFQT4nCL8NGznBlcrYQM3XDD1J8kPB9aroQNYg179+G0fBdcAlQX+JM0AU1E/Bd/ULQavNLEBb
ZFzBGTEPQfXQC0DlDEHB8VuJQDIPNUAcuazBAotLQHMuAUC/fKPBZzCZQB/fe0Cax4fBt9O7QD8u
mUCSAZHBd4G8QKTaU0AMIp/BQRVHQNh3ZkCqGJXB8oGQQG10nj8D65HBsVJhQM1Ht0BXJIbBpeZ3
QBsfy0C45JHBo/NYQAySkkCs76XB

>  <OMEGA_E>  (3) 
oBQoP/zfKz/sx2Q/

>  <OMEGA_NBR>  (3) 
      6288

$$$$
29086
     RDKit          3D

 73 76  0  0  1  0  0  0  0  0999 V2000
    6.3844   -1.5008  -21.6434 C   0  0  0  0  0  0  0  0  0  0  0  0
    7.0709   -0.2764  -21.5285 C   0  0  0  0  0  0  0  0  0  0  0  0
    4.9892   -1.5500  -21.4516 C   0  0  0  0  0  0  0  0  0  0  0  0
    6.3624    0.9005  -21.2283 C   0  0  0  0  0  0  0  0  0  0  0  0
    4.2799   -0.3765  -21.1352 C   0  0  0  0  0  0  0  0  0  0  0  0
    6.0670   -0.5511  -17.1519 C   0  0  0  0  0  0  0  0  0  0  0  0
    7.4071    0.8256  -15.6481 C   0  0  0  0  0  0  0  0  0  0  0  0
    7.0641   -1.5446  -15.1719 C   0  0  0  0  0  0  0  0  0  0  0  0
    6.6231    0.6949  -16.8148 C   0  0  0  0  0  0  0  0  0  0  0  0
    4.9647    0.8504  -21.0128 C   0  0  0  0  0  0  0  0  0  0  0  0
    6.2907   -1.6702  -16.3404 C   0  0  0  0  0  0  0  0  0  0  0  0
    7.6382   -0.2994  -14.8238 C   0  0  0  0  0  0  0  0  0  0  0  0
    6.3998    1.8237  -17.7182 C   0  0  0  0  0  0  0  0  0  0  0  0
    1.9938   -4.3127  -17.0681 C   0  0  0  0  0  0  0  0  0  0  0  0
    2.8414   -4.3873  -18.3509 C   0  0  0  0  0  0  0  0  0  0  0  0
    6.1250    7.5499  -17.7545 C   0  0  0  0  0  0  0  0  0  0  0  0
    5.0573    8.1871  -16.8462 C   0  0  0  0  0  0  0  0  0  0  0  0
    3.5194   -4.2476  -16.9852 C   0  0  0  0  0  0  0  0  0  0  0  0
    5.2754    6.6877  -16.8173 C   0  0  0  0  0  0  0  0  0  0  0  0
    8.2729    0.9807  -12.7693 C   0  0  0  0  0  0  0  0  0  0  0  0
    8.9229   -2.5475  -12.1663 C   0  0  0  0  0  0  0  0  0  0  0  0
    4.1960    2.1013  -20.6402 C   0  0  0  0  0  0  0  0  0  0  0  0
    5.6833   -2.9951  -16.7311 C   0  0  0  0  0  0  0  0  0  0  0  0
    4.1539   -2.9012  -16.6304 C   0  0  0  0  0  0  0  0  0  0  0  0
    4.7538    4.5729  -17.7797 C   0  0  0  0  0  0  0  0  0  0  0  0
    4.8851    2.8386  -19.4786 C   0  0  1  0  0  0  0  0  0  0  0  0
    4.0060    3.9722  -18.9586 C   0  0  2  0  0  0  0  0  0  0  0  0
    5.1810    1.8904  -18.3912 N   0  0  0  0  0  0  0  0  0  0  0  0
    8.4340   -0.1830  -13.6762 N   0  0  0  0  0  0  0  0  0  0  0  0
    4.2288    5.8647  -17.4066 N   0  0  0  0  0  0  0  0  0  0  0  0
    7.3030    2.6258  -17.9331 O   0  0  0  0  0  0  0  0  0  0  0  0
   10.7207   -0.6506  -12.5726 O   0  0  0  0  0  0  0  0  0  0  0  0
    9.9938   -2.0728  -14.5488 O   0  0  0  0  0  0  0  0  0  0  0  0
    3.8392    4.9427  -19.9946 O   0  0  0  0  0  0  0  0  0  0  0  0
    9.6602   -1.3505  -13.3114 S   0  0  0  0  0  0  0  0  0  0  0  0
    6.9282   -2.4037  -21.8788 H   0  0  0  0  0  0  0  0  0  0  0  0
    8.1409   -0.2414  -21.6710 H   0  0  0  0  0  0  0  0  0  0  0  0
    4.4640   -2.4888  -21.5475 H   0  0  0  0  0  0  0  0  0  0  0  0
    6.8853    1.8432  -21.1621 H   0  0  0  0  0  0  0  0  0  0  0  0
    3.2110   -0.4154  -20.9861 H   0  0  0  0  0  0  0  0  0  0  0  0
    5.4633   -0.6460  -18.0424 H   0  0  0  0  0  0  0  0  0  0  0  0
    7.8300    1.7841  -15.3855 H   0  0  0  0  0  0  0  0  0  0  0  0
    7.2206   -2.4040  -14.5369 H   0  0  0  0  0  0  0  0  0  0  0  0
    1.3924   -3.4162  -16.8572 H   0  0  0  0  0  0  0  0  0  0  0  0
    1.4607   -5.2049  -16.7080 H   0  0  0  0  0  0  0  0  0  0  0  0
    2.9150   -5.3329  -18.9082 H   0  0  0  0  0  0  0  0  0  0  0  0
    2.8467   -3.5441  -19.0573 H   0  0  0  0  0  0  0  0  0  0  0  0
    5.9681    7.5029  -18.8423 H   0  0  0  0  0  0  0  0  0  0  0  0
    7.1934    7.7060  -17.5446 H   0  0  0  0  0  0  0  0  0  0  0  0
    5.3628    8.8035  -15.9879 H   0  0  0  0  0  0  0  0  0  0  0  0
    4.1375    8.6003  -17.2856 H   0  0  0  0  0  0  0  0  0  0  0  0
    4.0265   -5.1437  -16.5980 H   0  0  0  0  0  0  0  0  0  0  0  0
    5.7917    6.2897  -15.9313 H   0  0  0  0  0  0  0  0  0  0  0  0
    8.9804    0.8941  -11.9315 H   0  0  0  0  0  0  0  0  0  0  0  0
    8.4742    1.9087  -13.3246 H   0  0  0  0  0  0  0  0  0  0  0  0
    7.2444    1.0023  -12.3798 H   0  0  0  0  0  0  0  0  0  0  0  0
    9.6686   -3.3127  -11.9047 H   0  0  0  0  0  0  0  0  0  0  0  0
    8.5952   -2.0280  -11.2538 H   0  0  0  0  0  0  0  0  0  0  0  0
    8.0573   -3.0280  -12.6456 H   0  0  0  0  0  0  0  0  0  0  0  0
    4.1477    2.7687  -21.5133 H   0  0  0  0  0  0  0  0  0  0  0  0
    3.1767    1.8212  -20.3359 H   0  0  0  0  0  0  0  0  0  0  0  0
    5.9692   -3.2399  -17.7646 H   0  0  0  0  0  0  0  0  0  0  0  0
    6.0487   -3.7809  -16.0536 H   0  0  0  0  0  0  0  0  0  0  0  0
    3.7900   -2.1325  -17.3280 H   0  0  0  0  0  0  0  0  0  0  0  0
    3.8733   -2.6264  -15.6029 H   0  0  0  0  0  0  0  0  0  0  0  0
    4.6663    3.8924  -16.9199 H   0  0  0  0  0  0  0  0  0  0  0  0
    5.8136    4.6856  -18.0517 H   0  0  0  0  0  0  0  0  0  0  0  0
    5.8267    3.2687  -19.8507 H   0  0  0  0  0  0  0  0  0  0  0  0
    3.0370    3.5723  -18.6253 H   0  0  0  0  0  0  0  0  0  0  0  0
    4.4607    1.2529  -18.1178 H   0  0  0  0  0  0  0  0  0  0  0  0
    3.4928    5.7414  -16.7410 H   0  0  0  0  0  0  0  0  0  0  0  0
    3.8693    6.3216  -18.2202 H   0  0  0  0  0  0  0  0  0  0  0  0
    3.3709    4.5518  -20.7228 H   0  0  0  0  0  0  0  0  0  0  0  0
  1  2  2  0
  1  3  1  0
  2  4  1  0
  3  5  2  0
  4 10  2  0
  5 10  1  0
  6  9  2  0
  6 11  1  0
  7  9  1  0
  7 12  2  0
  8 11  2  0
  8 12  1  0
  9 13  1  0
 10 22  1  0
 11 23  1  0
 12 29  1  0
 13 28  1  0
 13 31  2  0
 14 15  1  0
 14 18  1  0
 15 18  1  0
 16 17  1  0
 16 19  1  0
 17 19  1  0
 18 24  1  0
 19 30  1  0
 20 29  1  0
 21 35  1  0
 22 26  1  0
 23 24  1  0
 25 27  1  0
 25 30  1  0
 26 27  1  0
 26 28  1  0
 27 34  1  0
 29 35  1  0
 32 35  2  0
 33 35  2  0
  1 36  1  0
  2 37  1  0
  3 38  1  0
  4 39  1  0
  5 40  1  0
  6 41  1  0
  7 42  1  0
  8 43  1  0
 14 44  1  0
 14 45  1  0
 15 46  1  0
 15 47  1  0
 16 48  1  0
 16 49  1  0
 17 50  1  0
 17 51  1  0
 18 52  1  0
 19 53  1  0
 20 54  1  0
 20 55  1  0
 20 56  1  0
 21 57  1  0
 21 58  1  0
 21 59  1  0
 22 60  1  0
 22 61  1  0
 23 62  1  0
 23 63  1  0
 24 64  1  0
 24 65  1  0
 25 66  1  0
 25 67  1  0
 26 68  1  6
 27 69  1  1
 28 70  1  0
 30 71  1  0
 30 72  1  0
 34 73  1  0
M  CHG  1  30   1
M  END
>  <OMEGA_C>  (4) 
m0zMQHQbwL+iJa3B3kTiQDR/jb5wOqzBqaefQIJmxr/onKvBBZnLQGKKZj+L06nBJ/WIQNrIwL7o
FKnB0yTCQJUUDb8WN4nBOQftQAxdUz+cXnrBgw3iQCK0xb8+wHLBmfDTQInjMT++hIbBM9+eQNOz
WT84GqjB0k3JQDLJ1b8guYLB6Wv0QLRLmb48Lm3BWcvMQFpv6T/wvo3BYDX/P6EBisBwi4jBWNk1
QMRkjMC4zpLBy//DQNaY8UBHCY7BktWhQDT+AkEBxYbBCD5hQA/sh8Co4YfBxs+oQKQB1kDriYbB
wV0EQdIRez8+T0zBT8QOQUUKI8AuqULBmUWGQBR7BkAuH6XBj921QDmvP8Az2YXBGO2EQNytOcD9
CoXBBx+YQFtVkkDAPI7BslKcQPKrNUA11JvBgDGAQF04fkA4q5fBHMulQGj48T8UIZPBpPEGQe5w
O7640VrBI1KHQJqru0CyQIvB0rHpQIkMKEAAd4/B3ocrQQyPJr9KKUnBceYfQTaoBMC/x2jBGLZ1
QIgqnkDb9J/BXZAaQVrcrL9l+1TB57PdQFnWGcDdB6/BH0ECQSQ6d743Xq3BIdmOQKBIH8BWYazB
AlTcQG3v6z8ETKnBroBNQJqx1L5746fBV9OuQNpiJb/EVpDBBY/6QAhe5D82K3bB+A7nQODaGcD6
lmjB1TmyP0GiWsBz24bBx/a6P+SOpsAKqoXBR486QMmmqsDrQ5fBzjA2QAvSYsBUdZjBtfq+QJkX
8ED4vJbBWzDmQN2X9kBGW4zBwZurQCTbDEFYzn/BHGaEQAKbCUHfSIrBA9mAQOqYpMDNyITBP1W5
QD5FyUCu5n7Bnq8PQTDjZD+A5z7BX5YHQRJR9D+ZMVXB+9HnQDFLgD/bE0bBeLIaQcYDVMCfeT7B
EoYJQQvKAcCCDzTBgOoAQavKQcBoVErBqLmEQKExMUA6G6zBFE9LQPEd6T/nr6LBtQO/QCpbT8D7
HY7Bpo7BQGT6ccC+bYDBb49yQEF7CMCmn4rBwuN3QO0WKMB3pXnBXlKVQIUdeUDbW4fBUQm6QKDw
lUDuaZDBVXS6QKkxUUA9zp7B+F5CQDKgZECJAJXBxb2OQHFgoD9J8ZDBOolfQGa5t0B+7YXBnKJ3
QNpKykD/wpHBWLxXQLOokUBXyKXB

>  <OMEGA_E>  (4) 
LLRrPw==

>  <OMEGA_NBR>  (4) 
      7794

$$$$
50146844
     RDKit          3D

 82 84  0  0  1  0  0  0  0  0999 V2000
    6.4505   -1.3340  -21.6064 C   0  0  0  0  0  0  0  0  0  0  0  0
    0.4592   -4.8423  -15.5402 C   0  0  0  0  0  0  0  0  0  0  0  0
    7.1627   -0.1237  -21.4908 C   0  0  0  0  0  0  0  0  0  0  0  0
    5.0466   -1.3369  -21.4932 C   0  0  0  0  0  0  0  0  0  0  0  0
    0.5425   -3.6800  -16.3331 C   0  0  0  0  0  0  0  0  0  0  0  0
    1.5069   -5.7842  -15.5568 C   0  0  0  0  0  0  0  0  0  0  0  0
    6.4730    1.0824  -21.2550 C   0  0  0  0  0  0  0  0  0  0  0  0
    4.3561   -0.1364  -21.2343 C   0  0  0  0  0  0  0  0  0  0  0  0
    1.6696   -3.4632  -17.1508 C   0  0  0  0  0  0  0  0  0  0  0  0
    2.6339   -5.5700  -16.3729 C   0  0  0  0  0  0  0  0  0  0  0  0
    6.0268   -0.5109  -17.2073 C   0  0  0  0  0  0  0  0  0  0  0  0
    6.9870   -1.5478  -15.2317 C   0  0  0  0  0  0  0  0  0  0  0  0
    7.4372    0.7981  -15.7064 C   0  0  0  0  0  0  0  0  0  0  0  0
    6.2203   -1.6480  -16.4029 C   0  0  0  0  0  0  0  0  0  0  0  0
    6.6312    0.7151  -16.8636 C   0  0  0  0  0  0  0  0  0  0  0  0
    5.0668    1.0790  -21.1063 C   0  0  0  0  0  0  0  0  0  0  0  0
    2.7143   -4.4171  -17.1840 C   0  0  0  0  0  0  0  0  0  0  0  0
    7.5962   -0.3328  -14.8697 C   0  0  0  0  0  0  0  0  0  0  0  0
    5.6419   -2.9433  -16.7846 C   0  0  0  0  0  0  0  0  0  0  0  0
    6.3962    1.8868  -17.7177 C   0  0  0  0  0  0  0  0  0  0  0  0
    3.5340   -4.1470  -19.5602 C   0  0  0  0  0  0  0  0  0  0  0  0
    6.7578    7.8806  -19.5554 C   0  0  0  0  0  0  0  0  0  0  0  0
    4.6134    8.1246  -18.2512 C   0  0  0  0  0  0  0  0  0  0  0  0
    9.0393   -1.4988  -13.1888 C   0  0  0  0  0  0  0  0  0  0  0  0
    7.0727   -0.0287  -11.1880 C   0  0  0  0  0  0  0  0  0  0  0  0
    4.3252    2.3590  -20.7326 C   0  0  0  0  0  0  0  0  0  0  0  0
    3.9695    5.3241  -19.4028 C   0  0  0  0  0  0  0  0  0  0  0  0
    3.9238   -4.2193  -18.0797 C   0  0  1  0  0  0  0  0  0  0  0  0
    4.8930    2.9778  -19.4166 C   0  0  1  0  0  0  0  0  0  0  0  0
    5.3038    7.3910  -19.4130 C   0  0  0  0  0  0  0  0  0  0  0  0
    3.9328    3.9727  -18.7140 C   0  0  2  0  0  0  0  0  0  0  0  0
    4.6115   -2.9841  -17.7098 N   0  0  0  0  0  0  0  0  0  0  0  0
    5.2173    1.9275  -18.4552 N   0  0  0  0  0  0  0  0  0  0  0  0
    8.3444   -0.2703  -13.6855 N   0  0  0  0  0  0  0  0  0  0  0  0
    5.2802    5.9474  -19.1318 N   0  0  0  0  0  0  0  0  0  0  0  0
    6.0758   -3.9778  -16.2872 O   0  0  0  0  0  0  0  0  0  0  0  0
    7.2229    2.7921  -17.7775 O   0  0  0  0  0  0  0  0  0  0  0  0
    6.9667    1.8531  -13.0318 O   0  0  0  0  0  0  0  0  0  0  0  0
    9.2027    1.3837  -11.9163 O   0  0  0  0  0  0  0  0  0  0  0  0
    2.5895    3.5040  -18.7183 O   0  0  0  0  0  0  0  0  0  0  0  0
    7.9382    0.8957  -12.4827 S   0  0  0  0  0  0  0  0  0  0  0  0
    6.9806   -2.2585  -21.7816 H   0  0  0  0  0  0  0  0  0  0  0  0
   -0.4084   -5.0110  -14.9194 H   0  0  0  0  0  0  0  0  0  0  0  0
    8.2387   -0.1203  -21.5831 H   0  0  0  0  0  0  0  0  0  0  0  0
    4.4985   -2.2607  -21.6050 H   0  0  0  0  0  0  0  0  0  0  0  0
   -0.2578   -2.9551  -16.3140 H   0  0  0  0  0  0  0  0  0  0  0  0
    1.4455   -6.6709  -14.9432 H   0  0  0  0  0  0  0  0  0  0  0  0
    7.0197    2.0114  -21.1877 H   0  0  0  0  0  0  0  0  0  0  0  0
    3.2809   -0.1446  -21.1334 H   0  0  0  0  0  0  0  0  0  0  0  0
    1.7360   -2.5688  -17.7524 H   0  0  0  0  0  0  0  0  0  0  0  0
    3.4393   -6.2896  -16.3786 H   0  0  0  0  0  0  0  0  0  0  0  0
    5.4119   -0.5774  -18.0927 H   0  0  0  0  0  0  0  0  0  0  0  0
    7.1108   -2.4150  -14.6000 H   0  0  0  0  0  0  0  0  0  0  0  0
    7.9328    1.7254  -15.4597 H   0  0  0  0  0  0  0  0  0  0  0  0
    4.4374   -4.0037  -20.1713 H   0  0  0  0  0  0  0  0  0  0  0  0
    3.0371   -5.0832  -19.8546 H   0  0  0  0  0  0  0  0  0  0  0  0
    2.8473   -3.3022  -19.7176 H   0  0  0  0  0  0  0  0  0  0  0  0
    7.2437    7.3510  -20.3881 H   0  0  0  0  0  0  0  0  0  0  0  0
    6.7623    8.9621  -19.7563 H   0  0  0  0  0  0  0  0  0  0  0  0
    7.3055    7.6786  -18.6231 H   0  0  0  0  0  0  0  0  0  0  0  0
    3.5767    7.7692  -18.1568 H   0  0  0  0  0  0  0  0  0  0  0  0
    5.1565    7.9231  -17.3160 H   0  0  0  0  0  0  0  0  0  0  0  0
    4.6133    9.2066  -18.4493 H   0  0  0  0  0  0  0  0  0  0  0  0
    9.5734   -1.2666  -12.2556 H   0  0  0  0  0  0  0  0  0  0  0  0
    8.2973   -2.2886  -12.9997 H   0  0  0  0  0  0  0  0  0  0  0  0
    9.7582   -1.8448  -13.9462 H   0  0  0  0  0  0  0  0  0  0  0  0
    6.7806    0.6576  -10.3796 H   0  0  0  0  0  0  0  0  0  0  0  0
    6.1734   -0.4991  -11.6123 H   0  0  0  0  0  0  0  0  0  0  0  0
    7.7383   -0.8067  -10.7858 H   0  0  0  0  0  0  0  0  0  0  0  0
    4.4352    3.0885  -21.5485 H   0  0  0  0  0  0  0  0  0  0  0  0
    3.2595    2.1272  -20.5892 H   0  0  0  0  0  0  0  0  0  0  0  0
    3.8372    5.1927  -20.4868 H   0  0  0  0  0  0  0  0  0  0  0  0
    3.1652    5.9635  -19.0100 H   0  0  0  0  0  0  0  0  0  0  0  0
    4.6057   -5.0713  -17.9413 H   0  0  0  0  0  0  0  0  0  0  0  0
    5.8131    3.5231  -19.6737 H   0  0  0  0  0  0  0  0  0  0  0  0
    4.7604    7.6019  -20.3459 H   0  0  0  0  0  0  0  0  0  0  0  0
    4.2767    4.1019  -17.6772 H   0  0  0  0  0  0  0  0  0  0  0  0
    4.3255   -2.1299  -18.1440 H   0  0  0  0  0  0  0  0  0  0  0  0
    4.5520    1.1935  -18.3188 H   0  0  0  0  0  0  0  0  0  0  0  0
    5.5055    5.8076  -18.1676 H   0  0  0  0  0  0  0  0  0  0  0  0
    5.9688    5.5009  -19.7031 H   0  0  0  0  0  0  0  0  0  0  0  0
    2.5478    2.6570  -18.2900 H   0  0  0  0  0  0  0  0  0  0  0  0
  1  3  2  0
  1  4  1  0
  2  5  2  0
  2  6  1  0
  3  7  1  0
  4  8  2  0
  5  9  1  0
  6 10  2  0
  7 16  2  0
  8 16  1  0
  9 17  2  0
 10 17  1  0
 11 14  2  0
 11 15  1  0
 12 14  1  0
 12 18  2  0
 13 15  2  0
 13 18  1  0
 14 19  1  0
 15 20  1  0
 16 26  1  0
 17 28  1  0
 18 34  1  0
 19 32  1  0
 19 36  2  0
 20 33  1  0
 20 37  2  0
 21 28  1  0
 22 30  1  0
 23 30  1  0
 24 34  1  0
 25 41  1  0
 26 29  1  0
 27 31  1  0
 27 35  1  0
 28 32  1  0
 29 31  1  0
 29 33  1  0
 30 35  1  0
 31 40  1  0
 34 41  1  0
 38 41  2  0
 39 41  2  0
  1 42  1  0
  2 43  1  0
  3 44  1  0
  4 45  1  0
  5 46  1  0
  6 47  1  0
  7 48  1  0
  8 49  1  0
  9 50  1  0
 10 51  1  0
 11 52  1  0
 12 53  1  0
 13 54  1  0
 21 55  1  0
 21 56  1  0
 21 57  1  0
 22 58  1  0
 22 59  1  0
 22 60  1  0
 23 61  1  0
 23 62  1  0
 23 63  1  0
 24 64  1  0
 24 65  1  0
 24 66  1  0
 25 67  1  0
 25 68  1  0
 25 69  1  0
 26 70  1  0
 26 71  1  0
 27 72  1  0
 27 73  1  0
 28 74  1  6
 29 75  1  6
 30 76  1  0
 31 77  1  1
 32 78  1  0
 33 79  1  0
 35 80  1  0
 35 81  1  0
 40 82  1  0
M  CHG  1  35   1
M  END
>  <OMEGA_C>  (5) 
2mrOQMbBqr/02azBWBrrPg70msCLpHjBbzTlQEBH/b097avBZ32hQF4eq78W8qvBXOMKPweFa8A+
qoLBiOPAP1YYucB/6HjBoyLPQGiLij81CqrBHWWLQAisC77Z36nB6rPVP7elXcDZNInBfJIoQIo9
ssCt+4LBLtvAQGDMAr92qInBUpXfQCodxr8ZtXPBqf3tQAJPTD94TXvB0QzHQJby0r8fOYPBszLU
QPsNNz+z6IbBZCOiQJ4dij+h2ajBWrctQEJZjcC+eInByRPzQLhoqr5w6m3B04q0QDtfPMDXRobB
sq3MQCGE8T/ZvY3ByixiQDS0hMBje5zBnj/YQBwu/EBfcZzBp6CTQHT+AUFgApLBDqEQQYzZv79p
BVPBZFPiQIBW67wWAjPB9GeKQBb6FkBY3KXBCgx+QLReqkDaOJvBSCB7QLoEh8Alo5DBqpOcQJqT
PkAxVZvBhripQAqD7EDITZvByLN7QP4/fkBftpXBS5GTQCX8PsC5rY3B3fOmQM659j9YpJPBjIIF
QQxpir7m91rBNfeoQBpRvkDkDZnBz2zCQN+TfsA+TILByyHnQC6xMkBiOI7BgO/eQCQx7T9FglDB
GD4TQTsdsT9CqT7B/rolQA1CYED/vpXBEQb+QL9OZT8nuUfBaWHfQOeLEMDEQK7BzhTRvjdaoMAR
tm7BsNEDQVhO9r1KqqzBpfOPQLKvEMAh16zBxAGEvnYgPcAhg4LBgAW5P7l31cBCF2/BGaHgQBe6
AEBWgKnBfflRQAoeFL4cEanB4TTeP9NmJMDsBI7BIR1cQF1EycBIB4PBgC6tQLLPE7/NvZDB9ovj
QL+OGsC2mWnBPNn9QJLa3D/uWnfBE/+NQF4egMC7XqHBwF9CQIGposA31p7Bijk2QI1XU8CpvZ3B
OMznQKo760DGGqPB8WTYQMpkD0HvDJ7BvcbpQC+39UAK/JTB2udkQEKd+EAdQZHBzwGlQFOK/UBE
h4rBA6CTQFxOE0EpmJPBhCwZQRkhor/8FkTBzsEEQcd3EsD2/k/BbyEcQRcj7L9yI1/BbPrYQLJa
KD+1EibBdozFQL+H/74kzDnB9Z/3QKuBTr+HkizBZ+2NQPypRUBeY6zBdptQQFUkCEC/tqTB7ZN1
QJwqpkAN5aPBMJNKQFjVvkCHFJjBLmKTQDpIosDOh4/B6QS6QAJ6YUC5Y53BP1WYQMlC80BTxKLB
0dqIQLBCg0Dnao3BK2qKQBhRCMACJ5HByqmRQI3FmD/+jJLB0SywQLXXuUAyV5HBVgC/QFoHsEAG
oJ3BXQ8jQAQNKkABUpLB7rDPQMzKq7+IG63BCo8PP0Z4l8CU+nbBVDfmQCTIDr6sbqvBlLyiQCZf
rr9TVqzBzsQpP8lGYsDnX4HBs6/HPzALt8DV03jBosrPQKSZhT9A/6jBPEyMQIS2P74rvKnBoSbh
P8AIVcDEQ4jBFAEqQH1+sMCBSYPB0EnCQLKL9r6ILorBpE7dQIKExr/WHHTBjL7pQERBVD+tDnrB
qQzIQEzM0b8O5IPBSyfTQP66QT/4zYbBFbmiQCpfgj8ZAqjBdTYwQBJ3isD/VInBUcPtQMJtqL4g
LW3BSRa3QHGIO8D6X4fBCvvLQGS4+T/heo3BHJ9bQE0MgcAJo5zBkGSaQFDv+0BrzYvBv/HnQIa7
60DTPY/BOKPpQMjhcb7XpUXBfRAeQWqZ5D+NnVLB5+KJQLrVEUCbXqXB5O+LQEhDnEATPo7BF2Z6
QDjNhMD6C5HBGcmbQKdkQUDod5vB3TK9QE8k2UBkP4vBpZF0QDB0gUA4fpfBSNqUQA9EPMB+XI7B
Mh2lQF93A0Dw5ZLBgW4BQQIXor4XtlnBrjmxQHbftEBFHpLBOIHFQCtLfsDVqIPBrSboQMn6MkDZ
eI7B7okkQZyEEr5Z8W7BiFElQQGlOr8vTkfBvKNdQIl/nUDKDqDBnBUcQTCyCT3YJ1nB0+jgQCrr
D8Cd+67BVYyRvj6lnMDDiGzB1lgEQQzu/70gBKzBa3iRQKT9EcAIv63Bo9nJvbmqMcBYmoDBqhG+
P21I1MCqsW/BYALhQOEi/D+04qfBdbNTQGO3VL6xDqnBPozrP9AaGsCuu4zB7TRbQJqgyMDe74PB
Cd2wQOJFC79doJHBafngQOCgG8A0SGrBjNz3QMyP4T8P+HTBZ4uJQHX+ecDm9aHBxqE4QFZAnsD6
357BuAAxQBtmSsBPZ53BJaZ3QCO47kDM84jBo7OjQA+TC0G2uobB6MiWQLBnA0GGH5TBfG4AQYXr
0kAJ2o7BmkvkQMid9kB3j5fBVDbxQEN6A0GnKorBlXX/QDP8cr6D1jfBC7DWQOXWMD8TnkXBdgvU
QPMejb/3m0TBMAMvQZ8eBUBP/lHBjsoVQfJBGEAV6l7Bb5cWQc/f+z/T8kLBOE+LQOAmPUAjTKzB
u8ZQQLNPAEAdyaPBri9mQPVkskC8XovBWtiVQMkRh0DZqofB13GSQPy/oMDvZ5DBTyi5QLyXY0A5
wp3BQuLAQAZ5zkCP6YLBHOA7QFfKX0BsrJTBueOLQBISBcD6u5HBfMWNQM0Ntj9hzZDBBULKQGoH
oUCBl5LBz1yqQIwywECzZpnBIZxHQFs3jUDj2qXB56jRQAT4q7+ioKzBBG/kPgvfmsC2VHrBjMLn
QJxDEL7ZoKrBbaCkQAM/r79ETKzBOh8PP+xoaMAG5oLBGci7P/HWucCtqHvBqNXQQA2ohD+6TKjB
Z6uNQLgjTr4ax6nBHS3YP8QtWcAoW4nBJEwmQJxFssAnQ4TBVxG/QMgD4b4jSonBtljfQGDIxb9b
9nPBFxjsQARnVD//9nnBl37GQJT4zb/KTIPBTMDRQEDYSD8MMobBNqijQESEgD8GuKfB+GktQCLM
i8DCHYrBn0DyQJylrL7nZW3B4sK0QBmmOcAlu4bB/+/JQAOu/T8n1ozBpF5hQPSjgMBpBJ3BtFOW
QCDf+kDSSovBjknkQIVJ60DIRY7BgpkQQTivyr/DsFPBUNHmQMylJ75AdzHBCzWKQN57EECYQaXB
OXuIQMl9m0BdIY7BwMx6QESehMDQOZHBY8OaQK+6QEBkQpvBS0W5QFpF2EAWmorBSNJwQNq8gEDo
j5fBT2GTQGHhOsAIAY7B9qijQP2HA0CJkZLBnYMFQQBrqL4vpFrBMzquQCpCtECJpJHB+0TDQNKe
fMBEGYPBTovlQC4+NkDIsI3B6d/fQJwF4j9BDE7BtLAUQZjIoz/5aj7B1AlcQMrZnEAZM6DBHQMA
QYXqTD8ZjEbBikPjQKa5D8Claa7BztXYvlHFoMDIhHDBXSYFQb+H+b284arBHLKTQIVaEsCV+63B
pytivoTOOMBNV4LB1dmwP0Nk18DxzXLBC8DhQPZH+z9z9abBgExWQKR7aL7faqnBfVLjP3nTHcCY
uo3BIoJYQMvzycBCuITBDeyqQAXD9b5oTZDBRgvkQIb3G8C+gGrBxIj7QKyE4D+NdnXBnICNQE70
dsAq56HBSkRBQPg0nsAYm5/B64s1QC7DSsBFA57BvR1vQBFc7UBerIjBsPGeQBb3CkGrF4bB7IGT
QIIIA0EEm5PBKFH9QCud0kBFyY3BzGvhQM999kCFlZbBkNvsQHstA0EsEonBPXsZQf1Osr/4zUTB
rakEQSTfF8Cb6lDBF8wbQSsB9L+LP2DBM9neQK2z/z40ACTBBGPJQJjJIL+qoTfBZ+v8QGKwcr8e
+SvByiSMQOiuO0ASMKzB6EhRQC+n/D/s4qPBsUFeQI9/sUAtfIvBXnWRQG5FhkA/eofB3jiTQE8F
oMC7XJDBwB64QDusY0BDYZ3BLiq8QIJEzUA2RoLBrp83QEnJXUBEB5XBj9iJQJltA8CINZHBbYCM
QHFetD+LoJDBAVPHQOxxoEDS9JHBBE+oQAzXv0C+85jB+PlHQHKXjECBHKbB

>  <OMEGA_E>  (5) 
MJNlPxy7RD9mWDw/

>  <OMEGA_NBR>  (5) 
     13490

$$$$
50150455
     RDKit          3D

 77 81  0  0  1  0  0  0  0  0999 V2000
    6.5511   -0.8872  -21.8508 C   0  0  0  0  0  0  0  0  0  0  0  0
    0.4705   -5.2534  -15.2679 C   0  0  0  0  0  0  0  0  0  0  0  0
    6.8366    0.4166  -22.2562 C   0  0  0  0  0  0  0  0  0  0  0  0
    5.5749   -1.1176  -20.8815 C   0  0  0  0  0  0  0  0  0  0  0  0
    0.8149   -3.9206  -15.4931 C   0  0  0  0  0  0  0  0  0  0  0  0
    1.2243   -6.2750  -15.8453 C   0  0  0  0  0  0  0  0  0  0  0  0
    6.1460    1.4897  -21.6927 C   0  0  0  0  0  0  0  0  0  0  0  0
    4.8843   -0.0445  -20.3181 C   0  0  0  0  0  0  0  0  0  0  0  0
    1.9130   -3.6095  -16.2953 C   0  0  0  0  0  0  0  0  0  0  0  0
    2.3224   -5.9639  -16.6474 C   0  0  0  0  0  0  0  0  0  0  0  0
    6.0939   -0.7701  -16.8253 C   0  0  0  0  0  0  0  0  0  0  0  0
    6.6875   -1.6801  -14.6689 C   0  0  0  0  0  0  0  0  0  0  0  0
    6.1188   -1.8393  -15.9318 C   0  0  0  0  0  0  0  0  0  0  0  0
    6.6302    0.4628  -16.4526 C   0  0  0  0  0  0  0  0  0  0  0  0
    7.1940    0.6373  -15.1818 C   0  0  0  0  0  0  0  0  0  0  0  0
    5.1698    1.2593  -20.7234 C   0  0  0  0  0  0  0  0  0  0  0  0
    2.6669   -4.6312  -16.8726 C   0  0  0  0  0  0  0  0  0  0  0  0
    7.2367   -0.4501  -14.2988 C   0  0  0  0  0  0  0  0  0  0  0  0
    5.5557   -3.1232  -16.3187 C   0  0  0  0  0  0  0  0  0  0  0  0
    6.5847    1.5458  -17.4280 C   0  0  0  0  0  0  0  0  0  0  0  0
    7.7686    1.9701  -14.7942 C   0  0  0  0  0  0  0  0  0  0  0  0
    7.9598    2.0475  -13.2855 C   0  0  0  0  0  0  0  0  0  0  0  0
    5.5442    8.6049  -18.6454 C   0  0  0  0  0  0  0  0  0  0  0  0
    7.0190    8.3317  -18.5617 C   0  0  0  0  0  0  0  0  0  0  0  0
    8.6024    0.7587  -12.7977 C   0  0  0  0  0  0  0  0  0  0  0  0
    6.1182    7.3760  -19.2902 C   0  0  0  0  0  0  0  0  0  0  0  0
    3.4728   -4.1415  -19.2127 C   0  0  0  0  0  0  0  0  0  0  0  0
    4.4215    2.4216  -20.1126 C   0  0  0  0  0  0  0  0  0  0  0  0
    4.5167    5.4809  -19.0023 C   0  0  0  0  0  0  0  0  0  0  0  0
    3.8577   -4.2942  -17.7426 C   0  0  1  0  0  0  0  0  0  0  0  0
    5.1115    2.9799  -18.8558 C   0  0  1  0  0  0  0  0  0  0  0  0
    4.3342    4.1662  -18.2468 C   0  0  2  0  0  0  0  0  0  0  0  0
    4.5320   -3.1054  -17.2727 N   0  0  0  0  0  0  0  0  0  0  0  0
    5.3203    1.9388  -17.8755 N   0  0  0  0  0  0  0  0  0  0  0  0
    5.8388    6.0644  -18.6484 N   0  0  0  0  0  0  0  0  0  0  0  0
    5.9665   -4.1749  -15.7979 O   0  0  0  0  0  0  0  0  0  0  0  0
    7.6354    2.0632  -17.8397 O   0  0  0  0  0  0  0  0  0  0  0  0
    7.7696   -0.3804  -13.0372 O   0  0  0  0  0  0  0  0  0  0  0  0
    2.9399    3.8459  -18.2376 O   0  0  0  0  0  0  0  0  0  0  0  0
    7.0887   -1.7227  -22.2894 H   0  0  0  0  0  0  0  0  0  0  0  0
   -0.3844   -5.4956  -14.6435 H   0  0  0  0  0  0  0  0  0  0  0  0
    7.5964    0.5961  -23.0112 H   0  0  0  0  0  0  0  0  0  0  0  0
    5.3525   -2.1326  -20.5656 H   0  0  0  0  0  0  0  0  0  0  0  0
    0.2282   -3.1249  -15.0433 H   0  0  0  0  0  0  0  0  0  0  0  0
    0.9562   -7.3128  -15.6702 H   0  0  0  0  0  0  0  0  0  0  0  0
    6.3755    2.5020  -22.0148 H   0  0  0  0  0  0  0  0  0  0  0  0
    4.1247   -0.2340  -19.5643 H   0  0  0  0  0  0  0  0  0  0  0  0
    2.1736   -2.5681  -16.4651 H   0  0  0  0  0  0  0  0  0  0  0  0
    2.9043   -6.7669  -17.0921 H   0  0  0  0  0  0  0  0  0  0  0  0
    5.6549   -0.8985  -17.8126 H   0  0  0  0  0  0  0  0  0  0  0  0
    6.7105   -2.5149  -13.9718 H   0  0  0  0  0  0  0  0  0  0  0  0
    8.7346    2.0978  -15.2972 H   0  0  0  0  0  0  0  0  0  0  0  0
    7.1101    2.7897  -15.1035 H   0  0  0  0  0  0  0  0  0  0  0  0
    8.5758    2.9144  -13.0249 H   0  0  0  0  0  0  0  0  0  0  0  0
    6.9829    2.1714  -12.8013 H   0  0  0  0  0  0  0  0  0  0  0  0
    4.9594    8.4948  -17.7404 H   0  0  0  0  0  0  0  0  0  0  0  0
    5.2172    9.4086  -19.2938 H   0  0  0  0  0  0  0  0  0  0  0  0
    7.6805    8.9519  -19.1543 H   0  0  0  0  0  0  0  0  0  0  0  0
    7.4231    8.0386  -17.6004 H   0  0  0  0  0  0  0  0  0  0  0  0
    9.5800    0.5921  -13.2670 H   0  0  0  0  0  0  0  0  0  0  0  0
    8.7664    0.8170  -11.7165 H   0  0  0  0  0  0  0  0  0  0  0  0
    6.1760    7.3601  -20.3720 H   0  0  0  0  0  0  0  0  0  0  0  0
    2.7287   -3.3512  -19.3609 H   0  0  0  0  0  0  0  0  0  0  0  0
    4.3479   -3.8993  -19.8263 H   0  0  0  0  0  0  0  0  0  0  0  0
    3.0370   -5.0715  -19.5952 H   0  0  0  0  0  0  0  0  0  0  0  0
    4.3367    3.2073  -20.8744 H   0  0  0  0  0  0  0  0  0  0  0  0
    3.3942    2.1075  -19.8870 H   0  0  0  0  0  0  0  0  0  0  0  0
    4.5237    5.3501  -20.0872 H   0  0  0  0  0  0  0  0  0  0  0  0
    3.7741    6.2319  -18.7166 H   0  0  0  0  0  0  0  0  0  0  0  0
    4.6007   -5.0974  -17.6710 H   0  0  0  0  0  0  0  0  0  0  0  0
    6.1192    3.3296  -19.1147 H   0  0  0  0  0  0  0  0  0  0  0  0
    4.6390    4.2943  -17.2002 H   0  0  0  0  0  0  0  0  0  0  0  0
    4.1918   -2.2145  -17.6186 H   0  0  0  0  0  0  0  0  0  0  0  0
    4.4995    1.4380  -17.5519 H   0  0  0  0  0  0  0  0  0  0  0  0
    5.8970    6.1694  -17.6263 H   0  0  0  0  0  0  0  0  0  0  0  0
    6.5796    5.3984  -18.9046 H   0  0  0  0  0  0  0  0  0  0  0  0
    2.8572    3.0115  -17.7538 H   0  0  0  0  0  0  0  0  0  0  0  0
  1  3  2  0
  1  4  1  0
  2  5  2  0
  2  6  1  0
  3  7  1  0
  4  8  2  0
  5  9  1  0
  6 10  2  0
  7 16  2  0
  8 16  1  0
  9 17  2  0
 10 17  1  0
 11 13  2  0
 11 14  1  0
 12 13  1  0
 12 18  2  0
 13 19  1  0
 14 15  2  0
 14 20  1  0
 15 18  1  0
 15 21  1  0
 16 28  1  0
 17 30  1  0
 18 38  1  0
 19 33  1  0
 19 36  2  0
 20 34  1  0
 20 37  2  0
 21 22  1  0
 22 25  1  0
 23 24  1  0
 23 26  1  0
 24 26  1  0
 25 38  1  0
 26 35  1  0
 27 30  1  0
 28 31  1  0
 29 32  1  0
 29 35  1  0
 30 33  1  0
 31 32  1  0
 31 34  1  0
 32 39  1  0
  1 40  1  0
  2 41  1  0
  3 42  1  0
  4 43  1  0
  5 44  1  0
  6 45  1  0
  7 46  1  0
  8 47  1  0
  9 48  1  0
 10 49  1  0
 11 50  1  0
 12 51  1  0
 21 52  1  0
 21 53  1  0
 22 54  1  0
 22 55  1  0
 23 56  1  0
 23 57  1  0
 24 58  1  0
 24 59  1  0
 25 60  1  0
 25 61  1  0
 26 62  1  0
 27 63  1  0
 27 64  1  0
 27 65  1  0
 28 66  1  0
 28 67  1  0
 29 68  1  0
 29 69  1  0
 30 70  1  6
 31 71  1  6
 32 72  1  1
 33 73  1  0
 34 74  1  0
 35 75  1  0
 35 76  1  0
 39 77  1  0
M  CHG  1  35   1
M  END
>  <OMEGA_C>  (6) 
NKLRQEohY79rzq7B5OPwPpcbqMBKSXTBcsXaQDdG1T6hDLLBa2WyQCcNj79fDafBFJ1QP5HqesDg
43fBOrecPxjNyMAmhn3BTKzEQPitvj+kiq3BRUycQGAYNr1ji6LB1tz0Pz8BZ8CwXILBwqIUQG/Y
vsDSLYXBZAHDQOIjRb8wmobB6f/VQLAN17/Is2rBZ83DQNZu67+w6H7BtirUQIj17D7gnoPBgzXm
QFIkIz+V6HLBO2+lQEowoT+EyaXBxK0qQJwylMAk+4bB4JLnQKp45r7Sx2TBGMixQC7iR8DBjILB
9rXSQB7dxT+dbIvB/pf4QNgt/D/ltGzBB7f+QOgKA0BekVTBCGqxQHmtCUHQKZXBfZvgQKVOBUFe
fpTBdKMJQaQ4Qj9Vw0zBTMjDQP0H7EBnUprBykFeQIKHhMCFs5nBvXyNQE/8GkCo5qDB0IiQQFpj
r0DBBJjBGeV2QDhqicDj8I3BVpGjQFa3PkC72JbB1LGKQK5RhUBs+ZHBNwaRQK6/RsCHLorB+D+q
QC4q+D8NAY/BPte6QMMPwkDhL5XB5+2+QH6YhcBPxHzBcVX0QDQLBEDMt47BraD4QNy9wr48mFDB
5iY8QCAjdkCj5pHBPNbiQKaB3L+pULLBKs/Evkvcr8CzS2rBtxXzQPKWGD/hFrjBAkirQJB8CMBi
hqTBRLZpPuL+R8BnsXDBMsx0P3wC6sAMuXrBEgTMQPggIEBTHrDBwP2DQPijb76fg5zBGRwLQG1b
JMCQuIPBjOA5QFSK2MCLvIjB5vS0QIQCZr8pgI7BTbzWQFTzIMBijF/B/8ALQV5CBkBjwXTBw4Xj
QCGKMkDIp3HBaTYJQZiFOkDRZVDBynPfQLL3CkAc0kzBObOeQJLqB0FQ7I3BNfOmQMGJFkGvWZrB
UMb1QBc7D0EWPJnB2IntQB+eAEGlzYzBvEcZQZ2RFz9uRVTB+UIMQeIjUT+xdjvBE6LFQOCF60Dd
+aLBHKMuQJh6VsAR45rBOiKLQA6OecA2nJ7BrF1CQBFKosAOw5zBZMaKQBhETUC+/qbBRTtZQP7h
BkClGJ/Bx8GQQNszq0B+sqDBGItxQJxrx0CZu5XBAzmTQA8eo8A2Xo3BbdDDQOgYVUDZ6pjBTnKU
QDxriUAFmonBMCOGQKG5DcDs8ozBz/uPQGQRuD8yaozBXLS8QNlrxUCTAo3BOozSQAjArECWPJfB
T9w2QBW8QEC+B47B3ADSQACuRr+3qq7B6nKhPtWxmsCBWnPB2LHdQLYfAz+IyrHB7t6yQATpdL+D
zabBLJA+P4+GYcAIu3bBjjt9PwCevMDdDX3BFEHKQA1Qzz8BDq3BKG6fQFJdGj76EKLBMm/sPwWC
UcB85oHBceIFQLmbtMDnD4XB4GDGQIkLNr/gZIbB5IrYQPrS2L8EsGrBVF3FQE6m5b+bw37B1Ffa
QGs29D4LV4PBOmftQH6zFz/yeHLB2R6rQGsxuD+5MKXBSFghQKitisAywIbBROnsQO9zAr8loGTB
+mywQMv8QcBSjYLBPK/aQPrIyT/IAIvBwGcBQSpW8D/QHGzBDfMEQY5r9T8+BFTBxfDHQLdUC0Hi
upPBEHv2QO9fBUE9TpPB1vQNQVmmFD9otkzBOEjXQCuL7kCKHpnBV15UQF4Ud8CbhZnBYA2WQMLd
KEBxDqDBAkCgQLlPtUBE0ZbB9+FtQL4BgsC61o3ByvStQHA/SEAxCZbBxAOYQMJVi0Cm6JDB0USP
QOh7O8BbCIrBs+uyQPTZA0A2Wo7BxuXLQNDuxEACG5TBu5G7QO23g8DYJX3BFR39QEzfAUA6Yo7B
jsH+QHUN/r7UlFDBVaRVQJYUhECXrJDBMSPhQOCy0b+HWrLBXg4Lv4buoMDeLWnBPe31QDApJz+x
6rfBnMSpQJfV+r8sXqTBpE1hPkuxLMBNLG/BXbknP05E3cD7bXrBSJPTQIymJ0Bgiq/B0i6HQACA
drig85vB8yILQLPzD8BgK4PBGR0nQF1Az8DPzIjB3o23QDAyS78mPo7BQd3XQAqKIsApv1/BhNMQ
Qadx+T/SZ3TBFmHvQFehL0DOq3DBzccPQbUnL0A30E/B9DzrQIFHBkD29UvBSIa1QOb1CUHTa4zB
rd++QBuuGEFLxZjBoU0GQW25DkGZEJjB3aIBQUgDAEEOtovBXEEdQaS+tj5CilTBke0QQTUyHD9o
czvBaoLYQAd77kACyKHBGxcoQH5JQcARgZrBYE+GQIK0asCThp7BtSQ0QDgZmMDnoZzBXJ6UQGIw
XEB6CqbBfWppQL31GECVJJ7B5pqfQKawsUC4gp/B7U6KQOK4zkCLVZTBEfqMQK5FncB2eI3BOrzO
QJ6LWkBQNZjBcJWiQLw5jkAOkYjBgCGGQJjHAMBBpIzBntGXQEYWzj/5tIvB1ojOQMWfx0An7YvB
VvvhQIU5rkCUV5bBKE9NQNa6UkDz5IzB

>  <OMEGA_E>  (6) 
z79VwetBQ8E=

>  <OMEGA_NBR>  (6) 
     16230

$$$$
50150462
     RDKit          3D

 73 76  0  0  1  0  0  0  0  0999 V2000
    6.2242   -1.6005  -21.6340 C   0  0  0  0  0  0  0  0  0  0  0  0
    0.4237   -4.8131  -15.6363 C   0  0  0  0  0  0  0  0  0  0  0  0
    7.0393   -0.4885  -21.3402 C   0  0  0  0  0  0  0  0  0  0  0  0
    4.8221   -1.4716  -21.6095 C   0  0  0  0  0  0  0  0  0  0  0  0
    0.5427   -3.6475  -16.4196 C   0  0  0  0  0  0  0  0  0  0  0  0
    1.4373   -5.7914  -15.6690 C   0  0  0  0  0  0  0  0  0  0  0  0
    6.4532    0.7531  -21.0218 C   0  0  0  0  0  0  0  0  0  0  0  0
    4.2344   -0.2374  -21.2766 C   0  0  0  0  0  0  0  0  0  0  0  0
    1.6758   -3.4592  -17.2359 C   0  0  0  0  0  0  0  0  0  0  0  0
    2.5676   -5.6085  -16.4890 C   0  0  0  0  0  0  0  0  0  0  0  0
    6.0674   -0.6013  -17.2281 C   0  0  0  0  0  0  0  0  0  0  0  0
    7.0889   -1.6729  -15.2922 C   0  0  0  0  0  0  0  0  0  0  0  0
    7.4370    0.7093  -15.6910 C   0  0  0  0  0  0  0  0  0  0  0  0
    6.3029   -1.7616  -16.4618 C   0  0  0  0  0  0  0  0  0  0  0  0
    6.6409    0.6307  -16.8569 C   0  0  0  0  0  0  0  0  0  0  0  0
    5.0461    0.8797  -20.9770 C   0  0  0  0  0  0  0  0  0  0  0  0
    2.6907   -4.4449  -17.2791 C   0  0  0  0  0  0  0  0  0  0  0  0
    7.6423   -0.4438  -14.8846 C   0  0  0  0  0  0  0  0  0  0  0  0
    5.7205   -3.0532  -16.8803 C   0  0  0  0  0  0  0  0  0  0  0  0
    6.4029    1.8200  -17.6983 C   0  0  0  0  0  0  0  0  0  0  0  0
    5.5088    7.6698  -19.1047 C   0  0  0  0  0  0  0  0  0  0  0  0
    6.4113    7.6284  -17.8713 C   0  0  0  0  0  0  0  0  0  0  0  0
    5.6545    6.3665  -18.3048 C   0  0  0  0  0  0  0  0  0  0  0  0
    3.5257   -4.1468  -19.6397 C   0  0  0  0  0  0  0  0  0  0  0  0
    8.9154    0.8181  -13.2510 C   0  0  0  0  0  0  0  0  0  0  0  0
    4.3863    2.2214  -20.6956 C   0  0  0  0  0  0  0  0  0  0  0  0
    4.1489    4.5371  -17.5477 C   0  0  0  0  0  0  0  0  0  0  0  0
    3.9153   -4.2649  -18.1594 C   0  0  1  0  0  0  0  0  0  0  0  0
    4.9019    2.9410  -19.4167 C   0  0  1  0  0  0  0  0  0  0  0  0
    3.8201    3.9508  -18.9518 C   0  0  2  0  0  0  0  0  0  0  0  0
    4.6412   -3.0560  -17.7579 N   0  0  0  0  0  0  0  0  0  0  0  0
    5.1775    1.9479  -18.3567 N   0  0  0  0  0  0  0  0  0  0  0  0
    4.4824    5.9790  -17.4990 N   0  0  0  0  0  0  0  0  0  0  0  0
    6.1793   -4.1060  -16.4484 O   0  0  0  0  0  0  0  0  0  0  0  0
    7.2928    2.6516  -17.8461 O   0  0  0  0  0  0  0  0  0  0  0  0
    3.6517    4.9556  -19.9582 O   0  0  0  0  0  0  0  0  0  0  0  0
    8.3558   -0.4411  -13.6910 O   0  0  0  0  0  0  0  0  0  0  0  0
    6.6750   -2.5511  -21.8778 H   0  0  0  0  0  0  0  0  0  0  0  0
   -0.4448   -4.9565  -15.0106 H   0  0  0  0  0  0  0  0  0  0  0  0
    8.1145   -0.5881  -21.3591 H   0  0  0  0  0  0  0  0  0  0  0  0
    4.1978   -2.3205  -21.8463 H   0  0  0  0  0  0  0  0  0  0  0  0
   -0.2348   -2.8984  -16.3942 H   0  0  0  0  0  0  0  0  0  0  0  0
    1.3474   -6.6821  -15.0649 H   0  0  0  0  0  0  0  0  0  0  0  0
    7.0792    1.6078  -20.8121 H   0  0  0  0  0  0  0  0  0  0  0  0
    3.1588   -0.1435  -21.2500 H   0  0  0  0  0  0  0  0  0  0  0  0
    1.7699   -2.5617  -17.8292 H   0  0  0  0  0  0  0  0  0  0  0  0
    3.3424   -6.3605  -16.5135 H   0  0  0  0  0  0  0  0  0  0  0  0
    5.4421   -0.6577  -18.1069 H   0  0  0  0  0  0  0  0  0  0  0  0
    7.2681   -2.5596  -14.7022 H   0  0  0  0  0  0  0  0  0  0  0  0
    7.8910    1.6486  -15.4119 H   0  0  0  0  0  0  0  0  0  0  0  0
    4.5627    8.2302  -19.0752 H   0  0  0  0  0  0  0  0  0  0  0  0
    5.9523    7.7516  -20.1080 H   0  0  0  0  0  0  0  0  0  0  0  0
    7.5038    7.6811  -17.9879 H   0  0  0  0  0  0  0  0  0  0  0  0
    6.1143    8.1597  -16.9551 H   0  0  0  0  0  0  0  0  0  0  0  0
    6.2500    5.5657  -18.7675 H   0  0  0  0  0  0  0  0  0  0  0  0
    4.4325   -4.0177  -20.2488 H   0  0  0  0  0  0  0  0  0  0  0  0
    2.9998   -5.0602  -19.9543 H   0  0  0  0  0  0  0  0  0  0  0  0
    2.8653   -3.2778  -19.7767 H   0  0  0  0  0  0  0  0  0  0  0  0
    9.4485    0.6707  -12.3002 H   0  0  0  0  0  0  0  0  0  0  0  0
    9.6173    1.1926  -14.0106 H   0  0  0  0  0  0  0  0  0  0  0  0
    8.1058    1.5489  -13.1079 H   0  0  0  0  0  0  0  0  0  0  0  0
    4.5682    2.8806  -21.5571 H   0  0  0  0  0  0  0  0  0  0  0  0
    3.3048    2.0550  -20.5832 H   0  0  0  0  0  0  0  0  0  0  0  0
    3.2725    4.3742  -16.9032 H   0  0  0  0  0  0  0  0  0  0  0  0
    5.0084    3.9808  -17.1454 H   0  0  0  0  0  0  0  0  0  0  0  0
    4.5689   -5.1413  -18.0389 H   0  0  0  0  0  0  0  0  0  0  0  0
    5.8219    3.4912  -19.6636 H   0  0  0  0  0  0  0  0  0  0  0  0
    2.8776    3.3921  -18.8544 H   0  0  0  0  0  0  0  0  0  0  0  0
    4.3423   -2.1806  -18.1378 H   0  0  0  0  0  0  0  0  0  0  0  0
    4.4387    1.3273  -18.0941 H   0  0  0  0  0  0  0  0  0  0  0  0
    4.6637    6.2249  -16.5468 H   0  0  0  0  0  0  0  0  0  0  0  0
    3.6918    6.4932  -17.8314 H   0  0  0  0  0  0  0  0  0  0  0  0
    3.4538    4.5414  -20.7899 H   0  0  0  0  0  0  0  0  0  0  0  0
  1  3  2  0
  1  4  1  0
  2  5  2  0
  2  6  1  0
  3  7  1  0
  4  8  2  0
  5  9  1  0
  6 10  2  0
  7 16  2  0
  8 16  1  0
  9 17  2  0
 10 17  1  0
 11 14  2  0
 11 15  1  0
 12 14  1  0
 12 18  2  0
 13 15  2  0
 13 18  1  0
 14 19  1  0
 15 20  1  0
 16 26  1  0
 17 28  1  0
 18 37  1  0
 19 31  1  0
 19 34  2  0
 20 32  1  0
 20 35  2  0
 21 22  1  0
 21 23  1  0
 22 23  1  0
 23 33  1  0
 24 28  1  0
 25 37  1  0
 26 29  1  0
 27 30  1  0
 27 33  1  0
 28 31  1  0
 29 30  1  0
 29 32  1  0
 30 36  1  0
  1 38  1  0
  2 39  1  0
  3 40  1  0
  4 41  1  0
  5 42  1  0
  6 43  1  0
  7 44  1  0
  8 45  1  0
  9 46  1  0
 10 47  1  0
 11 48  1  0
 12 49  1  0
 13 50  1  0
 21 51  1  0
 21 52  1  0
 22 53  1  0
 22 54  1  0
 23 55  1  0
 24 56  1  0
 24 57  1  0
 24 58  1  0
 25 59  1  0
 25 60  1  0
 25 61  1  0
 26 62  1  0
 26 63  1  0
 27 64  1  0
 27 65  1  0
 28 66  1  6
 29 67  1  6
 30 68  1  1
 31 69  1  0
 32 70  1  0
 33 71  1  0
 33 72  1  0
 36 73  1  0
M  CHG  1  33   1
M  END
>  <OMEGA_C>  (7) 
0izHQFTczL9nEq3Bqu/YPqwEmsAmLnrB0UHhQBIc+r7AuKrB3E6aQJBevL824KzB0PAKPzJxacBa
W4PBdvq3P2VTucBMtHrBboDOQCTOQD+uLKjBKoCHQI8fc76INqrBt3/WP0ljXcAX44nBvlIkQDh5
s8Bp6YPB2yfCQMvsGb8104nBVdjiQGoh1r+1rHTBIvztQFiSNT9PDnvBkLHJQGh94b+7sYPBRILU
QPh2IT/W2obBUHmhQA03YT/60KfBqzMsQMs8jsCWO4rB7o30QFg6474vJ27BZg63QENnQ8DzCofB
weTMQCz26D8Plo3BPUiwQMxu9UB41pjBWinNQP8b9ECG+I7BifG0QIW6y0BVcJLBY6VhQGiyhMAM
Hp3BWqUOQSVuUT9ABFTBjFyMQAArDkCPkKXBzMOEQPkvkUCwYYzBgZN6QLh5iMB0RpHBNtycQKs5
PEBqVZvBj3x0QFDZfEA/nZfBbYSUQK+VQ8AnEI7Baa6lQKBT+T+b2pLBCHCPQI9Tv0Dw/YvBxbzF
QItkg8BWloPBqV7pQIO0KUDDxI7BLrZpQDGUnkBcqp/Bb7EFQVnS4b55DlvBx5nVQHpFI8DLBa/B
fL/jvm2bnsBHK3DBC9UBQUyPFr+C36rBTVSGQMmCFMAixa7B0W5wvnF/OcBoJ4PBO3asP+rT1cDD
CXHBxojiQKvNzT8Xf6bB/SlKQPD8Er4CAKrBNY3iP83yI8A9oo7BVulVQFuJy8CdG4TBkiWuQA1e
KL/w2pDBHpToQEDQI8AmPGvBwYL8QOoG0z8Tl3bB7gGSQNSuA0EFmpjBTXm+QCQN+EA93aDBYh/w
QOHL9UBK54/BA6jDQDKOAkESpIfBGADIQBMaskDDI5bBLteNQP2QgMCT/aHBYfw/QHntocBcop/B
pWE3QJbHUcC2Np7BHC0XQd+zKz+8zUTBhuAZQUiomD+NK2DBQ7EBQbZBxj/HuVHBFi+SQAVcOEAL
dazBkYFTQJWEA0BYqqTB2nBRQEn5i0C5OYfBtkSgQNDFfkDPKYnBwjSSQJSFpMCST5DBuEy6QGtv
X0AQT53BKSo4QHoXWUDH1ZbBSfSKQAmPC8BGGpHBDwqOQFzjqT+pwJDBDj2VQMUyx0DmX4TBY0Zs
QPjHz0Czpo7BYQtdQOBSkUC1UabBiCbJQL/8gL95Ba3BVgAqPt5ol8DbOn/BSDzkQGyCvz0MI6vB
J4mcQHZlXL9P6avBL3C9Pld3X8A6uITB3tmOP8JmuMA8wYDBgMjSQFJZqz/LHajBEwqLQFRTwT6E
tajBmdHCP2sgUsBr/orB1EERQGbJscC0AYfB4jrCQI2hJb+7QInBZT3cQDox8b/menPBPHPtQECq
9D6+bXfBw3TFQE7V7b/2gIPB17TWQGP3Az/Nb4XB9hGmQB48vj+9t6bB2HYeQOEtisDbMIzB9arv
QB8hOL9dXWvBevewQBleRcDDpYfBherTQDas4j/mfovBLs2+QP+u80CwRqXBBxGeQOyFB0G2G5/B
nyzAQCVl9UB3AJnBoKxWQA6+dsAEvp7BNxwKQRyM1T4aaE7Bs0+TQP7HM0B8gqLB5naPQHiUtUDS
VpbBsgtuQIOkg8AV/pLB2x2pQOB4T0CoyZfBWPKPQHxEiUDsCZHBC5+PQKcsPsCD9I7Bsc+uQBf0
AkA+JJHBO+K0QJjGzkC2h5LBFw29QAHyhcC4j4TBN5LxQHbDJEBkQovBGfhJQE82d0DzhY/BH/YB
QUB7T7+colfBfYvWQPkM+787T6/B8Ps3vzWInMDYp3XBkTgDQYeVgLysAazBp6mHQJ1Z2b+ug63B
0MK2vt3aLMCP0oPBhKJ1P5nI1sDsqXnBYarnQDfUC0Dg3KbBwa1RQCm+9T7exafBP7LWP1hDFcBS
5Y7BY+U/QHATy8B41ofBRgiwQNpfHL+ml5DBCsneQJ3UM8CNqmrBH079QBAPrz+CrXHBF220QMJD
1kBXWqnBhRrYQF6hAUGS/qnBcPufQA4WGUHvap/BA5x4QJGWAkGzxp7BDV7aQLZ3BEEzu5XBe7+I
QLSRbcB6cKPBxP8yQATxlsBu6aHBtsEuQAzsPMCCS5/B2KwRQebGSz465z7BpAAWQdA/XD9fRVnB
1a35QKDqjz+6CkzB7GWYQG0bZkDMh6jBX5dhQCh4K0BnIaHBrzqRQJ7lsUBoFJ/BpHVjQKhexkAJ
NJTB1caKQJq6oMC6kpLBmafIQK2takCwtpnBjPOfQOY3jEBcPInBDviHQBXHA8CInJHBKpuWQGeJ
sj8vqZDBy1HOQB5cu0CTepLBSqOuQCt92EC4EYvBkp9JQAddQECEPozB16XHQFAaVr+/za3BCGkL
PxOQo8AFK3jBu0TcQGVEzj7EU6zB1zibQOr6cb/qF6zB07caPwJCeMDIiIHBVDjJPx7xwcCs33rB
QZ/EQOHiwz81DqnBoZaDQDIBNT7GpajB+CbYP68/ZsDNYIjBzBwqQMj7uMAQQYTBUhrBQBTNIL8T
UInBWfbhQPXe3L8I73PB5ADsQCjNKj9Yc3nB8N7IQF9b5r/JW4PBseTSQJ6wGT+8EYbBFkiYQOah
tT/cAKfBmvstQF6ukcDuzonBXyHzQFvk/b7Q+2zB+ma2QO1fRcAL7YbBEtLJQEow6D/eP4zBatSi
QIncBkEze5fBEKjQQOZyAUFG1JPBqSizQDHF30AcDpjBDqFaQENVgsAp15zBbpgMQdphST/VGlLB
vH9/QKVdJkAzNqLB0NxyQNdgrUAkBpTB5+F4QG/MiMDgQJHBPTCVQEUQRUBvk5fB2u9wQHD5fUCx
TJDBQjmTQG6JRMABwI3BBGSiQBZD9T97S5HBT+WhQGivwEATZJDBwr7FQBudhMA20YPBHOzjQFG9
LkBIjIzBNa0aQGd9YUAQXJDBqwYFQblj/L5w7VnByd/ZQHnT2b9gPrDBmuaTvnd/qsBbvW3BWUb+
QKEo+j7dtK3Bsz+LQAm58b/va63B4245vs2XScBnd4DBIW7DPz4f4MBDfHLBW27UQB/xHkCNHKjB
gTFDQKmPsz1pQqfBZfPdP/27KcCTiYzBCp1cQCNA0MCmPIXBFmatQM4zLL/qZpDBTQ/oQMDOJ8Cd
ymrBkeL5QPHnzT+tmXTBQmWKQLVJC0HGi5HBb6OdQOkJEEGQ4J7BITvsQAu/BkFlnZjB9PzYQNb+
AUGbSIvBNZ26QEPO00BaHqDBrBqJQDr7d8D2AKLBbaY5QJlgn8CWnp/BNVkuQCwCTsBCMZ3B0VYV
QVLZIz/5AkPBFlMXQSKPnj/jCF7B4Lv9QBz2uT9uVU/Boy9/QLiBW0DK+6fBj0s9QO6AEkBriqDB
4h9vQPamrkBJzpzBsHE8QEHnvkBTkJDB41iSQHlWpMAbCZHBIruxQLSKakAHt5nBVVWFQNsWe0DG
HYjBd9qIQM/nC8BfbZDBQOWNQICYkz/+mJDBuG63QCFkqUDrV4/BcbicQE6Qz0BrbYnBWVAYQHyb
J0BtDY7B6fPGQM7zrL+wnK7BhO7cPlcKmsAl+XjBSRrfQBziM74DNa3BRC+aQBAHqb/9Ta3BsPEN
PzQLZsCSDoLBptK2P8SmucDk/nrB9YDKQDabgz8VearB6paFQEygAL6jTKrB6h/WP8FGV8B/qojB
d/MiQJtcssBEGYTBTovEQPefFb8bbYnBOmTiQKQx0L8GC3PBvnvvQJphPT9GI3rB6h7KQHSr3L+O
CIPB/kHXQAhDJD/Gh4bBOa+dQDS/hj9CxqjBH/IqQEd4i8CMwInByLT0QEqQyr6Hx2zBKmG2QIe0
P8CybYbBmw/QQNI95z/7Xo3BHrjCQEzc9ECJ3pTBOvunQJXcAUFsN4vBKZmkQObe1UBaII/BL3Jc
QJDwfMAZqJzBqukMQcgFbj+JH1LBi8aHQFRCFEBTuKTB9iKAQBmPpEDOY5vBAe53QCmIhMCZ9ZDB
jWWgQAVMOEAc8prB29OHQF6LekDUdJTBYMWTQCpaPcCCc43BpIarQApj5z/EoZPBltJ3QJLXyUBr
W5TBZo7EQOsDgsBKKIPB61XpQCa8L0BJeY3BbDNAQGJkW0DxcJDBFG4FQR55ub7mglnBjb3WQHmr
EcD5sLDBCq/avgG2n8Dc4W7B9rQAQSeNSr4YOq7BvZmHQDLYDcCGnK7B9JhVvsiLNcCrQoHBD9qq
Pwx/18B0aXLBIOzcQErd9z+uqqnBEatGQIku470rKanBfVviPy5bG8CL54zBFdxTQEeaysCq1oTB
Y66xQFdRJr+epZDBMPvmQMYkIMCmMWnBCxr+QCkF1z9ByXXBqe66QE0sAEHm9JzBaZblQCMg8UB5
G5TBusG3QO9dBUEljIPB+hmNQCv6DEGTZYzBCQe0QGhuvUB0GorBTreKQIEMc8B2rKHB7vY5QKgh
m8AVZp/BMzoyQLnSRMANR53BSlkVQen/Tj+EzELBNuYXQQ7nrT/jCV7Bu1X+QLUtzT/X7U/B6FSH
QBV9REAtIavBl4FNQC0BBUDhV6LBN1CbQLUuqUCk3KDBcDZFQDxXoEDJD6DBRMmQQLfYoMD7eJDB
duy9QDJnVkD+6J3BbyecQNP9hkD6sY3B5pqKQBhZBMCARpDBV7CXQOhUgz+RFZPBC71MQPMdw0Bv
r47B4lVjQAqo4kALtpjBGRtKQEBeKkCoHozB6WHEQCwByL+bda3B457MPtDNmcC863rBrz/fQHDV
575IqKvBsJ2XQBhAtL+YAq3BWQMDPyjSasD0DoTBeSe5P5fyt8A3KHrBqmbNQO7iTz+Ya6nBorWF
QACxGL6+pqrBHdbVP6hKXsB3SIrBypomQF7ZscAgU4PBdG3DQCjwCr94yonBwKnhQAaCwr+MKnPB
FuTsQC9pWD/iFHvBpQfKQGhE1b/vK4PB5NDUQBwhNj/hDofBNIGgQMz/dz/O2KjBPRIuQBSLjcCi
/InB5ozyQNRDgr7gM23BzFe3QF5dPsASNobB/bjMQGKi7z8TFY7BXlKvQD67x0ARWorBynW3QMt6
80DOjI/B7QWPQIQ42kAhUZLB7RNoQIINhcA8r5zBfSQBQX5cgb8DKUnBA62MQPBvFUDhiKbBlgpa
QNkqo0BBy53BtUV+QPehh8DOuJDBVVebQLZBPkArr5vBofpvQB4ZeEDEuZbBIrGVQG+/QMDLiI3B
rGWmQHyP9j8iz5PBcaCMQEF2xkBlCJ3BJ+PEQORMgMCdK4LBsYznQDLHMECs247BiBUjQJx9SEDB
eJXBjhUEQRCIAb0tD1rBsxvSQNLrIcC/Lq/Bu0T6vh6XnsBhZHHBc8kAQVRIEr+R/avBswCDQHJa
EMCBea7BxdWUvjmePMBbWITBeFKuP4HA08De+2/BwBPiQPbP1D+PJKjBpMJGQH0RF70LOKrBvhDh
P2c5JsB3SY/BaNVZQI0EycCmBIPBHtmwQIIcJb+0B5HBdObmQIsbGMDS+2jBPhf7QFUw5j/VHnfB
9gzDQJIBrEB+mozBwSqnQH+4xUBWzoHBJie1QFBrCEHHuorBWwnRQLMf90DvhpXBtPFhQEVY5kBS
4Y7B1o6RQNrJgMCuW6HBhBdIQPPJosAeLJ/ByB09QJx4U8DMFZ7BjYUKQU2tNr/bCzvBDTLgQOYz
iL/J20TBQ5MGQRmJ/7+7xU7Bt5OVQDVAQUCtDa3BbFtTQMEPDkAOVqbBduJWQLmKmECXLKbB8Ckb
QKaJr0DrUpvBs0CUQAhXo8AGdo/BBLC3QAATZkCsP53BvlCDQK6ih0DP6Y7Bd0+MQLeECcCY05DB
duGQQEI2mj9RfJLBh4qEQMsa3UDjT6LBZIGpQHbRukCg4J7BJdUtQCKdF0DeJ5HBE9PJQI5Ygb9C
AK7Ba1TkPq3jnsB83HjBa3bfQGxFYT4sHa3BpUOdQD6siL+/VqzBU7AJP7+5ccBycoLBsUa9PyJ+
vcAX5nnBP7fIQJzvsT8ieqrBk4SGQNg5yj0tfanBQarUP1PiYsBl/4jBNZEmQGMntsAifoPB+N3B
QGW2E79CpYnBUuXfQAaczL+FLHPBShrtQNazQT+UvHrBr/7HQMCP2787J4PBjL7UQLGvJz+p2IbB
LEmcQGSsqj/SZ6jBs6ssQBczkMDqlInBtNjxQDZqtL54CW3BwmS1QJgdQcBwV4bBq8rNQLoI6z8w
p43BsDPWQFiQAkGtmJvBduq6QCRv9kAWKaXB3vioQHOq80D1xJnBB/dfQKSDhcCAiZzB0e8BQQrr
l7/JtEnB7RCFQNOGJEBWHaTBx+R/QA1PsEDxUZjBWTl6QAb/iMAiuJDByu6bQCwTR0BQ1pnB6i+B
QKTZg0A1JJPBW3eTQNUwQ8A8j43Bkc+mQFZ3/D+V5pLBC02lQIJLyUDDopTBjrfDQL/ggcDflILB
jXfpQLTvLECIVY7BU+8sQM8zakAq7JHB8dwDQcRcHr766FnBQFvbQMxQ9L+y86/B1/7UvsqSpMBq
2G7B3cgAQUtTiD5wda7B5n2MQE1VAMAMP63B66WBvk7IQsDDCYLBtE60P2ma2sAjp3DBfU7ZQN5/
FUAECarB7thIQPh6Sj2fIajBlKbdP+B1KMCQlI3B6TZZQKWgzcC/2oPBaZ2uQJdWJr8RzJDBHIfk
QFzQHcAlJGnBc0D8QJTT2D92snbB0zDyQHA+8kCqG5nBmtjcQImuE0EUZ5rB8AiuQAsUB0HuzqrB
KmHDQHUJ2UCDg6nBg3qQQNjFBUHisZfBFJ+MQPtTgMCQfKHBdR9AQPxHo8DcB5/BjLUzQIXiVMCU
jZ3BPFQLQc4IZ7/JiDvBQQ3iQIampr/MMEXBx/0HQXPlCMBbHFDBHh+FQKSwVkDzSarBsrlHQC1i
E0DzIKLB6AmBQKUGrUDVE6HBAJdEQLzUwECb/ZXBlOuSQPdmpMA014/B8JS5QHxAZ0DwWZzB21yQ
QBjihkDQPIvBBsKJQI3nC8DWxpDBUOSQQJqXoD+F5pHBmtO/QD+YuEAFP5bByMqiQOKNzUBYu4zB
gkwtQDMSM0Dpt47B

>  <OMEGA_E>  (7) 
6CQhP8Ytej96eWg/sDBoP/6pZz+gemc/

>  <OMEGA_NBR>  (7) 
     26543

$$$$
50150469
     RDKit          3D

 84 88  0  0  1  0  0  0  0  0999 V2000
    6.3203   -1.6014  -21.5425 C   0  0  0  0  0  0  0  0  0  0  0  0
    0.2559   -4.2663  -16.0030 C   0  0  0  0  0  0  0  0  0  0  0  0
    7.0611   -0.4213  -21.3383 C   0  0  0  0  0  0  0  0  0  0  0  0
    4.9141   -1.5701  -21.4778 C   0  0  0  0  0  0  0  0  0  0  0  0
    0.6373   -3.1769  -16.8108 C   0  0  0  0  0  0  0  0  0  0  0  0
    1.1126   -5.3769  -15.8617 C   0  0  0  0  0  0  0  0  0  0  0  0
    6.3944    0.7902  -21.0735 C   0  0  0  0  0  0  0  0  0  0  0  0
    4.2460   -0.3688  -21.1807 C   0  0  0  0  0  0  0  0  0  0  0  0
    1.8739   -3.1991  -17.4805 C   0  0  0  0  0  0  0  0  0  0  0  0
    2.3520   -5.4009  -16.5294 C   0  0  0  0  0  0  0  0  0  0  0  0
    5.9900   -0.6029  -17.1611 C   0  0  0  0  0  0  0  0  0  0  0  0
    7.0428   -1.5498  -15.1844 C   0  0  0  0  0  0  0  0  0  0  0  0
    7.4153    0.7848  -15.7635 C   0  0  0  0  0  0  0  0  0  0  0  0
    6.2380   -1.7143  -16.3274 C   0  0  0  0  0  0  0  0  0  0  0  0
    6.5727    0.6448  -16.8695 C   0  0  0  0  0  0  0  0  0  0  0  0
    4.9808    0.8163  -20.9753 C   0  0  0  0  0  0  0  0  0  0  0  0
    2.7353   -4.3134  -17.3424 C   0  0  0  0  0  0  0  0  0  0  0  0
    7.6744   -0.3137  -14.9377 C   0  0  0  0  0  0  0  0  0  0  0  0
    5.6971   -3.0395  -16.6766 C   0  0  0  0  0  0  0  0  0  0  0  0
    6.3519    1.7793  -17.7517 C   0  0  0  0  0  0  0  0  0  0  0  0
    7.9533    0.2112  -11.5974 C   0  0  0  0  0  0  0  0  0  0  0  0
    9.0136   -0.7775  -11.0335 C   0  0  0  0  0  0  0  0  0  0  0  0
    6.0797    7.5152  -17.5757 C   0  0  0  0  0  0  0  0  0  0  0  0
    4.9876    8.1277  -16.6798 C   0  0  0  0  0  0  0  0  0  0  0  0
    8.4222    0.8850  -12.9045 C   0  0  0  0  0  0  0  0  0  0  0  0
    9.2651   -1.9820  -11.9750 C   0  0  0  0  0  0  0  0  0  0  0  0
    5.1976    6.6261  -16.6949 C   0  0  0  0  0  0  0  0  0  0  0  0
    3.8570   -4.3907  -19.5852 C   0  0  0  0  0  0  0  0  0  0  0  0
    4.2358    2.1053  -20.6641 C   0  0  0  0  0  0  0  0  0  0  0  0
    4.6987    4.5389  -17.7363 C   0  0  0  0  0  0  0  0  0  0  0  0
    4.0635   -4.3449  -18.0665 C   0  0  1  0  0  0  0  0  0  0  0  0
    4.8695    2.8381  -19.4731 C   0  0  1  0  0  0  0  0  0  0  0  0
    3.9760    3.9583  -18.9460 C   0  0  2  0  0  0  0  0  0  0  0  0
    8.6235   -0.1562  -13.9403 N   0  0  0  0  0  0  0  0  0  0  0  0
    4.8046   -3.1345  -17.7319 N   0  0  0  0  0  0  0  0  0  0  0  0
    5.1315    1.8773  -18.3978 N   0  0  0  0  0  0  0  0  0  0  0  0
    4.1680    5.8253  -17.3458 N   0  0  0  0  0  0  0  0  0  0  0  0
    6.0494   -4.0406  -16.0603 O   0  0  0  0  0  0  0  0  0  0  0  0
    7.2450    2.6031  -17.9273 O   0  0  0  0  0  0  0  0  0  0  0  0
    9.7012   -2.4663  -14.5444 O   0  0  0  0  0  0  0  0  0  0  0  0
   11.0673   -0.6591  -13.3989 O   0  0  0  0  0  0  0  0  0  0  0  0
    3.8282    4.9478  -19.9640 O   0  0  0  0  0  0  0  0  0  0  0  0
    9.7896   -1.3602  -13.5785 S   0  0  0  0  0  0  0  0  0  0  0  0
    6.8308   -2.5305  -21.7488 H   0  0  0  0  0  0  0  0  0  0  0  0
   -0.6949   -4.2506  -15.4910 H   0  0  0  0  0  0  0  0  0  0  0  0
    8.1398   -0.4455  -21.3847 H   0  0  0  0  0  0  0  0  0  0  0  0
    4.3468   -2.4715  -21.6568 H   0  0  0  0  0  0  0  0  0  0  0  0
   -0.0191   -2.3257  -16.9158 H   0  0  0  0  0  0  0  0  0  0  0  0
    0.8180   -6.2100  -15.2408 H   0  0  0  0  0  0  0  0  0  0  0  0
    6.9609    1.7007  -20.9451 H   0  0  0  0  0  0  0  0  0  0  0  0
    3.1684   -0.3543  -21.1098 H   0  0  0  0  0  0  0  0  0  0  0  0
    2.1664   -2.3648  -18.1008 H   0  0  0  0  0  0  0  0  0  0  0  0
    3.0088   -6.2512  -16.4193 H   0  0  0  0  0  0  0  0  0  0  0  0
    5.3513   -0.7100  -18.0253 H   0  0  0  0  0  0  0  0  0  0  0  0
    7.1766   -2.3711  -14.4959 H   0  0  0  0  0  0  0  0  0  0  0  0
    7.8667    1.7416  -15.5464 H   0  0  0  0  0  0  0  0  0  0  0  0
    7.0239   -0.3420  -11.7975 H   0  0  0  0  0  0  0  0  0  0  0  0
    7.7612    0.9912  -10.8459 H   0  0  0  0  0  0  0  0  0  0  0  0
    9.9608   -0.2361  -10.8934 H   0  0  0  0  0  0  0  0  0  0  0  0
    8.6608   -1.1566  -10.0630 H   0  0  0  0  0  0  0  0  0  0  0  0
    5.9564    7.5058  -18.6687 H   0  0  0  0  0  0  0  0  0  0  0  0
    7.1418    7.6581  -17.3278 H   0  0  0  0  0  0  0  0  0  0  0  0
    5.2692    8.7132  -15.7922 H   0  0  0  0  0  0  0  0  0  0  0  0
    4.0838    8.5609  -17.1331 H   0  0  0  0  0  0  0  0  0  0  0  0
    7.6590    1.6005  -13.2446 H   0  0  0  0  0  0  0  0  0  0  0  0
    9.3690    1.4157  -12.7265 H   0  0  0  0  0  0  0  0  0  0  0  0
   10.0513   -2.6246  -11.5519 H   0  0  0  0  0  0  0  0  0  0  0  0
    8.3381   -2.5631  -12.0884 H   0  0  0  0  0  0  0  0  0  0  0  0
    5.6845    6.1960  -15.8072 H   0  0  0  0  0  0  0  0  0  0  0  0
    4.8350   -4.4129  -20.0883 H   0  0  0  0  0  0  0  0  0  0  0  0
    3.2877   -5.2937  -19.8506 H   0  0  0  0  0  0  0  0  0  0  0  0
    3.2998   -3.4983  -19.9065 H   0  0  0  0  0  0  0  0  0  0  0  0
    4.2678    2.7605  -21.5470 H   0  0  0  0  0  0  0  0  0  0  0  0
    3.1896    1.8660  -20.4228 H   0  0  0  0  0  0  0  0  0  0  0  0
    4.5926    3.8415  -16.8923 H   0  0  0  0  0  0  0  0  0  0  0  0
    5.7642    4.6560  -17.9834 H   0  0  0  0  0  0  0  0  0  0  0  0
    4.6294   -5.2345  -17.7528 H   0  0  0  0  0  0  0  0  0  0  0  0
    5.8210    3.2791  -19.8049 H   0  0  0  0  0  0  0  0  0  0  0  0
    3.0019    3.5486  -18.6406 H   0  0  0  0  0  0  0  0  0  0  0  0
    4.6598   -2.3236  -18.2988 H   0  0  0  0  0  0  0  0  0  0  0  0
    4.3936    1.2633  -18.1175 H   0  0  0  0  0  0  0  0  0  0  0  0
    3.4073    5.6885  -16.7113 H   0  0  0  0  0  0  0  0  0  0  0  0
    3.8414    6.3071  -18.1589 H   0  0  0  0  0  0  0  0  0  0  0  0
    3.3766    4.5705  -20.7098 H   0  0  0  0  0  0  0  0  0  0  0  0
  1  3  2  0
  1  4  1  0
  2  5  2  0
  2  6  1  0
  3  7  1  0
  4  8  2  0
  5  9  1  0
  6 10  2  0
  7 16  2  0
  8 16  1  0
  9 17  2  0
 10 17  1  0
 11 14  2  0
 11 15  1  0
 12 14  1  0
 12 18  2  0
 13 15  2  0
 13 18  1  0
 14 19  1  0
 15 20  1  0
 16 29  1  0
 17 31  1  0
 18 34  1  0
 19 35  1  0
 19 38  2  0
 20 36  1  0
 20 39  2  0
 21 22  1  0
 21 25  1  0
 22 26  1  0
 23 24  1  0
 23 27  1  0
 24 27  1  0
 25 34  1  0
 26 43  1  0
 27 37  1  0
 28 31  1  0
 29 32  1  0
 30 33  1  0
 30 37  1  0
 31 35  1  0
 32 33  1  0
 32 36  1  0
 33 42  1  0
 34 43  1  0
 40 43  2  0
 41 43  2  0
  1 44  1  0
  2 45  1  0
  3 46  1  0
  4 47  1  0
  5 48  1  0
  6 49  1  0
  7 50  1  0
  8 51  1  0
  9 52  1  0
 10 53  1  0
 11 54  1  0
 12 55  1  0
 13 56  1  0
 21 57  1  0
 21 58  1  0
 22 59  1  0
 22 60  1  0
 23 61  1  0
 23 62  1  0
 24 63  1  0
 24 64  1  0
 25 65  1  0
 25 66  1  0
 26 67  1  0
 26 68  1  0
 27 69  1  0
 28 70  1  0
 28 71  1  0
 28 72  1  0
 29 73  1  0
 29 74  1  0
 30 75  1  0
 30 76  1  0
 31 77  1  1
 32 78  1  6
 33 79  1  1
 35 80  1  0
 36 81  1  0
 37 82  1  0
 37 83  1  0
 42 84  1  0
M  CHG  1  37   1
M  END
>  <OMEGA_C>  (8) 
/D/KQDj6zL8EV6zBsgODPo+FiMA6BoDBrfThQEmx177GtKrBokCdQJn4yL900qvBqCYjP3BSS8Ce
fIbBNWqOP2IPrMCpyX3B5J7MQPRHSj+BlqjBAd+HQGrNvL4CcqnB5tvvP1q9TMAc2IvBSYcWQGbU
rMA7PITBdK6/QIJXGr/fSYnBxV7hQA9gxr9083LBVkrtQIDmSD9RN3zBFp7HQCFv2791noLBn1PS
QAATJT+z9IbBVGKfQDr3UD9SzafBYA4vQFwHisBMvYrBjJT1QIyaoL7DAG/Bo062QAeHQsCtaYXB
m0LLQHjB4z9nA47BrIH+QAZRWD7NjjnBojcQQW4JR79oiTDB5ozCQG188ED+mozBWJqfQBsLAkEy
cIXBJcEGQQaOYj+9eE7B/D0UQQ+x/b9mmT/Bj1KmQPMI1EAPj4XBxdh2QKqAjMCNrpzBfYuHQF29
BkD7T6XBGlyWQPY+kUDt443BcwiCQBwJi8AyiJDBqdKbQBikNUD4yJvBX3Z+QJpUfUBukZfB0/kJ
QafuH76XC1/BZL+ZQACcSMD+2o3BIDWkQGJL8D+pLpPBemCFQKNoukA3xIrBmJTBQKFMgcB8e4DB
/tbnQN2ZJkAFa4/BBzgbQQDYHcDntWjBjxMxQW67KL/VYVbBxAF1QCxUnkBTtp/BT6IcQR4crr+O
QVnB8ZXaQKXzIcB7/a3BaeIxv7EEiMD12nfBzzwCQQQZ5L7rE6vBYhmLQMcsHsAuQa3BE6icvNnY
FMB2U4fBoGpRPyS4xsBM2nPBcL/eQGSv2T+Ej6fB+8ZKQP9itb7x4KjB56YKQCZYF8B3zpDB849A
QJkJyMC0WoPB/j2rQAzFNb/hM5DBFKflQJK/F8Bk72fBr7v7QHbt3j8lvnjB5MPgQNcgr76FwjzB
dVv4QLm+fT+kiC3BcF8fQae7cb5WSy7B0ZIKQecJlL81AiHBhJq+QHUv8ECBWZXBz4nkQD8P9UA8
n4rBsZ2oQENpC0GxrHzBZq6CQF75CEGdEInB4Bb1QNvdzD+/6VPBm+cVQTo3tT+ln0vBB9IgQav5
J8CI1DjBxWgFQZ0JJMAKakHBkue1QJpFxkBX6nzB7LeaQMg2jcDWtKDBGWlSQDdmqcARzp7BKi9T
QN7kX8BtQJ/BAJKIQLmsMEBPYKzBCCJMQI7Y7j/0YaPBRfaSQFnadUCHI4fBe3S4QFT+lEDw3Y/B
1SOUQOyAp8DNBY7B70W6QDrdUUBYcJ7B4x5AQCAcY0DgH5XBLh2VQCW1FMD9Y5LBbZiMQDe0oT+o
8JDB2hBaQH0ItkDNsIXB4dl1QLnTyUCARZHBqhpYQHBBkkC1raXBzFvNQPNPpL/0y6vBHlu4PgcL
nsCkq3rB7i/lQFD5wr1dwarBv2egQKEOn79BBqvB+b0APxCEb8DDLoPBWkywP0E6vcBPQHvBuxvQ
QNnwkD9/8ajBQ0uLQGDpp7z//ajB8prUPxxkYcDaWonBe1siQL43tsCPxoPBWuK+QEbSCr+Es4nB
xIfdQO+Iwb92FHPBSvTqQC5wUT/c03vBQyLFQAmZ1L9I84LBTx7SQACVMT+kHofBmPaiQODTlj/0
4afBV6ArQIsLkMCgtInBokzxQMhGjr7Jcm7BMn2zQCq1PsBR14XB4JnNQG5Z7T+ZA47B8lbtQE7d
Qj6WejnB2LYGQW61SL/omC7B6UXRQIpxA0HmnaLBw+2sQN5h+kBhTKrBPsQAQQQAaT+A1UzBZFYN
QT9X+r8LZj3B+COnQJgh9UB1Lp7B+fVkQGuwhsBuaZzB6g+MQILSH0Ai76TBp22BQGdesECRI5vB
Dzl7QORRicACeZDBlPKfQERlSEA7r5rBePWEQGekhkBoxZTBQlgGQTDUy721Rl3BbtSSQLQOQ8Au
VY3BdRqnQHJZA0BDE5PBJ6KoQJzvyUBhXZnBJ/3BQOwEgMBOw4HBSunqQGaeKkCly47BvywZQVqh
F8DEnmXBe0AsQR6AEb9DM1DB1k42QM48bkAZhpLBbYIYQXPCpL8KsVXB6n3dQPtEDsCdLq3Bi44H
v4B8o8D3QXHB2dMDQfd7/L0yWKvBawaOQOqMCcCH/avBahmNvh6mP8C87oLBj0OiP+uG2sClQXLB
oYLiQILKAkBDXKjBPbdRQOOWXrmMR6jBS5DiP2WmJsD70o3BCkxUQLAZzsDN9IPBb3SrQD4zIr8j
z5DBXhXhQIv+FcAxM2jBwln5QOVu4j8n6nfBvFbRQENLw75Z9j7BOyDjQMp9cT+qtS3BYicVQTiD
Yr5CGyrBHmX+QHBhmb8WISDBxZLuQAtv80ABQaLBFnXZQPllFEFicKHB5RebQE2rCUFxna7BlTWw
QLX53UAPbq/Bu4fqQKWr0D/AhVPBYk0PQXaWuD85u0fBGloZQT0LJcCaRTXBDmv+QJpIJMABNkHB
NPuRQI5QBkGzUJrBG+uPQA3TgcCsFKHBSP5FQKWkpMD1757BgxE5QCtuV8Dbxp3BVzaPQPgnTUDa
nqvBxfdTQDiPEkBle6PBxjh8QDcQqUAQtaPBzaNKQDaKwkAXapjBonqTQPNypMDqOY/BMNO+QDU8
ZUBd45zBS1aVQGftjUCZMo3B8TmJQA6hDMAOypDBOPKOQKzRtj9RdpHB4mbBQFMdukBwh5zBZwGt
QIAfzUDdepHBCkA6QAZzOkCiko7B

>  <OMEGA_E>  (8) 
VIU+P044aD8=

>  <OMEGA_NBR>  (8) 
     31057

$$$$
50163076
     RDKit          3D

 80 83  0  0  1  0  0  0  0  0999 V2000
    6.3858   -1.3803  -21.7204 C   0  0  0  0  0  0  0  0  0  0  0  0
    7.1156   -0.1972  -21.4885 C   0  0  0  0  0  0  0  0  0  0  0  0
    4.9825   -1.3759  -21.6063 C   0  0  0  0  0  0  0  0  0  0  0  0
    6.4420    0.9910  -21.1429 C   0  0  0  0  0  0  0  0  0  0  0  0
    4.3092   -0.1978  -21.2379 C   0  0  0  0  0  0  0  0  0  0  0  0
    1.7203   -3.3507  -17.0983 C   0  0  0  0  0  0  0  0  0  0  0  0
    2.5869   -5.5610  -16.5180 C   0  0  0  0  0  0  0  0  0  0  0  0
    0.6037   -3.5726  -16.2686 C   0  0  0  0  0  0  0  0  0  0  0  0
    1.4703   -5.7807  -15.6895 C   0  0  0  0  0  0  0  0  0  0  0  0
    6.1536   -0.4987  -17.3003 C   0  0  0  0  0  0  0  0  0  0  0  0
    7.0147   -1.5258  -15.2709 C   0  0  0  0  0  0  0  0  0  0  0  0
    7.3906    0.8519  -15.6872 C   0  0  0  0  0  0  0  0  0  0  0  0
    6.3281   -1.6425  -16.4935 C   0  0  0  0  0  0  0  0  0  0  0  0
    6.6909    0.7457  -16.9066 C   0  0  0  0  0  0  0  0  0  0  0  0
    5.0346    0.9884  -20.9992 C   0  0  0  0  0  0  0  0  0  0  0  0
    2.7162   -4.3475  -17.2282 C   0  0  0  0  0  0  0  0  0  0  0  0
    7.5087   -0.2766  -14.8532 C   0  0  0  0  0  0  0  0  0  0  0  0
    0.4782   -4.7878  -15.5652 C   0  0  0  0  0  0  0  0  0  0  0  0
    5.7358   -2.9316  -16.8918 C   0  0  0  0  0  0  0  0  0  0  0  0
    6.4400    1.9296  -17.7386 C   0  0  0  0  0  0  0  0  0  0  0  0
    6.9403    7.6521  -17.8201 C   0  0  0  0  0  0  0  0  0  0  0  0
    5.5337    7.8370  -17.2203 C   0  0  0  0  0  0  0  0  0  0  0  0
    6.1748    6.4553  -17.2605 C   0  0  0  0  0  0  0  0  0  0  0  0
    3.4716   -3.9982  -19.6032 C   0  0  0  0  0  0  0  0  0  0  0  0
    7.0630   -0.3121  -12.4427 C   0  0  0  0  0  0  0  0  0  0  0  0
    9.5597   -2.2902  -12.5663 C   0  0  0  0  0  0  0  0  0  0  0  0
    4.2776    2.2544  -20.6438 C   0  0  0  0  0  0  0  0  0  0  0  0
    4.4087    4.8452  -17.7421 C   0  0  0  0  0  0  0  0  0  0  0  0
    3.9123   -4.1394  -18.1408 C   0  0  1  0  0  0  0  0  0  0  0  0
    4.8698    2.9960  -19.4243 C   0  0  1  0  0  0  0  0  0  0  0  0
    3.8336    4.0203  -18.8941 C   0  0  2  0  0  0  0  0  0  0  0  0
    4.6452   -2.9318  -17.7522 N   0  0  0  0  0  0  0  0  0  0  0  0
    5.2006    2.0300  -18.3663 N   0  0  0  0  0  0  0  0  0  0  0  0
    8.0149   -0.1404  -13.5690 N   0  0  0  0  0  0  0  0  0  0  0  0
    5.6263    5.5132  -18.2201 N   0  0  0  0  0  0  0  0  0  0  0  0
    6.1714   -3.9810  -16.4284 O   0  0  0  0  0  0  0  0  0  0  0  0
    7.3066    2.7873  -17.8742 O   0  0  0  0  0  0  0  0  0  0  0  0
   10.1529    0.2941  -12.2523 O   0  0  0  0  0  0  0  0  0  0  0  0
   10.3102   -0.7248  -14.5798 O   0  0  0  0  0  0  0  0  0  0  0  0
    3.4647    4.9089  -19.9489 O   0  0  0  0  0  0  0  0  0  0  0  0
   -0.5957   -5.0026  -14.7724 F   0  0  0  0  0  0  0  0  0  0  0  0
    9.6303   -0.6160  -13.2802 S   0  0  0  0  0  0  0  0  0  0  0  0
    6.9031   -2.2905  -21.9858 H   0  0  0  0  0  0  0  0  0  0  0  0
    8.1921   -0.2014  -21.5758 H   0  0  0  0  0  0  0  0  0  0  0  0
    4.4226   -2.2785  -21.8018 H   0  0  0  0  0  0  0  0  0  0  0  0
    6.9995    1.9029  -20.9879 H   0  0  0  0  0  0  0  0  0  0  0  0
    3.2339   -0.2010  -21.1375 H   0  0  0  0  0  0  0  0  0  0  0  0
    1.8164   -2.4188  -17.6357 H   0  0  0  0  0  0  0  0  0  0  0  0
    3.3469   -6.3227  -16.6107 H   0  0  0  0  0  0  0  0  0  0  0  0
   -0.1565   -2.8116  -16.1715 H   0  0  0  0  0  0  0  0  0  0  0  0
    1.3739   -6.7107  -15.1489 H   0  0  0  0  0  0  0  0  0  0  0  0
    5.6044   -0.5758  -18.2270 H   0  0  0  0  0  0  0  0  0  0  0  0
    7.1629   -2.3979  -14.6513 H   0  0  0  0  0  0  0  0  0  0  0  0
    7.8331    1.7926  -15.3946 H   0  0  0  0  0  0  0  0  0  0  0  0
    7.0941    7.7497  -18.9049 H   0  0  0  0  0  0  0  0  0  0  0  0
    7.8216    8.0402  -17.2884 H   0  0  0  0  0  0  0  0  0  0  0  0
    5.4089    8.3583  -16.2597 H   0  0  0  0  0  0  0  0  0  0  0  0
    4.6814    8.0678  -17.8762 H   0  0  0  0  0  0  0  0  0  0  0  0
    6.5320    6.0561  -16.2997 H   0  0  0  0  0  0  0  0  0  0  0  0
    4.3558   -3.8489  -20.2403 H   0  0  0  0  0  0  0  0  0  0  0  0
    2.9437   -4.9109  -19.9167 H   0  0  0  0  0  0  0  0  0  0  0  0
    2.7988   -3.1335  -19.7014 H   0  0  0  0  0  0  0  0  0  0  0  0
    7.5947   -0.1784  -11.4890 H   0  0  0  0  0  0  0  0  0  0  0  0
    6.2609    0.4364  -12.5233 H   0  0  0  0  0  0  0  0  0  0  0  0
    6.6278   -1.3216  -12.4813 H   0  0  0  0  0  0  0  0  0  0  0  0
   10.5804   -2.6450  -12.3606 H   0  0  0  0  0  0  0  0  0  0  0  0
    8.9845   -2.2651  -11.6290 H   0  0  0  0  0  0  0  0  0  0  0  0
    9.0713   -2.9719  -13.2782 H   0  0  0  0  0  0  0  0  0  0  0  0
    4.3023    2.9314  -21.5105 H   0  0  0  0  0  0  0  0  0  0  0  0
    3.2350    1.9864  -20.4175 H   0  0  0  0  0  0  0  0  0  0  0  0
    3.6736    5.5972  -17.4192 H   0  0  0  0  0  0  0  0  0  0  0  0
    4.6533    4.1850  -16.8969 H   0  0  0  0  0  0  0  0  0  0  0  0
    4.5757   -5.0129  -18.0583 H   0  0  0  0  0  0  0  0  0  0  0  0
    5.7759    3.5350  -19.7383 H   0  0  0  0  0  0  0  0  0  0  0  0
    2.9515    3.4715  -18.5326 H   0  0  0  0  0  0  0  0  0  0  0  0
    4.3425   -2.0561  -18.1285 H   0  0  0  0  0  0  0  0  0  0  0  0
    4.4822    1.3979  -18.0758 H   0  0  0  0  0  0  0  0  0  0  0  0
    5.4085    6.0071  -19.0619 H   0  0  0  0  0  0  0  0  0  0  0  0
    6.3171    4.8160  -18.4119 H   0  0  0  0  0  0  0  0  0  0  0  0
    3.1052    4.4097  -20.6729 H   0  0  0  0  0  0  0  0  0  0  0  0
  1  2  2  0
  1  3  1  0
  2  4  1  0
  3  5  2  0
  4 15  2  0
  5 15  1  0
  6  8  2  0
  6 16  1  0
  7  9  1  0
  7 16  2  0
  8 18  1  0
  9 18  2  0
 10 13  2  0
 10 14  1  0
 11 13  1  0
 11 17  2  0
 12 14  2  0
 12 17  1  0
 13 19  1  0
 14 20  1  0
 15 27  1  0
 16 29  1  0
 17 34  1  0
 18 41  1  0
 19 32  1  0
 19 36  2  0
 20 33  1  0
 20 37  2  0
 21 22  1  0
 21 23  1  0
 22 23  1  0
 23 35  1  0
 24 29  1  0
 25 34  1  0
 26 42  1  0
 27 30  1  0
 28 31  1  0
 28 35  1  0
 29 32  1  0
 30 31  1  0
 30 33  1  0
 31 40  1  0
 34 42  1  0
 38 42  2  0
 39 42  2  0
  1 43  1  0
  2 44  1  0
  3 45  1  0
  4 46  1  0
  5 47  1  0
  6 48  1  0
  7 49  1  0
  8 50  1  0
  9 51  1  0
 10 52  1  0
 11 53  1  0
 12 54  1  0
 21 55  1  0
 21 56  1  0
 22 57  1  0
 22 58  1  0
 23 59  1  0
 24 60  1  0
 24 61  1  0
 24 62  1  0
 25 63  1  0
 25 64  1  0
 25 65  1  0
 26 66  1  0
 26 67  1  0
 26 68  1  0
 27 69  1  0
 27 70  1  0
 28 71  1  0
 28 72  1  0
 29 73  1  6
 30 74  1  6
 31 75  1  1
 32 76  1  0
 33 77  1  0
 35 78  1  0
 35 79  1  0
 40 80  1  0
M  CHG  1  35   1
M  END
>  <OMEGA_C>  (9) 
4VjMQPissL9sw63BWrPjQPHtSb596KvBzHCfQH4csL+a2azBBiXOQPC0fT+xJKnBFuWJQDuNSr49
56nBJDTcP2JxVsBXyYjBVZAlQF3zscDuJITBwokaP52lZMAhJoLBWDG8P3z7uMAoCHvBkerEQFpZ
/74SZ4rBTXjgQLVOw7+EVXTBuX/sQCsXWj++/nrB6n/KQKI80r+c8oPB3hvWQIjmPj/MQIfBpxuh
QOEIfT9c/qfBvNYtQNAei8Bg04nBF0fwQMaijb7ipm3Bxtn0PlA1mcAEC3nByYu3QNKfO8BjIofB
gBTOQMb79j+o6I3B4BbeQLbd9ECOj47B+xOxQF7I+kAVw4nBx5fFQK6RzkCDFYrBpy5eQGPif8BK
05zBVwTiQBDKn75KFUfBsfQYQdCSEsCsD0nBLeKIQCNIEECKJqXB2xONQEgMm0DN743BYWJ6QEd2
hMBlIJHBzNWbQPq+P0DmZJvB61l1QF+mgEAUJ5fBLKWUQOWiO8B9BI7B8mqmQMDqAUAv7pLB3zwA
QQG4D77GGlnBogq0QPprsEDVwpHBVHzFQBXJfsBXbYPBms/pQLFjMkBF/o7BN3IiQW+alj52CUTB
wvYkQQSOOb+8RmnBrr1dQJwVnUBzl5/By4IYv6oVoMCeW2zBkhUaQWuxHb+ce1TBLebcQBSXEsDW
4q/B3BIDQSIzTr41m6zBEoaNQCXSEcAraq7B/vvfQKmT8z8p56fBPvhOQO3PTb6AGanBiIDoPxDO
GsACFo3BbDNWQLVTysC+4oTB/zwgvjvxM8AkX4HB59qvP/W91sDuYXLBKVezQKxpE7/30JHBOTbl
QGZ3GcCMa2rBt6j6QIV15T9GUHbBvgLjQGL990BAPZfBnEr6QHykAEG0TorBlBWtQIW7BUHjE4LB
ts2VQLoVAUFvAo/BTgbRQMfLwUDiZYLBeGKLQKZUdsAq7KHBO2Y8QC8mncBuVZ/BEiAzQMiKSMBn
nJ3BpgfzQJ2pNr4Z0zfBqlnIQBxq3z5IX0jBzRbUQH0pqb9os0fBeUkpQeVGKcDsxEXBlMAPQYb3
EMCWEDrBAyQRQb8zPsBYc1TBjKyJQBicO0BqFazB4wpPQFRC/j8IV6PBvBxrQDkcs0BvWovB0eeU
QMTrhUDyLIfBhmySQM1poMBUd5DB+9O4QHQ9YkAQ6J3Bc+U8QMssXkC/QpTBlPWKQMuXA8ARB5HB
zG2PQKTusj8lm5DBrhKtQCY6wEDVfpjBpiXKQOgcmkCWS5PBFbtGQI4cjUASYqXB

>  <OMEGA_E>  (9) 
pDM/Pw==

>  <OMEGA_NBR>  (9) 
     34609

$$$$
50163079
     RDKit          3D

 79 81  0  0  1  0  0  0  0  0999 V2000
    6.2850   -1.5399  -21.5781 C   0  0  0  0  0  0  0  0  0  0  0  0
    7.0640   -0.4054  -21.2759 C   0  0  0  0  0  0  0  0  0  0  0  0
    4.8797   -1.4481  -21.5808 C   0  0  0  0  0  0  0  0  0  0  0  0
    6.4377    0.8191  -20.9691 C   0  0  0  0  0  0  0  0  0  0  0  0
    4.2514   -0.2320  -21.2560 C   0  0  0  0  0  0  0  0  0  0  0  0
    1.6851   -3.4089  -17.2413 C   0  0  0  0  0  0  0  0  0  0  0  0
    2.5630   -5.5598  -16.4807 C   0  0  0  0  0  0  0  0  0  0  0  0
    0.5358   -3.5995  -16.4502 C   0  0  0  0  0  0  0  0  0  0  0  0
    1.4156   -5.7464  -15.6878 C   0  0  0  0  0  0  0  0  0  0  0  0
    6.0317   -0.5436  -17.1870 C   0  0  0  0  0  0  0  0  0  0  0  0
    7.0413   -1.6039  -15.2425 C   0  0  0  0  0  0  0  0  0  0  0  0
    7.4464    0.7543  -15.6841 C   0  0  0  0  0  0  0  0  0  0  0  0
    6.2602   -1.6968  -16.4119 C   0  0  0  0  0  0  0  0  0  0  0  0
    6.6229    0.6811  -16.8258 C   0  0  0  0  0  0  0  0  0  0  0  0
    5.0244    0.9033  -20.9325 C   0  0  0  0  0  0  0  0  0  0  0  0
    2.6982   -4.3967  -17.2684 C   0  0  0  0  0  0  0  0  0  0  0  0
    7.6586   -0.3859  -14.8711 C   0  0  0  0  0  0  0  0  0  0  0  0
    0.3995   -4.7704  -15.6770 C   0  0  0  0  0  0  0  0  0  0  0  0
    5.6903   -2.9926  -16.8263 C   0  0  0  0  0  0  0  0  0  0  0  0
    6.4014    1.8649  -17.6662 C   0  0  0  0  0  0  0  0  0  0  0  0
    6.0124    7.5892  -18.4802 C   0  0  0  0  0  0  0  0  0  0  0  0
    3.5583   -4.1148  -19.6197 C   0  0  0  0  0  0  0  0  0  0  0  0
    8.6313    1.0350  -13.0361 C   0  0  0  0  0  0  0  0  0  0  0  0
    8.0710   -2.3973  -11.8135 C   0  0  0  0  0  0  0  0  0  0  0  0
    4.3147    2.2110  -20.6107 C   0  0  0  0  0  0  0  0  0  0  0  0
    5.1390    7.2126  -17.2678 C   0  0  0  0  0  0  0  0  0  0  0  0
    4.6835    4.8557  -17.7913 C   0  0  0  0  0  0  0  0  0  0  0  0
    3.9304   -4.2219  -18.1353 C   0  0  1  0  0  0  0  0  0  0  0  0
    4.9288    2.9582  -19.4019 C   0  0  1  0  0  0  0  0  0  0  0  0
    3.9873    4.0769  -18.9185 C   0  0  2  0  0  0  0  0  0  0  0  0
    4.6410   -3.0078  -17.7350 N   0  0  0  0  0  0  0  0  0  0  0  0
    5.1758    2.0060  -18.3093 N   0  0  0  0  0  0  0  0  0  0  0  0
    8.4454   -0.2900  -13.6989 N   0  0  0  0  0  0  0  0  0  0  0  0
    4.1213    6.2098  -17.6412 N   0  0  0  0  0  0  0  0  0  0  0  0
    6.1472   -4.0402  -16.3788 O   0  0  0  0  0  0  0  0  0  0  0  0
    7.3067    2.6762  -17.8317 O   0  0  0  0  0  0  0  0  0  0  0  0
   10.3669   -1.1647  -12.1742 O   0  0  0  0  0  0  0  0  0  0  0  0
    9.5103   -2.6806  -14.0132 O   0  0  0  0  0  0  0  0  0  0  0  0
    3.7094    4.9415  -20.0220 O   0  0  0  0  0  0  0  0  0  0  0  0
   -0.7048   -4.9565  -14.9199 F   0  0  0  0  0  0  0  0  0  0  0  0
    9.2452   -1.6711  -12.9769 S   0  0  0  0  0  0  0  0  0  0  0  0
    6.7654   -2.4795  -21.8076 H   0  0  0  0  0  0  0  0  0  0  0  0
    8.1418   -0.4742  -21.2794 H   0  0  0  0  0  0  0  0  0  0  0  0
    4.2835   -2.3126  -21.8327 H   0  0  0  0  0  0  0  0  0  0  0  0
    7.0359    1.6940  -20.7616 H   0  0  0  0  0  0  0  0  0  0  0  0
    3.1733   -0.1672  -21.2543 H   0  0  0  0  0  0  0  0  0  0  0  0
    1.7934   -2.5083  -17.8276 H   0  0  0  0  0  0  0  0  0  0  0  0
    3.3417   -6.3081  -16.4864 H   0  0  0  0  0  0  0  0  0  0  0  0
   -0.2408   -2.8491  -16.4358 H   0  0  0  0  0  0  0  0  0  0  0  0
    1.3138   -6.6382  -15.0872 H   0  0  0  0  0  0  0  0  0  0  0  0
    5.4006   -0.5993  -18.0616 H   0  0  0  0  0  0  0  0  0  0  0  0
    7.1707   -2.4765  -14.6195 H   0  0  0  0  0  0  0  0  0  0  0  0
    7.9207    1.6898  -15.4266 H   0  0  0  0  0  0  0  0  0  0  0  0
    6.7606    8.3359  -18.1759 H   0  0  0  0  0  0  0  0  0  0  0  0
    6.5232    6.6909  -18.8571 H   0  0  0  0  0  0  0  0  0  0  0  0
    5.3767    8.0095  -19.2735 H   0  0  0  0  0  0  0  0  0  0  0  0
    4.4721   -3.9892  -20.2191 H   0  0  0  0  0  0  0  0  0  0  0  0
    3.0369   -5.0310  -19.9339 H   0  0  0  0  0  0  0  0  0  0  0  0
    2.8988   -3.2475  -19.7706 H   0  0  0  0  0  0  0  0  0  0  0  0
    9.2675    0.9147  -12.1468 H   0  0  0  0  0  0  0  0  0  0  0  0
    9.1114    1.7321  -13.7386 H   0  0  0  0  0  0  0  0  0  0  0  0
    7.6518    1.4347  -12.7346 H   0  0  0  0  0  0  0  0  0  0  0  0
    8.5274   -3.2737  -11.3302 H   0  0  0  0  0  0  0  0  0  0  0  0
    7.8058   -1.6532  -11.0480 H   0  0  0  0  0  0  0  0  0  0  0  0
    7.1642   -2.7072  -12.3535 H   0  0  0  0  0  0  0  0  0  0  0  0
    4.3726    2.8660  -21.4925 H   0  0  0  0  0  0  0  0  0  0  0  0
    3.2607    1.9904  -20.3864 H   0  0  0  0  0  0  0  0  0  0  0  0
    5.7809    6.7969  -16.4771 H   0  0  0  0  0  0  0  0  0  0  0  0
    4.6343    8.1155  -16.8935 H   0  0  0  0  0  0  0  0  0  0  0  0
    4.5538    4.3084  -16.8460 H   0  0  0  0  0  0  0  0  0  0  0  0
    5.7556    4.9379  -18.0233 H   0  0  0  0  0  0  0  0  0  0  0  0
    4.5866   -5.0943  -17.9998 H   0  0  0  0  0  0  0  0  0  0  0  0
    5.8801    3.4113  -19.7175 H   0  0  0  0  0  0  0  0  0  0  0  0
    3.0607    3.6283  -18.5311 H   0  0  0  0  0  0  0  0  0  0  0  0
    4.3545   -2.1390  -18.1389 H   0  0  0  0  0  0  0  0  0  0  0  0
    4.4182    1.4255  -18.0107 H   0  0  0  0  0  0  0  0  0  0  0  0
    3.4187    6.1872  -16.9300 H   0  0  0  0  0  0  0  0  0  0  0  0
    3.7076    6.4823  -18.5099 H   0  0  0  0  0  0  0  0  0  0  0  0
    3.2797    4.4482  -20.7109 H   0  0  0  0  0  0  0  0  0  0  0  0
  1  2  2  0
  1  3  1  0
  2  4  1  0
  3  5  2  0
  4 15  2  0
  5 15  1  0
  6  8  2  0
  6 16  1  0
  7  9  1  0
  7 16  2  0
  8 18  1  0
  9 18  2  0
 10 13  2  0
 10 14  1  0
 11 13  1  0
 11 17  2  0
 12 14  2  0
 12 17  1  0
 13 19  1  0
 14 20  1  0
 15 25  1  0
 16 28  1  0
 17 33  1  0
 18 40  1  0
 19 31  1  0
 19 35  2  0
 20 32  1  0
 20 36  2  0
 21 26  1  0
 22 28  1  0
 23 33  1  0
 24 41  1  0
 25 29  1  0
 26 34  1  0
 27 30  1  0
 27 34  1  0
 28 31  1  0
 29 30  1  0
 29 32  1  0
 30 39  1  0
 33 41  1  0
 37 41  2  0
 38 41  2  0
  1 42  1  0
  2 43  1  0
  3 44  1  0
  4 45  1  0
  5 46  1  0
  6 47  1  0
  7 48  1  0
  8 49  1  0
  9 50  1  0
 10 51  1  0
 11 52  1  0
 12 53  1  0
 21 54  1  0
 21 55  1  0
 21 56  1  0
 22 57  1  0
 22 58  1  0
 22 59  1  0
 23 60  1  0
 23 61  1  0
 23 62  1  0
 24 63  1  0
 24 64  1  0
 24 65  1  0
 25 66  1  0
 25 67  1  0
 26 68  1  0
 26 69  1  0
 27 70  1  0
 27 71  1  0
 28 72  1  6
 29 73  1  6
 30 74  1  1
 31 75  1  0
 32 76  1  0
 34 77  1  0
 34 78  1  0
 39 79  1  0
M  CHG  1  34   1
M  END
>  <OMEGA_C>  (10) 
vx7JQEAbxb/qn6zBoAziQACLz77zNKrB4yacQJRbub+FpazBuwHOQBCuUT+ewKfBXwuIQOGXbb5P
DKrBOLHXP6AqWsAt7onBfQgkQIXpscBz2IPBDigJP7JeZsD2mYPBujO1P9Hit8AmAXvBuQPBQEwp
C7/nfonB8VHhQPZKzb8f4XPBTUnuQPocQT9G8nrBYlPIQPQw2b+cS4PBk+7TQNNeLj9Cm4bB8ceg
QIdBZz+vdafBva8sQGmxjMDGJYrBWhP1QAyZxb78723Bb4fMPjOnmMAF1XrBThe2QJOHP8A5nIbB
NdjMQH+07j9gVI3BXGXAQMDa8kBv15PBs7tjQKOsg8Aq9ZzBzhkKQb16hD+qk1DB/yIBQelsGcBM
BD3B/hGKQE2ADUC94qTB3HKkQPTN5kCGJIrBWN+VQChim0CRVI7Bjot7QNUZh8AEFZHBWLidQKxS
PUAYN5vBDTB/QNp1gkAWWZfB4oKUQCCAQMA54Y3B1J+lQABiAEBteZLBNiAHQUR+lL6gLlvBh+GD
QLe2xkAuIY3BkLXEQD5JgcDAB4PBsNDpQIlGK0BPp47B/N4lQWIVlb+JyULBVSoYQViPK8D9NWDB
LmdtQGIgnkAPLaDBEW40v9+bnsC6t27BXuwTQYbn1b+LoU/BUn7YQNywHsDeda7B9kQCQfrP8r4c
PKrBPRKJQHMCFMBOqa7BRCbhQA3V2D/PF6bB/BdLQCMtK77DCKrBfo/lP7iIIMDrno7BAt9VQKnb
ycAw5IPBtpx2vktYNsCEfIPBDSyoP4ds1MAfZXHBgNGsQAVuGb8ifpDBpnblQFB/HsB56WnBlnb9
QMFM2D+E03bBDFfYQNFfBUFSaJHBSL7QQKob1kBJ25bBxw2sQNomAEEHMJrBJRuPQBxPf8DKwKHB
x1xCQA7+oMCkeJ/BPoY5QO7WT8BHKp7Bo0cUQW8naj9CWULBOsgRQfi13T830VvBwNv0QLWktz8M
wUvBI3AIQYyEUcCUSDXB+Mj5QCyc07/KxDDBvUDlQFxCLcDKp0XBGuyLQDFtN0Ca8KvBiq5QQHXE
/j9DF6PB1vy4QC6A2UAv0YPBVUyUQBzZAUHuJYfBqbiRQAreiUCjxIbBHy64QAsDnkCuL5DBRMWS
QHYEo8CU/4/B3Cm8QLdSWkBrvZ3BvuFDQB42aECtP5TBcViLQBbmCMCJHJHBrGGNQHZ3tj8EFpDB
C8xaQLb9xUCKcIfByUhtQOVuz0A5FJTBGuZRQA9YjkDlr6XB

>  <OMEGA_E>  (10) 
4OMtPw==

>  <OMEGA_NBR>  (10) 
     36218

$$$$
50163097
     RDKit          3D

 80 83  0  0  1  0  0  0  0  0999 V2000
    6.3786   -1.3863  -21.7104 C   0  0  0  0  0  0  0  0  0  0  0  0
    0.4875   -4.7712  -15.5228 C   0  0  0  0  0  0  0  0  0  0  0  0
    7.1114   -0.2016  -21.4974 C   0  0  0  0  0  0  0  0  0  0  0  0
    4.9756   -1.3775  -21.5914 C   0  0  0  0  0  0  0  0  0  0  0  0
    0.6178   -3.5530  -16.2195 C   0  0  0  0  0  0  0  0  0  0  0  0
    1.4697   -5.7719  -15.6627 C   0  0  0  0  0  0  0  0  0  0  0  0
    6.4412    0.9921  -21.1645 C   0  0  0  0  0  0  0  0  0  0  0  0
    4.3058   -0.1938  -21.2343 C   0  0  0  0  0  0  0  0  0  0  0  0
    1.7288   -3.3355  -17.0590 C   0  0  0  0  0  0  0  0  0  0  0  0
    2.5820   -5.5561  -16.4994 C   0  0  0  0  0  0  0  0  0  0  0  0
    6.1727   -0.5064  -17.3222 C   0  0  0  0  0  0  0  0  0  0  0  0
    6.9977   -1.5251  -15.2741 C   0  0  0  0  0  0  0  0  0  0  0  0
    7.3728    0.8533  -15.6894 C   0  0  0  0  0  0  0  0  0  0  0  0
    6.3364   -1.6472  -16.5089 C   0  0  0  0  0  0  0  0  0  0  0  0
    6.7003    0.7404  -16.9232 C   0  0  0  0  0  0  0  0  0  0  0  0
    5.0346    0.9936  -21.0131 C   0  0  0  0  0  0  0  0  0  0  0  0
    2.7153   -4.3399  -17.2047 C   0  0  0  0  0  0  0  0  0  0  0  0
    7.4707   -0.2714  -14.8470 C   0  0  0  0  0  0  0  0  0  0  0  0
    5.7472   -2.9365  -16.9076 C   0  0  0  0  0  0  0  0  0  0  0  0
    6.4583    1.9209  -17.7614 C   0  0  0  0  0  0  0  0  0  0  0  0
    6.9417    7.6806  -17.8714 C   0  0  0  0  0  0  0  0  0  0  0  0
    5.5400    7.8484  -17.2554 C   0  0  0  0  0  0  0  0  0  0  0  0
    6.2007    6.4757  -17.2963 C   0  0  0  0  0  0  0  0  0  0  0  0
    3.4473   -3.9968  -19.5889 C   0  0  0  0  0  0  0  0  0  0  0  0
    7.0159   -0.4467  -12.4381 C   0  0  0  0  0  0  0  0  0  0  0  0
    9.7067   -2.1172  -12.5900 C   0  0  0  0  0  0  0  0  0  0  0  0
    4.2840    2.2635  -20.6573 C   0  0  0  0  0  0  0  0  0  0  0  0
    4.4472    4.8435  -17.7468 C   0  0  0  0  0  0  0  0  0  0  0  0
    3.9032   -4.1390  -18.1313 C   0  0  1  0  0  0  0  0  0  0  0  0
    4.8841    2.9979  -19.4368 C   0  0  1  0  0  0  0  0  0  0  0  0
    3.8549    4.0206  -18.8917 C   0  0  2  0  0  0  0  0  0  0  0  0
    4.6468   -2.9343  -17.7548 N   0  0  0  0  0  0  0  0  0  0  0  0
    5.2178    2.0261  -18.3854 N   0  0  0  0  0  0  0  0  0  0  0  0
    7.9470   -0.1299  -13.5521 N   0  0  0  0  0  0  0  0  0  0  0  0
    5.6529    5.5202  -18.2432 N   0  0  0  0  0  0  0  0  0  0  0  0
    6.1854   -3.9858  -16.4463 O   0  0  0  0  0  0  0  0  0  0  0  0
    7.3297    2.7732  -17.9009 O   0  0  0  0  0  0  0  0  0  0  0  0
   10.0224    0.5118  -12.2231 O   0  0  0  0  0  0  0  0  0  0  0  0
   10.2907   -0.4409  -14.5686 O   0  0  0  0  0  0  0  0  0  0  0  0
    3.4695    4.9106  -19.9393 O   0  0  0  0  0  0  0  0  0  0  0  0
    9.6021   -0.4302  -13.2690 S   0  0  0  0  0  0  0  0  0  0  0  0
    6.8932   -2.3011  -21.9650 H   0  0  0  0  0  0  0  0  0  0  0  0
   -0.3654   -4.9379  -14.8815 H   0  0  0  0  0  0  0  0  0  0  0  0
    8.1875   -0.2087  -21.5895 H   0  0  0  0  0  0  0  0  0  0  0  0
    4.4132   -2.2810  -21.7746 H   0  0  0  0  0  0  0  0  0  0  0  0
   -0.1342   -2.7856  -16.1100 H   0  0  0  0  0  0  0  0  0  0  0  0
    1.3696   -6.7049  -15.1280 H   0  0  0  0  0  0  0  0  0  0  0  0
    7.0008    1.9052  -21.0249 H   0  0  0  0  0  0  0  0  0  0  0  0
    3.2310   -0.1938  -21.1291 H   0  0  0  0  0  0  0  0  0  0  0  0
    1.8276   -2.4013  -17.5919 H   0  0  0  0  0  0  0  0  0  0  0  0
    3.3352   -6.3232  -16.6019 H   0  0  0  0  0  0  0  0  0  0  0  0
    5.6394   -0.5876  -18.2578 H   0  0  0  0  0  0  0  0  0  0  0  0
    7.1427   -2.3960  -14.6521 H   0  0  0  0  0  0  0  0  0  0  0  0
    7.8097    1.7952  -15.3922 H   0  0  0  0  0  0  0  0  0  0  0  0
    7.0809    7.7746  -18.9585 H   0  0  0  0  0  0  0  0  0  0  0  0
    7.8236    8.0843  -17.3525 H   0  0  0  0  0  0  0  0  0  0  0  0
    5.4193    8.3731  -16.2962 H   0  0  0  0  0  0  0  0  0  0  0  0
    4.6765    8.0634  -17.9021 H   0  0  0  0  0  0  0  0  0  0  0  0
    6.5754    6.0872  -16.3378 H   0  0  0  0  0  0  0  0  0  0  0  0
    4.3252   -3.8529  -20.2358 H   0  0  0  0  0  0  0  0  0  0  0  0
    2.9112   -4.9070  -19.8957 H   0  0  0  0  0  0  0  0  0  0  0  0
    2.7781   -3.1286  -19.6806 H   0  0  0  0  0  0  0  0  0  0  0  0
    7.5270   -0.2902  -11.4766 H   0  0  0  0  0  0  0  0  0  0  0  0
    6.1364    0.2113  -12.4970 H   0  0  0  0  0  0  0  0  0  0  0  0
    6.6948   -1.4959  -12.5159 H   0  0  0  0  0  0  0  0  0  0  0  0
   10.7586   -2.3667  -12.3867 H   0  0  0  0  0  0  0  0  0  0  0  0
    9.1297   -2.1725  -11.6551 H   0  0  0  0  0  0  0  0  0  0  0  0
    9.2946   -2.8315  -13.3179 H   0  0  0  0  0  0  0  0  0  0  0  0
    4.3122    2.9415  -21.5230 H   0  0  0  0  0  0  0  0  0  0  0  0
    3.2400    2.0017  -20.4304 H   0  0  0  0  0  0  0  0  0  0  0  0
    3.7144    5.5903  -17.4072 H   0  0  0  0  0  0  0  0  0  0  0  0
    4.7104    4.1807  -16.9093 H   0  0  0  0  0  0  0  0  0  0  0  0
    4.5630   -5.0158  -18.0549 H   0  0  0  0  0  0  0  0  0  0  0  0
    5.7897    3.5365  -19.7527 H   0  0  0  0  0  0  0  0  0  0  0  0
    2.9787    3.4708  -18.5177 H   0  0  0  0  0  0  0  0  0  0  0  0
    4.3441   -2.0583  -18.1302 H   0  0  0  0  0  0  0  0  0  0  0  0
    4.4998    1.3929  -18.0964 H   0  0  0  0  0  0  0  0  0  0  0  0
    5.4213    6.0050  -19.0866 H   0  0  0  0  0  0  0  0  0  0  0  0
    6.3491    4.8289  -18.4365 H   0  0  0  0  0  0  0  0  0  0  0  0
    3.0992    4.4123  -20.6584 H   0  0  0  0  0  0  0  0  0  0  0  0
  1  3  2  0
  1  4  1  0
  2  5  2  0
  2  6  1  0
  3  7  1  0
  4  8  2  0
  5  9  1  0
  6 10  2  0
  7 16  2  0
  8 16  1  0
  9 17  2  0
 10 17  1  0
 11 14  2  0
 11 15  1  0
 12 14  1  0
 12 18  2  0
 13 15  2  0
 13 18  1  0
 14 19  1  0
 15 20  1  0
 16 27  1  0
 17 29  1  0
 18 34  1  0
 19 32  1  0
 19 36  2  0
 20 33  1  0
 20 37  2  0
 21 22  1  0
 21 23  1  0
 22 23  1  0
 23 35  1  0
 24 29  1  0
 25 34  1  0
 26 41  1  0
 27 30  1  0
 28 31  1  0
 28 35  1  0
 29 32  1  0
 30 31  1  0
 30 33  1  0
 31 40  1  0
 34 41  1  0
 38 41  2  0
 39 41  2  0
  1 42  1  0
  2 43  1  0
  3 44  1  0
  4 45  1  0
  5 46  1  0
  6 47  1  0
  7 48  1  0
  8 49  1  0
  9 50  1  0
 10 51  1  0
 11 52  1  0
 12 53  1  0
 13 54  1  0
 21 55  1  0
 21 56  1  0
 22 57  1  0
 22 58  1  0
 23 59  1  0
 24 60  1  0
 24 61  1  0
 24 62  1  0
 25 63  1  0
 25 64  1  0
 25 65  1  0
 26 66  1  0
 26 67  1  0
 26 68  1  0
 27 69  1  0
 27 70  1  0
 28 71  1  0
 28 72  1  0
 29 73  1  6
 30 74  1  6
 31 75  1  1
 32 76  1  0
 33 77  1  0
 35 78  1  0
 35 79  1  0
 40 80  1  0
M  CHG  1  35   1
M  END
>  <OMEGA_C>  (11) 
0x3MQCpzsb/vrq3Bq5j5PgeumMBYXXjB65DjQJxrTr61+qvBZDifQEtQsL8Wu6zBfSgePwVkY8CE
wYHBLh+8PwizuMBymnrBVx7OQPD6fT/UUKnBWMmJQBSARr7D36nB5ErdP894VcDueIjBuz4lQHPL
scC5/oPBAYfFQBKkAb/gk4rBJu3fQI01w7+MYnTBJe7rQEhwWj+0B3vBpMPKQK3X0r86EoTBRGnW
QJmIPT+mYofBdBuhQChdfj/KGqjBNcgtQJrgisAio4nBLBDvQIP6ir4ljW3B2+i3QJvvO8DBQofB
TKrOQLDh9T9LF47BeyLeQJ3H9UCP+I7Bh0exQEgm+0AWC4rBYmzGQP44z0DMXorBg6BcQKDLf8AR
tpzBpYLgQPu65L5BAkfBnU4bQVqAB8B1cEnByBaJQAzdEEAjQqXBYk+OQDj+mkB4+Y3BzM15QEly
hMDRDJHBgEqcQB7dP0COfpvBE7d2QPqogEAgIpfBirKUQAvMO8DTCY7B8/emQBSsAUA1FZPBpE3+
QJ4PBb6G1VjBheS0QJmlsEAI8pHBu+7FQGYXf8AAkoPBI43qQDx8MUDyNI/B71sgQaMDAz/KkUPB
zaYkQfm84b7nGGnB2wteQG4jnUCpg5/BPaIZQX1D3L6mTVTB7ZTcQIdFE8BLuK/BZBW7vgkDnsC/
Gm7B8/8CQXOvVb44t6zB3DiNQLP8EcBQMq7BD2wJvhhHMsAw4YDB302vPyaO1sBhDHLBPwbgQDHf
8z8MM6jBGshOQAt5Rr5UCKnBMO3pP92uGcA0vIzBrHRVQIVXysCv0ITB53W0QCpvFr/+D5LBMZHk
QKFYGcAjb2rBc+n5QG7I5T96RnbBlJbiQMrJ+EDyqpfBUVv6QHRZAUH60YrBnmqtQBb4BUGHXoLB
4aWVQIcDAUF+N4/BvmnSQJXKwkDQs4LBP2iKQC6VdsD74qHBQFE6QEEGncBmKp/BQswxQEE7SMD0
cZ3BVN3wQAKSlL5ZoDfBml3EQGdUWD7e80fB4TvWQN96v7/wQEjBJyMsQaJ3F8AeMEbBLxMSQaYJ
C8AtezrBwbYUQak3NcBAFlXBVv2JQARCPEAiL6zBX1xPQMobAEBrcaPBE7htQGDjskDcQYvBgLuW
QKbIhUA7RofBSwSSQAiBoMBgcJDBKEW5QIdVYkCOBZ7BWaI+QGwhXkBGJJTBhAKLQCC7A8CfCpHB
Of6PQL9Jsj9yxZDBlHutQCIpwEBWsZjBkivLQAaGmkDyfZPBi1lGQPUxjUB8RKXB

>  <OMEGA_E>  (11) 
DD4/Pw==

>  <OMEGA_NBR>  (11) 
     37846

$$$$
50163161
     RDKit          3D

 77 80  0  0  1  0  0  0  0  0999 V2000
    6.2965   -1.5395  -21.6400 C   0  0  0  0  0  0  0  0  0  0  0  0
    7.0685   -0.4067  -21.3161 C   0  0  0  0  0  0  0  0  0  0  0  0
    4.8908   -1.4542  -21.6444 C   0  0  0  0  0  0  0  0  0  0  0  0
    6.4349    0.8083  -20.9869 C   0  0  0  0  0  0  0  0  0  0  0  0
    4.2548   -0.2485  -21.2925 C   0  0  0  0  0  0  0  0  0  0  0  0
    1.6471   -3.4849  -17.3990 C   0  0  0  0  0  0  0  0  0  0  0  0
    2.5228   -5.6237  -16.6042 C   0  0  0  0  0  0  0  0  0  0  0  0
    0.4676   -3.6941  -16.6572 C   0  0  0  0  0  0  0  0  0  0  0  0
    1.3454   -5.8288  -15.8606 C   0  0  0  0  0  0  0  0  0  0  0  0
    6.0874   -0.5863  -17.1976 C   0  0  0  0  0  0  0  0  0  0  0  0
    7.0149   -1.6134  -15.1955 C   0  0  0  0  0  0  0  0  0  0  0  0
    7.4445    0.7416  -15.6628 C   0  0  0  0  0  0  0  0  0  0  0  0
    6.2719   -1.7294  -16.3913 C   0  0  0  0  0  0  0  0  0  0  0  0
    6.6768    0.6447  -16.8407 C   0  0  0  0  0  0  0  0  0  0  0  0
    5.0201    0.8847  -20.9419 C   0  0  0  0  0  0  0  0  0  0  0  0
    2.6792   -4.4535  -17.3783 C   0  0  0  0  0  0  0  0  0  0  0  0
    7.5707   -0.3699  -14.8112 C   0  0  0  0  0  0  0  0  0  0  0  0
    0.3176   -4.8655  -15.8870 C   0  0  0  0  0  0  0  0  0  0  0  0
    5.6692   -3.0242  -16.7885 C   0  0  0  0  0  0  0  0  0  0  0  0
    6.4528    1.8264  -17.6835 C   0  0  0  0  0  0  0  0  0  0  0  0
    6.5830    7.3920  -18.1177 C   0  0  0  0  0  0  0  0  0  0  0  0
    5.6680    7.5284  -19.3480 C   0  0  0  0  0  0  0  0  0  0  0  0
    5.0506    7.4156  -17.9453 C   0  0  0  0  0  0  0  0  0  0  0  0
    3.6423   -4.1368  -19.6819 C   0  0  0  0  0  0  0  0  0  0  0  0
    8.6326   -2.5844  -12.0687 C   0  0  0  0  0  0  0  0  0  0  0  0
    4.3009    2.1824  -20.5808 C   0  0  0  0  0  0  0  0  0  0  0  0
    4.8735    4.8919  -17.8450 C   0  0  0  0  0  0  0  0  0  0  0  0
    3.9532   -4.2544  -18.1822 C   0  0  1  0  0  0  0  0  0  0  0  0
    4.9592    2.9326  -19.3949 C   0  0  1  0  0  0  0  0  0  0  0  0
    4.0664    4.0826  -18.8781 C   0  0  2  0  0  0  0  0  0  0  0  0
    8.2013   -0.1926  -13.5792 N   0  0  0  0  0  0  0  0  0  0  0  0
    4.6515   -3.0395  -17.7403 N   0  0  0  0  0  0  0  0  0  0  0  0
    5.2194    1.9733  -18.3102 N   0  0  0  0  0  0  0  0  0  0  0  0
    4.2591    6.2076  -17.5385 N   0  0  0  0  0  0  0  0  0  0  0  0
    6.0601   -4.0696  -16.2783 O   0  0  0  0  0  0  0  0  0  0  0  0
    7.3491    2.6492  -17.8390 O   0  0  0  0  0  0  0  0  0  0  0  0
    8.1715   -0.2039  -11.0114 O   0  0  0  0  0  0  0  0  0  0  0  0
    6.2867   -1.3544  -12.2674 O   0  0  0  0  0  0  0  0  0  0  0  0
    3.6921    4.9120  -19.9773 O   0  0  0  0  0  0  0  0  0  0  0  0
   -0.8096   -5.0634  -15.1669 F   0  0  0  0  0  0  0  0  0  0  0  0
    7.7141   -1.0213  -12.1424 S   0  0  0  0  0  0  0  0  0  0  0  0
    6.7821   -2.4726  -21.8848 H   0  0  0  0  0  0  0  0  0  0  0  0
    8.1466   -0.4693  -21.3201 H   0  0  0  0  0  0  0  0  0  0  0  0
    4.2995   -2.3154  -21.9182 H   0  0  0  0  0  0  0  0  0  0  0  0
    7.0287    1.6835  -20.7683 H   0  0  0  0  0  0  0  0  0  0  0  0
    3.1763   -0.1903  -21.2907 H   0  0  0  0  0  0  0  0  0  0  0  0
    1.7639   -2.5847  -17.9841 H   0  0  0  0  0  0  0  0  0  0  0  0
    3.3089   -6.3639  -16.5825 H   0  0  0  0  0  0  0  0  0  0  0  0
   -0.3215   -2.9571  -16.6785 H   0  0  0  0  0  0  0  0  0  0  0  0
    1.2298   -6.7251  -15.2693 H   0  0  0  0  0  0  0  0  0  0  0  0
    5.4903   -0.6542  -18.0949 H   0  0  0  0  0  0  0  0  0  0  0  0
    7.1601   -2.4811  -14.5691 H   0  0  0  0  0  0  0  0  0  0  0  0
    7.9362    1.6704  -15.4141 H   0  0  0  0  0  0  0  0  0  0  0  0
    7.1418    6.4598  -17.9480 H   0  0  0  0  0  0  0  0  0  0  0  0
    7.1878    8.2480  -17.7838 H   0  0  0  0  0  0  0  0  0  0  0  0
    5.6203    8.4820  -19.8942 H   0  0  0  0  0  0  0  0  0  0  0  0
    5.5743    6.6939  -20.0584 H   0  0  0  0  0  0  0  0  0  0  0  0
    4.6637    8.3672  -17.5519 H   0  0  0  0  0  0  0  0  0  0  0  0
    4.5788   -3.9936  -20.2409 H   0  0  0  0  0  0  0  0  0  0  0  0
    3.1466   -5.0562  -20.0267 H   0  0  0  0  0  0  0  0  0  0  0  0
    2.9785   -3.2764  -19.8522 H   0  0  0  0  0  0  0  0  0  0  0  0
    8.3441   -3.1374  -11.1626 H   0  0  0  0  0  0  0  0  0  0  0  0
    8.3987   -3.1892  -12.9573 H   0  0  0  0  0  0  0  0  0  0  0  0
    9.7120   -2.3744  -12.0419 H   0  0  0  0  0  0  0  0  0  0  0  0
    4.3081    2.8430  -21.4603 H   0  0  0  0  0  0  0  0  0  0  0  0
    3.2619    1.9432  -20.3103 H   0  0  0  0  0  0  0  0  0  0  0  0
    4.9382    4.3088  -16.9145 H   0  0  0  0  0  0  0  0  0  0  0  0
    5.8850    5.0605  -18.2432 H   0  0  0  0  0  0  0  0  0  0  0  0
    4.6063   -5.1262  -18.0290 H   0  0  0  0  0  0  0  0  0  0  0  0
    5.9118    3.3601  -19.7409 H   0  0  0  0  0  0  0  0  0  0  0  0
    3.1773    3.6573  -18.3896 H   0  0  0  0  0  0  0  0  0  0  0  0
    9.1609   -0.4338  -13.7240 H   0  0  0  0  0  0  0  0  0  0  0  0
    4.3791   -2.1683  -18.1485 H   0  0  0  0  0  0  0  0  0  0  0  0
    4.4648    1.3924  -18.0051 H   0  0  0  0  0  0  0  0  0  0  0  0
    4.1153    6.2550  -16.5500 H   0  0  0  0  0  0  0  0  0  0  0  0
    3.3761    6.2490  -18.0061 H   0  0  0  0  0  0  0  0  0  0  0  0
    3.1958    4.4009  -20.6057 H   0  0  0  0  0  0  0  0  0  0  0  0
  1  2  2  0
  1  3  1  0
  2  4  1  0
  3  5  2  0
  4 15  2  0
  5 15  1  0
  6  8  2  0
  6 16  1  0
  7  9  1  0
  7 16  2  0
  8 18  1  0
  9 18  2  0
 10 13  2  0
 10 14  1  0
 11 13  1  0
 11 17  2  0
 12 14  2  0
 12 17  1  0
 13 19  1  0
 14 20  1  0
 15 26  1  0
 16 28  1  0
 17 31  1  0
 18 40  1  0
 19 32  1  0
 19 35  2  0
 20 33  1  0
 20 36  2  0
 21 22  1  0
 21 23  1  0
 22 23  1  0
 23 34  1  0
 24 28  1  0
 25 41  1  0
 26 29  1  0
 27 30  1  0
 27 34  1  0
 28 32  1  0
 29 30  1  0
 29 33  1  0
 30 39  1  0
 31 41  1  0
 37 41  2  0
 38 41  2  0
  1 42  1  0
  2 43  1  0
  3 44  1  0
  4 45  1  0
  5 46  1  0
  6 47  1  0
  7 48  1  0
  8 49  1  0
  9 50  1  0
 10 51  1  0
 11 52  1  0
 12 53  1  0
 21 54  1  0
 21 55  1  0
 22 56  1  0
 22 57  1  0
 23 58  1  0
 24 59  1  0
 24 60  1  0
 24 61  1  0
 25 62  1  0
 25 63  1  0
 25 64  1  0
 26 65  1  0
 26 66  1  0
 27 67  1  0
 27 68  1  0
 28 69  1  6
 29 70  1  6
 30 71  1  1
 31 72  1  0
 32 73  1  0
 33 74  1  0
 34 75  1  0
 34 76  1  0
 39 77  1  0
M  CHG  1  34   1
M  END
>  <OMEGA_C>  (12) 
2nzJQBwPxb/EHq3B1jDiQFM50L5xh6rBQYGcQEciur+oJ63BVurNQBzvTj8t5afB7CaIQNZ0fr7z
VqrBSdXSP2YJX8A7MYvBR3UhQJn1s8Bw1YTBD2/vPkVsbMDgQYXBLjWsP26FusDXxH3BPszCQBIV
Fr+clInBOHrgQEqDzr+VIHPBADnuQIbYPT/CmnrBEbPIQMJb3b97IYPBlajVQIgNJT/HuYbBxqSg
QMB8Yj/0iKfBnngrQOmCjsDaBovBTkPyQF9dvb7J+mzB956iPu2xm8BCMX7BZWq1QBWNQcDgTobB
T33OQF3H6T/Kd43B3qfSQAOL7EAX8ZDBH2C1QAfp8ECkyJrBlJ6hQFRM7UDtj4/BuRtpQLVghMCG
dJ3B9B4KQTNnJcBwGUHBQ6GJQMKrC0BtpaTB1fObQHiKnECjwo7B2QF9QDckiMAudZHBXrGeQAOv
O0DWKJvBuB+CQIakgkBkBpfBhTgDQRw/Rb5eRFnBSNmUQPCHQsAl7I3BTAWnQGeW/D8/e5LBPEqI
QLKkxkDNTozBbOzBQHg6gsDvOYLB4yvrQO6MKUA2to7BW74CQdrRUL7FLjDBXizJQH9drb8zR0TB
iEtsQF4vnUCH0Z/BwkBPvwoHosDLq3LBmNn2QJK7gr94R0LBNgfZQDo/HsAHFK/BolgCQcJF8L6U
j6rBJZWJQMMvFMCEWK/BSuvgQLt91z+RJabB4khLQETVQr5bU6rBl8bhP4trJcBz34/BrMVTQEWl
y8ANqYTBUJ6kvk5BPcCGbYXBzGidP2I018AST3TB6LCvQHt6J79rwpDBZh/lQIPKHsDbGmnB8vT9
QBvR1T8EoHbBUInkQJq2zkBslY/BOQLmQLT3A0E+RY7BRdmzQGu2B0FcJ5/BXGCyQAg01kCKd6DB
0jyVQPPfBUFYaozBeIWSQEGXf8Bo7aHBXGFJQMXMocCYNqDBLqA+QNivUcBc0Z7BfIEFQXDLSMAY
mjLBHmEGQYQcTMDrUE/BQ2QbQWb1F8Bzq0DB1NuJQL3zNUCerqvBtMJQQNm5+D95e6LB1AWeQLXh
iUD/UIfBxVG8QNbvoUD98ZHBEmeTQNIJpMBrO5DBKi29QKkMV0Bj7Z3BW1lLQHYQakDOHZPBJ5MS
QUQX3r5slVvByyGMQKfECsAvMJHBnd+OQBI5sj+GCpDBtLCDQM0oyEBkZoTB6BFYQPj3x0BzDJDB
MIdMQCLUjEB12KTB

>  <OMEGA_E>  (12) 
mD/gPg==

>  <OMEGA_NBR>  (12) 
     39422

$$$$
50156294
     RDKit          3D

 85 87  0  0  1  0  0  0  0  0999 V2000
    0.4354   -5.2491  -15.5436 C   0  0  0  0  0  0  0  0  0  0  0  0
    0.5468   -4.0238  -16.2311 C   0  0  0  0  0  0  0  0  0  0  0  0
    1.4501   -6.2199  -15.6620 C   0  0  0  0  0  0  0  0  0  0  0  0
    1.6696   -3.7714  -17.0430 C   0  0  0  0  0  0  0  0  0  0  0  0
    2.5707   -5.9724  -16.4781 C   0  0  0  0  0  0  0  0  0  0  0  0
    5.8963   -0.7759  -17.1580 C   0  0  0  0  0  0  0  0  0  0  0  0
    6.7507   -1.7493  -15.0957 C   0  0  0  0  0  0  0  0  0  0  0  0
    7.1554    0.5985  -15.5918 C   0  0  0  0  0  0  0  0  0  0  0  0
    6.4556    0.8499  -21.4392 C   0  0  0  0  0  0  0  0  0  0  0  0
    5.5009   -1.2914  -20.7707 C   0  0  0  0  0  0  0  0  0  0  0  0
    7.7821   -1.1895  -21.6237 C   0  0  0  0  0  0  0  0  0  0  0  0
    6.0640   -1.8978  -16.3172 C   0  0  0  0  0  0  0  0  0  0  0  0
    6.4689    0.4622  -16.8094 C   0  0  0  0  0  0  0  0  0  0  0  0
    2.6824   -4.7506  -17.1768 C   0  0  0  0  0  0  0  0  0  0  0  0
    7.2620   -0.4925  -14.7028 C   0  0  0  0  0  0  0  0  0  0  0  0
    5.3710    0.1067  -20.9026 C   0  0  0  0  0  0  0  0  0  0  0  0
    7.6595    0.2040  -21.7779 C   0  0  0  0  0  0  0  0  0  0  0  0
    6.6981   -1.9390  -21.1301 C   0  0  0  0  0  0  0  0  0  0  0  0
    5.5252   -3.2145  -16.7094 C   0  0  0  0  0  0  0  0  0  0  0  0
    6.3507    1.6126  -17.7105 C   0  0  0  0  0  0  0  0  0  0  0  0
    3.4324   -4.3975  -19.5508 C   0  0  0  0  0  0  0  0  0  0  0  0
    9.0034    0.6725  -13.3347 C   0  0  0  0  0  0  0  0  0  0  0  0
    5.1120    8.9485  -21.3255 C   0  0  0  0  0  0  0  0  0  0  0  0
    4.5298    7.6734  -16.2541 C   0  0  0  0  0  0  0  0  0  0  0  0
    8.5730   -2.6588  -11.9980 C   0  0  0  0  0  0  0  0  0  0  0  0
    5.2570    5.0754  -18.2073 C   0  0  0  0  0  0  0  0  0  0  0  0
    4.0427    2.1190  -20.4755 C   0  0  0  0  0  0  0  0  0  0  0  0
    5.4212    7.1468  -19.7285 C   0  0  0  0  0  0  0  0  0  0  0  0
    3.8753   -4.5128  -18.0854 C   0  0  1  0  0  0  0  0  0  0  0  0
    4.9300    2.8211  -19.4068 C   0  0  1  0  0  0  0  0  0  0  0  0
    4.8880    6.5762  -18.3843 C   0  0  2  0  0  0  0  0  0  0  0  0
    4.2831    4.1687  -19.0080 C   0  0  1  0  0  0  0  0  0  0  0  0
    4.5577   -3.2776  -17.7014 N   0  0  0  0  0  0  0  0  0  0  0  0
    5.1117    1.9162  -18.2583 N   0  0  0  0  0  0  0  0  0  0  0  0
    7.9064   -0.3255  -13.4654 N   0  0  0  0  0  0  0  0  0  0  0  0
    5.9133   -4.2362  -16.1505 O   0  0  0  0  0  0  0  0  0  0  0  0
    7.3413    2.2916  -17.9598 O   0  0  0  0  0  0  0  0  0  0  0  0
    6.0933   -1.7549  -12.2158 O   0  0  0  0  0  0  0  0  0  0  0  0
    7.7723   -0.4063  -10.8791 O   0  0  0  0  0  0  0  0  0  0  0  0
    3.1007    3.9325  -18.2393 O   0  0  0  0  0  0  0  0  0  0  0  0
    4.1679    0.6685  -20.4922 O   0  0  0  0  0  0  0  0  0  0  0  0
    4.6204    8.2779  -20.1447 O   0  0  0  0  0  0  0  0  0  0  0  0
    5.4632    7.3393  -17.3002 O   0  0  0  0  0  0  0  0  0  0  0  0
    8.6969    0.9242  -22.2612 F   0  0  0  0  0  0  0  0  0  0  0  0
    6.8100   -3.2794  -20.9934 F   0  0  0  0  0  0  0  0  0  0  0  0
    7.4600   -1.2362  -12.0506 S   0  0  0  0  0  0  0  0  0  0  0  0
   -0.4284   -5.4442  -14.9255 H   0  0  0  0  0  0  0  0  0  0  0  0
   -0.2288   -3.2785  -16.1353 H   0  0  0  0  0  0  0  0  0  0  0  0
    1.3682   -7.1542  -15.1265 H   0  0  0  0  0  0  0  0  0  0  0  0
    1.7577   -2.8296  -17.5641 H   0  0  0  0  0  0  0  0  0  0  0  0
    3.3462   -6.7185  -16.5696 H   0  0  0  0  0  0  0  0  0  0  0  0
    5.3271   -0.8677  -18.0713 H   0  0  0  0  0  0  0  0  0  0  0  0
    6.8877   -2.6061  -14.4527 H   0  0  0  0  0  0  0  0  0  0  0  0
    7.6053    1.5457  -15.3336 H   0  0  0  0  0  0  0  0  0  0  0  0
    6.3563    1.9150  -21.5880 H   0  0  0  0  0  0  0  0  0  0  0  0
    4.6732   -1.8713  -20.3898 H   0  0  0  0  0  0  0  0  0  0  0  0
    8.7068   -1.6831  -21.8840 H   0  0  0  0  0  0  0  0  0  0  0  0
    4.3125   -4.2257  -20.1880 H   0  0  0  0  0  0  0  0  0  0  0  0
    2.9341   -5.3290  -19.8575 H   0  0  0  0  0  0  0  0  0  0  0  0
    2.7329   -3.5553  -19.6572 H   0  0  0  0  0  0  0  0  0  0  0  0
    9.3861    0.6645  -12.3035 H   0  0  0  0  0  0  0  0  0  0  0  0
    9.8168    0.4162  -14.0295 H   0  0  0  0  0  0  0  0  0  0  0  0
    8.6180    1.6744  -13.5749 H   0  0  0  0  0  0  0  0  0  0  0  0
    4.4493    9.7912  -21.5718 H   0  0  0  0  0  0  0  0  0  0  0  0
    6.1284    9.3244  -21.1372 H   0  0  0  0  0  0  0  0  0  0  0  0
    5.1329    8.2405  -22.1671 H   0  0  0  0  0  0  0  0  0  0  0  0
    5.0454    8.2508  -15.4726 H   0  0  0  0  0  0  0  0  0  0  0  0
    3.7095    8.2747  -16.6730 H   0  0  0  0  0  0  0  0  0  0  0  0
    4.1217    6.7496  -15.8182 H   0  0  0  0  0  0  0  0  0  0  0  0
    8.3378   -3.2767  -11.1189 H   0  0  0  0  0  0  0  0  0  0  0  0
    8.4456   -3.2578  -12.9118 H   0  0  0  0  0  0  0  0  0  0  0  0
    9.6134   -2.3079  -11.9317 H   0  0  0  0  0  0  0  0  0  0  0  0
    6.2825    4.9112  -18.5698 H   0  0  0  0  0  0  0  0  0  0  0  0
    5.1987    4.8133  -17.1406 H   0  0  0  0  0  0  0  0  0  0  0  0
    2.9917    2.3727  -20.2727 H   0  0  0  0  0  0  0  0  0  0  0  0
    4.3276    2.5017  -21.4666 H   0  0  0  0  0  0  0  0  0  0  0  0
    6.4648    7.4691  -19.5978 H   0  0  0  0  0  0  0  0  0  0  0  0
    5.3731    6.3641  -20.4999 H   0  0  0  0  0  0  0  0  0  0  0  0
    4.5683   -5.3620  -17.9928 H   0  0  0  0  0  0  0  0  0  0  0  0
    5.9101    3.0307  -19.8601 H   0  0  0  0  0  0  0  0  0  0  0  0
    3.7922    6.6714  -18.3729 H   0  0  0  0  0  0  0  0  0  0  0  0
    4.0153    4.6999  -19.9332 H   0  0  0  0  0  0  0  0  0  0  0  0
    4.3140   -2.4337  -18.1794 H   0  0  0  0  0  0  0  0  0  0  0  0
    4.2992    1.4984  -17.8516 H   0  0  0  0  0  0  0  0  0  0  0  0
    2.5076    3.3777  -18.7322 H   0  0  0  0  0  0  0  0  0  0  0  0
  1  2  2  0
  1  3  1  0
  2  4  1  0
  3  5  2  0
  4 14  2  0
  5 14  1  0
  6 12  2  0
  6 13  1  0
  7 12  1  0
  7 15  2  0
  8 13  2  0
  8 15  1  0
  9 16  2  0
  9 17  1  0
 10 16  1  0
 10 18  2  0
 11 17  2  0
 11 18  1  0
 12 19  1  0
 13 20  1  0
 14 29  1  0
 15 35  1  0
 16 41  1  0
 17 44  1  0
 18 45  1  0
 19 33  1  0
 19 36  2  0
 20 34  1  0
 20 37  2  0
 21 29  1  0
 22 35  1  0
 23 42  1  0
 24 43  1  0
 25 46  1  0
 26 31  1  0
 26 32  1  0
 27 30  1  0
 27 41  1  0
 28 31  1  0
 28 42  1  0
 29 33  1  0
 30 32  1  0
 30 34  1  0
 31 43  1  0
 32 40  1  0
 35 46  1  0
 38 46  2  0
 39 46  2  0
  1 47  1  0
  2 48  1  0
  3 49  1  0
  4 50  1  0
  5 51  1  0
  6 52  1  0
  7 53  1  0
  8 54  1  0
  9 55  1  0
 10 56  1  0
 11 57  1  0
 21 58  1  0
 21 59  1  0
 21 60  1  0
 22 61  1  0
 22 62  1  0
 22 63  1  0
 23 64  1  0
 23 65  1  0
 23 66  1  0
 24 67  1  0
 24 68  1  0
 24 69  1  0
 25 70  1  0
 25 71  1  0
 25 72  1  0
 26 73  1  0
 26 74  1  0
 27 75  1  0
 27 76  1  0
 28 77  1  0
 28 78  1  0
 29 79  1  6
 30 80  1  6
 31 81  1  6
 32 82  1  6
 33 83  1  0
 34 84  1  0
 40 85  1  0
M  END
>  <OMEGA_C>  (13) 
JPDePlr4p8CrsnjBn/0LP2HDgMA82YHBUp25PysJx8B2l3rBVLbVPxVfccAmWIjB8IYkQI4dv8Af
04PBR668QC+fRr+uQ4nBygXYQCrp378ciHHB2vjkQEk0GT/6d3nBa5TOQGWRWT+Fg6vBawewQEZM
pb9QKqbBpAb5QNhBmL9u/azBAgzCQCjs8r+MiYLBWQHPQIqo7D6meYbBsKwrQDkFmMAmaonBVGLo
QDcn/L6cPmvBEN+rQJh12j2XOKfBoBr1QOLuUD4eOa7BxFbWQOYv+L9yCqnBkc6wQBi6TcDOrIXB
MjnLQA5pzj8gr43BBa1bQGe4jMAZaJzBAQ4QQbsnLD8KW1XBIJWjQN8sD0GfmqrBVfSQQIqM9UBc
CILB6ioJQVEpKsDy9z/BHzmoQK9pokCnqJHBjF2BQGGdB0DezaPBqHqtQJSy5EDi053BmwR4QIFo
kMDWrpDBgsKdQNWMNEAPQZvB12qcQCBw0kATE5PB2A6JQA5mhUBJEJjB+tiRQPfDUcCKnI3B8JKj
QPZE9T/sEJLBYgH9QOaspr5hclfBmTm9QBePh8AxNIHB3evqQIGpEkCUrY/Bd/zCQNig4L/cc0PB
5Lb4QMAC0L7OEC7BsHFGQG2ue0AZ6pHBhF+FQGIjKz/y76PBbtqTQEByBEFsKKHBRNKuQKrb6kDL
ZorBXSYLQWmXbD/kFrLBaOvZQCXiUcCD8qfBGbjuQEI9nr9jz0DB3lnbvvI2rsDKzm7BxUdqviPS
UcAAFYHBkSKvPxrv5MAaBnLBM/3gP2QXNcBKg4zB0ydWQND91sChjoTBmXeqQNMjXr/9kZDBDmjc
QIfKJsAuPmfB0l7zQBraxT+gVnXBLGfLQEkd9T9MtKzBM4uVQCWI779hHqPB9E4LQWhu179aEq/B
SQCKQFg5h8DsgKHBcsg7QP+GqsAg3J7BcuguQFuJY8DzQZ3Biy0WQbIeKj8J20TBmhEdQQkZ1T7r
eGDBX+MJQU5R1j/9MlnBoGCOQLKoHEElk6zBGhzEQJIwFUHmGKnB20CkQAHZA0FEVrHBP3ShQFsD
BEG2j3fBeGhtQCRlBEFgYoXBNeWDQJn810BCF33BxWcFQd60UcDr5jHBDSEHQWCAUMCOlk7Be9AZ
QTe0E8Bx6D7BDArJQIconUD6jpTBE1ymQKIGmkD8H4nBKXg/QALaF0CVLqLBxnuKQEQcIECuu6vB
od/OQLcC70AzyJzBHfCrQOWmy0DE/6PBLS+SQHaVq8Ar8Y/BMR+9QKz3QUCD4Z7B77NyQGJ81UDG
+5LB9HyAQDxllkBGd5/BPgyKQDTCG8CBb5HBEpOJQHLLvz8s0I7BdHwgQH0sWECE25XB

>  <OMEGA_E>  (13) 
HKErPw==

>  <OMEGA_NBR>  (13) 
      1705

$$$$
50156296
     RDKit          3D

 92 95  0  0  1  0  0  0  0  0999 V2000
    0.4284   -5.2206  -15.5771 C   0  0  0  0  0  0  0  0  0  0  0  0
    0.5490   -3.9851  -16.2442 C   0  0  0  0  0  0  0  0  0  0  0  0
    1.4361   -6.1967  -15.7105 C   0  0  0  0  0  0  0  0  0  0  0  0
    1.6743   -3.7275  -17.0510 C   0  0  0  0  0  0  0  0  0  0  0  0
    2.5599   -5.9434  -16.5200 C   0  0  0  0  0  0  0  0  0  0  0  0
    5.8984   -0.7680  -17.1234 C   0  0  0  0  0  0  0  0  0  0  0  0
    6.7563   -1.7580  -15.0704 C   0  0  0  0  0  0  0  0  0  0  0  0
    7.1219    0.6051  -15.5283 C   0  0  0  0  0  0  0  0  0  0  0  0
    6.4729    0.9055  -21.4174 C   0  0  0  0  0  0  0  0  0  0  0  0
    5.5055   -1.2502  -20.8178 C   0  0  0  0  0  0  0  0  0  0  0  0
    7.8100   -1.1249  -21.6028 C   0  0  0  0  0  0  0  0  0  0  0  0
    6.0738   -1.8967  -16.2954 C   0  0  0  0  0  0  0  0  0  0  0  0
    6.4424    0.4742  -16.7517 C   0  0  0  0  0  0  0  0  0  0  0  0
    2.6805   -4.7116  -17.1987 C   0  0  0  0  0  0  0  0  0  0  0  0
    7.2542   -0.5007  -14.6604 C   0  0  0  0  0  0  0  0  0  0  0  0
    5.3758    0.1481  -20.9270 C   0  0  0  0  0  0  0  0  0  0  0  0
    7.6909    0.2722  -21.7240 C   0  0  0  0  0  0  0  0  0  0  0  0
    6.7118   -1.8874  -21.1621 C   0  0  0  0  0  0  0  0  0  0  0  0
    5.5402   -3.2070  -16.7086 C   0  0  0  0  0  0  0  0  0  0  0  0
    6.3142    1.6257  -17.6481 C   0  0  0  0  0  0  0  0  0  0  0  0
    8.8194    9.0519  -19.3042 C   0  0  0  0  0  0  0  0  0  0  0  0
    8.4154   10.3426  -20.0342 C   0  0  0  0  0  0  0  0  0  0  0  0
    7.3381    9.4329  -19.4273 C   0  0  0  0  0  0  0  0  0  0  0  0
    3.4338   -4.3228  -19.5651 C   0  0  0  0  0  0  0  0  0  0  0  0
    9.0133    0.6416  -13.2938 C   0  0  0  0  0  0  0  0  0  0  0  0
    4.6770    7.9264  -15.9520 C   0  0  0  0  0  0  0  0  0  0  0  0
    8.5578   -2.7154  -12.0005 C   0  0  0  0  0  0  0  0  0  0  0  0
    6.4567    8.5691  -20.3498 C   0  0  0  0  0  0  0  0  0  0  0  0
    5.2256    4.9426  -18.0538 C   0  0  0  0  0  0  0  0  0  0  0  0
    4.0376    2.1416  -20.4868 C   0  0  0  0  0  0  0  0  0  0  0  0
    4.8062    7.3168  -19.0544 C   0  0  0  0  0  0  0  0  0  0  0  0
    3.8753   -4.4692  -18.1017 C   0  0  1  0  0  0  0  0  0  0  0  0
    4.9140    2.8051  -19.3873 C   0  0  1  0  0  0  0  0  0  0  0  0
    4.6938    6.3742  -17.8107 C   0  0  2  0  0  0  0  0  0  0  0  0
    4.2683    4.1340  -18.9529 C   0  0  1  0  0  0  0  0  0  0  0  0
    4.5652   -3.2480  -17.6945 N   0  0  0  0  0  0  0  0  0  0  0  0
    5.0899    1.8727  -18.2582 N   0  0  0  0  0  0  0  0  0  0  0  0
    7.9099   -0.3486  -13.4270 N   0  0  0  0  0  0  0  0  0  0  0  0
    5.9354   -4.2384  -16.1732 O   0  0  0  0  0  0  0  0  0  0  0  0
    7.2914    2.3346  -17.8649 O   0  0  0  0  0  0  0  0  0  0  0  0
    6.0919   -1.7620  -12.1757 O   0  0  0  0  0  0  0  0  0  0  0  0
    7.8155   -0.4643  -10.8421 O   0  0  0  0  0  0  0  0  0  0  0  0
    3.0456    3.8751  -18.2573 O   0  0  0  0  0  0  0  0  0  0  0  0
    4.1605    0.6958  -20.5398 O   0  0  0  0  0  0  0  0  0  0  0  0
    5.4085    6.9199  -16.6848 O   0  0  0  0  0  0  0  0  0  0  0  0
    6.1255    7.3359  -19.6583 O   0  0  0  0  0  0  0  0  0  0  0  0
    8.7457    1.0091  -22.1400 F   0  0  0  0  0  0  0  0  0  0  0  0
    6.8181   -3.2310  -21.0597 F   0  0  0  0  0  0  0  0  0  0  0  0
    7.4701   -1.2717  -12.0201 S   0  0  0  0  0  0  0  0  0  0  0  0
   -0.4373   -5.4197  -14.9628 H   0  0  0  0  0  0  0  0  0  0  0  0
   -0.2214   -3.2358  -16.1368 H   0  0  0  0  0  0  0  0  0  0  0  0
    1.3464   -7.1395  -15.1915 H   0  0  0  0  0  0  0  0  0  0  0  0
    1.7693   -2.7783  -17.5573 H   0  0  0  0  0  0  0  0  0  0  0  0
    3.3309   -6.6928  -16.6219 H   0  0  0  0  0  0  0  0  0  0  0  0
    5.3442   -0.8583  -18.0459 H   0  0  0  0  0  0  0  0  0  0  0  0
    6.9003   -2.6217  -14.4382 H   0  0  0  0  0  0  0  0  0  0  0  0
    7.5460    1.5586  -15.2500 H   0  0  0  0  0  0  0  0  0  0  0  0
    6.3715    1.9718  -21.5553 H   0  0  0  0  0  0  0  0  0  0  0  0
    4.6710   -1.8389  -20.4665 H   0  0  0  0  0  0  0  0  0  0  0  0
    8.7427   -1.6113  -21.8475 H   0  0  0  0  0  0  0  0  0  0  0  0
    9.2173    8.1992  -19.8740 H   0  0  0  0  0  0  0  0  0  0  0  0
    9.3222    9.1067  -18.3274 H   0  0  0  0  0  0  0  0  0  0  0  0
    8.6287   11.3214  -19.5798 H   0  0  0  0  0  0  0  0  0  0  0  0
    8.5238   10.4139  -21.1265 H   0  0  0  0  0  0  0  0  0  0  0  0
    6.8566    9.8013  -18.5094 H   0  0  0  0  0  0  0  0  0  0  0  0
    4.3157   -4.1481  -20.1990 H   0  0  0  0  0  0  0  0  0  0  0  0
    2.9263   -5.2435  -19.8888 H   0  0  0  0  0  0  0  0  0  0  0  0
    2.7427   -3.4719  -19.6561 H   0  0  0  0  0  0  0  0  0  0  0  0
    9.4033    0.6207  -12.2655 H   0  0  0  0  0  0  0  0  0  0  0  0
    9.8202    0.3880  -13.9971 H   0  0  0  0  0  0  0  0  0  0  0  0
    8.6319    1.6481  -13.5208 H   0  0  0  0  0  0  0  0  0  0  0  0
    5.2904    8.2886  -15.1137 H   0  0  0  0  0  0  0  0  0  0  0  0
    4.4385    8.7662  -16.6212 H   0  0  0  0  0  0  0  0  0  0  0  0
    3.7446    7.4914  -15.5628 H   0  0  0  0  0  0  0  0  0  0  0  0
    8.3232   -3.3400  -11.1259 H   0  0  0  0  0  0  0  0  0  0  0  0
    8.4072   -3.3004  -12.9197 H   0  0  0  0  0  0  0  0  0  0  0  0
    9.6053   -2.3843  -11.9441 H   0  0  0  0  0  0  0  0  0  0  0  0
    5.5337    9.1144  -20.5964 H   0  0  0  0  0  0  0  0  0  0  0  0
    7.0046    8.3385  -21.2753 H   0  0  0  0  0  0  0  0  0  0  0  0
    6.2095    5.0040  -18.5419 H   0  0  0  0  0  0  0  0  0  0  0  0
    5.3277    4.4293  -17.0863 H   0  0  0  0  0  0  0  0  0  0  0  0
    2.9850    2.3934  -20.2904 H   0  0  0  0  0  0  0  0  0  0  0  0
    4.3366    2.5512  -21.4630 H   0  0  0  0  0  0  0  0  0  0  0  0
    4.0832    6.9793  -19.8116 H   0  0  0  0  0  0  0  0  0  0  0  0
    4.5550    8.3398  -18.7378 H   0  0  0  0  0  0  0  0  0  0  0  0
    4.5610   -5.3258  -18.0242 H   0  0  0  0  0  0  0  0  0  0  0  0
    5.8981    3.0281  -19.8251 H   0  0  0  0  0  0  0  0  0  0  0  0
    3.6274    6.2944  -17.5530 H   0  0  0  0  0  0  0  0  0  0  0  0
    4.0620    4.7273  -19.8559 H   0  0  0  0  0  0  0  0  0  0  0  0
    4.3209   -2.3931  -18.1522 H   0  0  0  0  0  0  0  0  0  0  0  0
    4.2841    1.3917  -17.9126 H   0  0  0  0  0  0  0  0  0  0  0  0
    2.4616    3.3771  -18.8170 H   0  0  0  0  0  0  0  0  0  0  0  0
  1  2  2  0
  1  3  1  0
  2  4  1  0
  3  5  2  0
  4 14  2  0
  5 14  1  0
  6 12  2  0
  6 13  1  0
  7 12  1  0
  7 15  2  0
  8 13  2  0
  8 15  1  0
  9 16  2  0
  9 17  1  0
 10 16  1  0
 10 18  2  0
 11 17  2  0
 11 18  1  0
 12 19  1  0
 13 20  1  0
 14 32  1  0
 15 38  1  0
 16 44  1  0
 17 47  1  0
 18 48  1  0
 19 36  1  0
 19 39  2  0
 20 37  1  0
 20 40  2  0
 21 22  1  0
 21 23  1  0
 22 23  1  0
 23 28  1  0
 24 32  1  0
 25 38  1  0
 26 45  1  0
 27 49  1  0
 28 46  1  0
 29 34  1  0
 29 35  1  0
 30 33  1  0
 30 44  1  0
 31 34  1  0
 31 46  1  0
 32 36  1  0
 33 35  1  0
 33 37  1  0
 34 45  1  0
 35 43  1  0
 38 49  1  0
 41 49  2  0
 42 49  2  0
  1 50  1  0
  2 51  1  0
  3 52  1  0
  4 53  1  0
  5 54  1  0
  6 55  1  0
  7 56  1  0
  8 57  1  0
  9 58  1  0
 10 59  1  0
 11 60  1  0
 21 61  1  0
 21 62  1  0
 22 63  1  0
 22 64  1  0
 23 65  1  0
 24 66  1  0
 24 67  1  0
 24 68  1  0
 25 69  1  0
 25 70  1  0
 25 71  1  0
 26 72  1  0
 26 73  1  0
 26 74  1  0
 27 75  1  0
 27 76  1  0
 27 77  1  0
 28 78  1  0
 28 79  1  0
 29 80  1  0
 29 81  1  0
 30 82  1  0
 30 83  1  0
 31 84  1  0
 31 85  1  0
 32 86  1  6
 33 87  1  6
 34 88  1  1
 35 89  1  6
 36 90  1  0
 37 91  1  0
 43 92  1  0
M  END
>  <OMEGA_C>  (14) 
BFnbPjkPp8CzO3nBIYwMPy0Lf8Ar9IHBMdO3PytLxsAmXnvB1E3WP5mPbsBuaIjBBtUjQB8wvsAB
KYTBhL+8QIacRL+i/IjBiTPYQF8H4b8yIHHBtubjQBDlGj/kc3jBPiLPQPrNZz/MVqvBMS2wQBUI
oL/aiqbBd+v5QDj8j79x0qzBXVzCQEXH8r8PXYLBiyjOQIvF8j6MA4bBCI0rQLzFlsDblonBVCLo
QCovAL8ckWrB3QasQAKpFz5zaqfBqBv2QPVjiz7Vyq3B1cbWQECW8b/hS6nBEUmxQM4/TcAeq4XB
wg3KQPUX0D9fL43BbRwNQW3UEEEDb5rBXqUGQTt7JUHyRaDBptHqQEPtFkEXa5vBc8NbQE9UisBg
hZzBbjYQQUI+JD+Ns1TBQqqVQFml/UBAO3/B4+wIQZrILcDqAUDBBJ3OQA4bCUF8zKLBODinQNIp
nkAnbpDBAzSBQCgQCUAP5aPBZ8yZQPwi6kBgb5jBlgR4QKoDj8BW0JDBIz+dQF+GM0AmGZvBxDOW
QBf5y0BMfI7BFJaIQGlJhECin5fB0hWSQK7eT8BHjo3BSeCiQN+z7z/kEJLBPh79QHZ4sr7c1FbB
wu69QOSgh8CxYoHB7VLpQMVqFUBV647B4/DCQImI4b+Kz0LBeBj6QJa67b4feS3B0utCQBECeEDc
DpLBICOFQOAfMj96UaTBMhKtQJpv3UCIeoXB1APEQAbA6kAtRJ3BZO4LQSoqgT/OHrHBwC3aQCzJ
TsBbeqjBAwvvQNfGor9nUkDBAOnfvtFtrcDRZ2/BhrJivsUXT8ApGIHBpVWsP/V25MA8EHPBhHni
PwbQMcBwdYzB0yxVQDsr1sCn+YTB1gOrQKe8W78SXpDBgM/cQLHKJ8DCAmfBgHjxQKh+xz8dAHTB
L+PLQMRk/D9TcazB7XiVQK5i679Vu6PB/uELQQRAzr+Yx67B6XkTQc4vA0Hv/Z7BwicVQQW1EUFx
npLBPQ8KQXokNUGHo5zBZGEIQUOfJkEFA6nBd2nbQBXSHEFIE5TBHRqKQI+9hMCFl6HBREk7QPXK
p8AsHJ/BVYgvQOIyXsC0P53B+XMWQaDkHj+MP0TBfh8dQYCmxj4z9F/BUBwKQfTz0j9EVVjBkEqp
QOidBEGp0XHBWAiOQG1CDEE4+ITBMqhvQMK570BuAXnBACwFQW3CVcDRAzLBtoMGQTo5U8BHt07B
Zq8ZQdKYGMDtGj/B1BOxQGPUEUFnxaTBECbgQJdqBUHpM6rB47PGQKsgoEDcVZTBm3yqQHC8jUC5
sIjBtAk/QDEtGUDQUqLBh8WKQKBHI0AitKvBhqmCQGtW30Amfp7BSsKRQPNvBUEB55XBWPORQE5t
qsCXMZDBdL28QC/NQUC3mZ7BdCdoQHxryUCObIzBKfyBQHFGl0Dl2J7Bi0SKQGEoGcCvN5HBoheJ
QD0jsj8bTY/Bz4odQAUiWEBCiZbB

>  <OMEGA_E>  (14) 
NM8NPw==

>  <OMEGA_NBR>  (14) 
      3525

$$$$
30276
     RDKit          3D

 85 87  0  0  1  0  0  0  0  0999 V2000
    6.4049   -1.2520  -21.3452 C   0  0  0  0  0  0  0  0  0  0  0  0
    7.1558   -0.1012  -21.0362 C   0  0  0  0  0  0  0  0  0  0  0  0
    4.9990   -1.1819  -21.4013 C   0  0  0  0  0  0  0  0  0  0  0  0
    6.5012    1.1195  -20.7844 C   0  0  0  0  0  0  0  0  0  0  0  0
    4.3406    0.0341  -21.1353 C   0  0  0  0  0  0  0  0  0  0  0  0
    1.8313   -3.4436  -17.1250 C   0  0  0  0  0  0  0  0  0  0  0  0
    2.7583   -5.5692  -16.3484 C   0  0  0  0  0  0  0  0  0  0  0  0
    0.6888   -3.6519  -16.3327 C   0  0  0  0  0  0  0  0  0  0  0  0
    1.6127   -5.7767  -15.5581 C   0  0  0  0  0  0  0  0  0  0  0  0
    5.8768   -0.3469  -17.0274 C   0  0  0  0  0  0  0  0  0  0  0  0
    7.0525   -1.4479  -15.2056 C   0  0  0  0  0  0  0  0  0  0  0  0
    7.0465    0.9729  -15.3444 C   0  0  0  0  0  0  0  0  0  0  0  0
    6.2591   -1.5275  -16.3593 C   0  0  0  0  0  0  0  0  0  0  0  0
    6.3208    0.9012  -16.5436 C   0  0  0  0  0  0  0  0  0  0  0  0
    5.0861    1.1888  -20.8141 C   0  0  0  0  0  0  0  0  0  0  0  0
    2.8649   -4.4087  -17.1442 C   0  0  0  0  0  0  0  0  0  0  0  0
    7.4018   -0.2016  -14.6544 C   0  0  0  0  0  0  0  0  0  0  0  0
    0.5756   -4.8221  -15.5566 C   0  0  0  0  0  0  0  0  0  0  0  0
    5.8463   -2.8430  -16.8538 C   0  0  0  0  0  0  0  0  0  0  0  0
    6.1025    2.1194  -17.3188 C   0  0  0  0  0  0  0  0  0  0  0  0
    5.6689    6.8494  -18.7504 C   0  0  0  0  0  0  0  0  0  0  0  0
    5.4638    9.2725  -21.5959 C   0  0  0  0  0  0  0  0  0  0  0  0
    3.7392   -4.1445  -19.4955 C   0  0  0  0  0  0  0  0  0  0  0  0
    5.2397    6.8784  -16.2602 C   0  0  0  0  0  0  0  0  0  0  0  0
    8.8095    1.1221  -13.0614 C   0  0  0  0  0  0  0  0  0  0  0  0
    7.9018   -0.5370  -10.6370 C   0  0  0  0  0  0  0  0  0  0  0  0
    4.3565    2.4947  -20.5100 C   0  0  0  0  0  0  0  0  0  0  0  0
    6.2549    8.5994  -20.4668 C   0  0  0  0  0  0  0  0  0  0  0  0
    4.0294    4.3289  -18.7942 C   0  0  0  0  0  0  0  0  0  0  0  0
    4.0899   -4.1990  -18.0058 C   0  0  1  0  0  0  0  0  0  0  0  0
    4.7159    6.3981  -17.6239 C   0  0  2  0  0  0  0  0  0  0  0  0
    4.9236    3.1771  -19.2531 C   0  0  1  0  0  0  0  0  0  0  0  0
    4.7082   -2.9330  -17.6296 N   0  0  0  0  0  0  0  0  0  0  0  0
    5.0312    2.1768  -18.1902 N   0  0  0  0  0  0  0  0  0  0  0  0
    5.3348    7.9718  -19.5026 N   0  0  0  0  0  0  0  0  0  0  0  0
    8.1239   -0.1420  -13.4550 N   0  0  0  0  0  0  0  0  0  0  0  0
    4.6097    4.9314  -17.5754 N   0  0  0  0  0  0  0  0  0  0  0  0
    6.4645   -3.8496  -16.5213 O   0  0  0  0  0  0  0  0  0  0  0  0
    6.9201    3.0331  -17.2567 O   0  0  0  0  0  0  0  0  0  0  0  0
    6.7312    6.2615  -18.9319 O   0  0  0  0  0  0  0  0  0  0  0  0
    9.0649   -2.2560  -12.2827 O   0  0  0  0  0  0  0  0  0  0  0  0
    6.5430   -1.9254  -12.3811 O   0  0  0  0  0  0  0  0  0  0  0  0
   -0.5307   -5.0288  -14.8092 F   0  0  0  0  0  0  0  0  0  0  0  0
    7.8963   -1.3658  -12.2353 S   0  0  0  0  0  0  0  0  0  0  0  0
    6.9070   -2.1883  -21.5391 H   0  0  0  0  0  0  0  0  0  0  0  0
    8.2335   -0.1551  -20.9926 H   0  0  0  0  0  0  0  0  0  0  0  0
    4.4249   -2.0626  -21.6489 H   0  0  0  0  0  0  0  0  0  0  0  0
    7.0792    2.0057  -20.5678 H   0  0  0  0  0  0  0  0  0  0  0  0
    3.2626    0.0833  -21.1771 H   0  0  0  0  0  0  0  0  0  0  0  0
    1.9198   -2.5461  -17.7192 H   0  0  0  0  0  0  0  0  0  0  0  0
    3.5556   -6.2977  -16.3458 H   0  0  0  0  0  0  0  0  0  0  0  0
   -0.1013   -2.9157  -16.3192 H   0  0  0  0  0  0  0  0  0  0  0  0
    1.5280   -6.6672  -14.9530 H   0  0  0  0  0  0  0  0  0  0  0  0
    5.2480   -0.3977  -17.9040 H   0  0  0  0  0  0  0  0  0  0  0  0
    7.4000   -2.3553  -14.7342 H   0  0  0  0  0  0  0  0  0  0  0  0
    7.3342    1.9356  -14.9483 H   0  0  0  0  0  0  0  0  0  0  0  0
    6.1624    9.7364  -22.3077 H   0  0  0  0  0  0  0  0  0  0  0  0
    4.8559    8.5186  -22.1175 H   0  0  0  0  0  0  0  0  0  0  0  0
    4.8054   10.0451  -21.1721 H   0  0  0  0  0  0  0  0  0  0  0  0
    4.6564   -3.9913  -20.0833 H   0  0  0  0  0  0  0  0  0  0  0  0
    3.2656   -5.0909  -19.7954 H   0  0  0  0  0  0  0  0  0  0  0  0
    3.0435   -3.3123  -19.6782 H   0  0  0  0  0  0  0  0  0  0  0  0
    4.5522    6.5506  -15.4666 H   0  0  0  0  0  0  0  0  0  0  0  0
    6.2376    6.4520  -16.0799 H   0  0  0  0  0  0  0  0  0  0  0  0
    5.3045    7.9765  -16.2585 H   0  0  0  0  0  0  0  0  0  0  0  0
    9.3204    0.9781  -12.0979 H   0  0  0  0  0  0  0  0  0  0  0  0
    9.5475    1.3936  -13.8306 H   0  0  0  0  0  0  0  0  0  0  0  0
    8.0665    1.9275  -12.9656 H   0  0  0  0  0  0  0  0  0  0  0  0
    7.7601   -1.2794   -9.8378 H   0  0  0  0  0  0  0  0  0  0  0  0
    8.8639   -0.0234  -10.4938 H   0  0  0  0  0  0  0  0  0  0  0  0
    7.0848    0.1988  -10.6029 H   0  0  0  0  0  0  0  0  0  0  0  0
    4.4683    3.1748  -21.3674 H   0  0  0  0  0  0  0  0  0  0  0  0
    3.2898    2.2794  -20.3495 H   0  0  0  0  0  0  0  0  0  0  0  0
    6.9136    7.8290  -20.8943 H   0  0  0  0  0  0  0  0  0  0  0  0
    6.8631    9.3556  -19.9489 H   0  0  0  0  0  0  0  0  0  0  0  0
    3.9689    5.0879  -19.5881 H   0  0  0  0  0  0  0  0  0  0  0  0
    3.0213    3.9480  -18.5735 H   0  0  0  0  0  0  0  0  0  0  0  0
    4.7960   -5.0251  -17.8360 H   0  0  0  0  0  0  0  0  0  0  0  0
    3.7234    6.8383  -17.8001 H   0  0  0  0  0  0  0  0  0  0  0  0
    5.9215    3.5755  -19.4888 H   0  0  0  0  0  0  0  0  0  0  0  0
    4.2854   -2.0855  -17.9504 H   0  0  0  0  0  0  0  0  0  0  0  0
    4.2972    1.5052  -18.0900 H   0  0  0  0  0  0  0  0  0  0  0  0
    4.4260    8.3716  -19.3828 H   0  0  0  0  0  0  0  0  0  0  0  0
    4.0328    4.6836  -16.7971 H   0  0  0  0  0  0  0  0  0  0  0  0
    5.5265    4.5541  -17.4443 H   0  0  0  0  0  0  0  0  0  0  0  0
  1  2  2  0
  1  3  1  0
  2  4  1  0
  3  5  2  0
  4 15  2  0
  5 15  1  0
  6  8  2  0
  6 16  1  0
  7  9  1  0
  7 16  2  0
  8 18  1  0
  9 18  2  0
 10 13  2  0
 10 14  1  0
 11 13  1  0
 11 17  2  0
 12 14  2  0
 12 17  1  0
 13 19  1  0
 14 20  1  0
 15 27  1  0
 16 30  1  0
 17 36  1  0
 18 43  1  0
 19 33  1  0
 19 38  2  0
 20 34  1  0
 20 39  2  0
 21 31  1  0
 21 35  1  0
 21 40  2  0
 22 28  1  0
 23 30  1  0
 24 31  1  0
 25 36  1  0
 26 44  1  0
 27 32  1  0
 28 35  1  0
 29 32  1  0
 29 37  1  0
 30 33  1  0
 31 37  1  0
 32 34  1  0
 36 44  1  0
 41 44  2  0
 42 44  2  0
  1 45  1  0
  2 46  1  0
  3 47  1  0
  4 48  1  0
  5 49  1  0
  6 50  1  0
  7 51  1  0
  8 52  1  0
  9 53  1  0
 10 54  1  0
 11 55  1  0
 12 56  1  0
 22 57  1  0
 22 58  1  0
 22 59  1  0
 23 60  1  0
 23 61  1  0
 23 62  1  0
 24 63  1  0
 24 64  1  0
 24 65  1  0
 25 66  1  0
 25 67  1  0
 25 68  1  0
 26 69  1  0
 26 70  1  0
 26 71  1  0
 27 72  1  0
 27 73  1  0
 28 74  1  0
 28 75  1  0
 29 76  1  0
 29 77  1  0
 30 78  1  6
 31 79  1  6
 32 80  1  6
 33 81  1  0
 34 82  1  0
 35 83  1  0
 37 84  1  0
 37 85  1  0
M  CHG  1  37   1
M  END
>  <OMEGA_C>  (15) 
E/XMQP8/oL/pwqrBBPzkQDQ1z701SqjBgfefQFRJl7/0NavBewnQQJRLjz9hRqbBlOaKQJSYCz0Y
FanBImnqPwtkXMADAInBPIgwQOU2ssByyYLBnlMwPx+5acByqYLBdm3OP/rauMAu7njB3w68QB2i
sb4POIjBYa7hQGlUub9PSnPBuXzhQJQQeT+6gnXBz0rIQIKFw7/m34LBtkPKQDy3Zj9HWYTBMMGi
QBksmD9Cg6bBB1o3QNwTjcBTJ4nBvtvsQHJ5Tr5oeGrBRl0TP1dOmsCx53jBwRS7QDz0NcCo1IbB
R0fDQMSkB0DjjIrBw2e1QGQu20DRAJbBhNeuQB1cFEFlxKzB0U9vQAOghMDd9pvB1qunQAAc3EDc
FILBvvMMQcGfjz9++1DBatv8QNR2Cb8yMSrBd2iLQHepH0CHFKTBYijIQAuXCUEAvKPBqfCAQGiG
ikCRWpbBlOCCQO1dhsDJC5DB4uiWQDK9zECn/YzBe46dQC5VS0BmBprBP6mWQMO1O8BWCY3Brf+g
QPlQC0CUhZHBX7aqQEMZ/0BgBZzBg/sBQSppEb6IR1fBxIKTQL3NnUB5mozB2tzOQChgdsCyK4TB
dHHdQDYeQkDDDYrBVmbXQNddyECYdJfBvgkRQdVhEMAehkTBBGDRQPJx9r8AGUbBzNsHvzvsoMBg
8mzBPq78QCHUrr/Rw0PBYQbdQKgMDMD6T6zBi7wDQTnYHr7A8KfBLJmNQMcBBMAHMa3BsojiQMBd
AEDwiqTBG85QQKaVqj3DaqnBd7v1P+XzIsAFwY3BlY9jQIaGycBDxILBj2/PveyaOsC1jYLBlpbD
PxRa1cB4P2/B2e+nQNKhy75cO4/Bf8zsQGu9FsAwv2vBFLLqQKjA9z9eLG/BczLFQG7IG0E9drLB
lWObQP5LCEGS8LDBMMaZQLW4IEFhYKnB4gCVQKZxf8CLqqDB5f5QQATposABXZ7BTslCQHz8U8Di
bJ3BoquRQFme0UAOd3fBGZrHQL12zkC2o4DBVL6pQJA//0BuEYLBNyAVQfBjej8TkUHBhMIYQVNh
sj8YSl3BaxABQRK59j/rck/BXFL4QHnEo7/UZx3Br9INQazGv7x45ifBiLbiQIKPSz5SpSnBOfyO
QI4vS0BZ8KrBH4xSQAThEUDAy6LBKDzdQGCH+kBwJ6fBw57bQGawFUE/l5/BrgF+QDHQokBvtJzB
Ml1BQFqsfEB4lpTBJnmZQPXNoMAYsI7BjktuQDnT2kCBZo7BFn29QH3UZED66JvBpCGJQCh4BcB/
mo/BWIKJQOGowD9fuJDBA6KNQCryBUHhD5vBuwyBQP/flUB4YIbB19iwQNm6kUDojYvB

>  <OMEGA_E>  (15) 
MObTPg==

>  <OMEGA_NBR>  (15) 
      1699

$$$$
30274
     RDKit          3D

 95 97  0  0  1  0  0  0  0  0999 V2000
    6.3221   -1.2758  -21.4857 C   0  0  0  0  0  0  0  0  0  0  0  0
    7.0996   -0.1418  -21.1780 C   0  0  0  0  0  0  0  0  0  0  0  0
    4.9170   -1.1810  -21.5211 C   0  0  0  0  0  0  0  0  0  0  0  0
    6.4720    1.0885  -20.9080 C   0  0  0  0  0  0  0  0  0  0  0  0
    4.2865    0.0424  -21.2353 C   0  0  0  0  0  0  0  0  0  0  0  0
    1.8793   -3.3522  -17.1604 C   0  0  0  0  0  0  0  0  0  0  0  0
    2.7624   -5.5224  -16.4607 C   0  0  0  0  0  0  0  0  0  0  0  0
    0.7383   -3.5597  -16.3646 C   0  0  0  0  0  0  0  0  0  0  0  0
    1.6204   -5.7276  -15.6649 C   0  0  0  0  0  0  0  0  0  0  0  0
    5.9755   -0.3576  -17.0588 C   0  0  0  0  0  0  0  0  0  0  0  0
    7.0737   -1.4062  -15.1540 C   0  0  0  0  0  0  0  0  0  0  0  0
    7.1411    1.0090  -15.4168 C   0  0  0  0  0  0  0  0  0  0  0  0
    6.3138   -1.5194  -16.3363 C   0  0  0  0  0  0  0  0  0  0  0  0
    6.4151    0.9028  -16.6125 C   0  0  0  0  0  0  0  0  0  0  0  0
    5.0594    1.1786  -20.9205 C   0  0  0  0  0  0  0  0  0  0  0  0
    2.8922   -4.3382  -17.2166 C   0  0  0  0  0  0  0  0  0  0  0  0
    7.4585   -0.1372  -14.6632 C   0  0  0  0  0  0  0  0  0  0  0  0
    0.6071   -4.7491  -15.6207 C   0  0  0  0  0  0  0  0  0  0  0  0
    5.8553   -2.8371  -16.8062 C   0  0  0  0  0  0  0  0  0  0  0  0
    6.1507    2.1043  -17.4049 C   0  0  0  0  0  0  0  0  0  0  0  0
    5.6519    6.7461  -18.7304 C   0  0  0  0  0  0  0  0  0  0  0  0
    3.7385   -4.0335  -19.5648 C   0  0  0  0  0  0  0  0  0  0  0  0
    6.6905    9.5562  -22.5417 C   0  0  0  0  0  0  0  0  0  0  0  0
    4.6223   10.0813  -21.2001 C   0  0  0  0  0  0  0  0  0  0  0  0
    8.9281    1.2318  -13.1607 C   0  0  0  0  0  0  0  0  0  0  0  0
    8.8877   -2.4381  -12.1546 C   0  0  0  0  0  0  0  0  0  0  0  0
    4.3566    2.4836  -20.6037 C   0  0  0  0  0  0  0  0  0  0  0  0
    4.8414    6.8589  -16.3502 C   0  0  0  0  0  0  0  0  0  0  0  0
    6.4491    8.6089  -20.2323 C   0  0  0  0  0  0  0  0  0  0  0  0
    3.9332    4.2030  -18.8607 C   0  0  0  0  0  0  0  0  0  0  0  0
    6.1049    6.2416  -15.7186 C   0  0  0  0  0  0  0  0  0  0  0  0
    4.1171   -4.1321  -18.0813 C   0  0  1  0  0  0  0  0  0  0  0  0
    4.5589    6.2941  -17.7483 C   0  0  2  0  0  0  0  0  0  0  0  0
    5.6899    9.0076  -21.5109 C   0  0  0  0  0  0  0  0  0  0  0  0
    4.9052    3.1285  -19.3258 C   0  0  1  0  0  0  0  0  0  0  0  0
    4.7778   -2.8932  -17.6781 N   0  0  0  0  0  0  0  0  0  0  0  0
    5.0764    2.1125  -18.2803 N   0  0  0  0  0  0  0  0  0  0  0  0
    5.5116    8.0059  -19.2834 N   0  0  0  0  0  0  0  0  0  0  0  0
    8.1324    0.0005  -13.4371 N   0  0  0  0  0  0  0  0  0  0  0  0
    4.4565    4.8337  -17.6488 N   0  0  0  0  0  0  0  0  0  0  0  0
    6.3996   -3.8624  -16.4095 O   0  0  0  0  0  0  0  0  0  0  0  0
    6.9110    3.0646  -17.3265 O   0  0  0  0  0  0  0  0  0  0  0  0
    6.6431    6.0552  -18.9494 O   0  0  0  0  0  0  0  0  0  0  0  0
    6.3882   -1.5570  -12.2783 O   0  0  0  0  0  0  0  0  0  0  0  0
    8.0656   -0.2873  -10.8633 O   0  0  0  0  0  0  0  0  0  0  0  0
    6.2884    6.8107  -14.4350 O   0  0  0  0  0  0  0  0  0  0  0  0
   -0.4935   -4.9523  -14.8636 F   0  0  0  0  0  0  0  0  0  0  0  0
    7.7488   -1.0307  -12.0904 S   0  0  0  0  0  0  0  0  0  0  0  0
    6.8041   -2.2194  -21.6948 H   0  0  0  0  0  0  0  0  0  0  0  0
    8.1766   -0.2167  -21.1493 H   0  0  0  0  0  0  0  0  0  0  0  0
    4.3238   -2.0490  -21.7680 H   0  0  0  0  0  0  0  0  0  0  0  0
    7.0675    1.9631  -20.6915 H   0  0  0  0  0  0  0  0  0  0  0  0
    3.2089    0.1120  -21.2569 H   0  0  0  0  0  0  0  0  0  0  0  0
    1.9822   -2.4396  -17.7289 H   0  0  0  0  0  0  0  0  0  0  0  0
    3.5397   -6.2714  -16.4929 H   0  0  0  0  0  0  0  0  0  0  0  0
   -0.0363   -2.8083  -16.3238 H   0  0  0  0  0  0  0  0  0  0  0  0
    1.5203   -6.6351  -15.0879 H   0  0  0  0  0  0  0  0  0  0  0  0
    5.3786   -0.4345  -17.9556 H   0  0  0  0  0  0  0  0  0  0  0  0
    7.3647   -2.2975  -14.6181 H   0  0  0  0  0  0  0  0  0  0  0  0
    7.4603    1.9809  -15.0705 H   0  0  0  0  0  0  0  0  0  0  0  0
    4.6471   -3.8842  -20.1665 H   0  0  0  0  0  0  0  0  0  0  0  0
    3.2397   -4.9624  -19.8783 H   0  0  0  0  0  0  0  0  0  0  0  0
    3.0567   -3.1831  -19.7133 H   0  0  0  0  0  0  0  0  0  0  0  0
    7.4489    8.7903  -22.7610 H   0  0  0  0  0  0  0  0  0  0  0  0
    6.1567    9.8189  -23.4669 H   0  0  0  0  0  0  0  0  0  0  0  0
    7.1817   10.4524  -22.1348 H   0  0  0  0  0  0  0  0  0  0  0  0
    3.9081    9.6863  -20.4627 H   0  0  0  0  0  0  0  0  0  0  0  0
    5.1121   10.9779  -20.7923 H   0  0  0  0  0  0  0  0  0  0  0  0
    4.0871   10.3443  -22.1244 H   0  0  0  0  0  0  0  0  0  0  0  0
    9.3794    1.1605  -12.1601 H   0  0  0  0  0  0  0  0  0  0  0  0
    9.7225    1.3318  -13.9149 H   0  0  0  0  0  0  0  0  0  0  0  0
    8.2690    2.1115  -13.2037 H   0  0  0  0  0  0  0  0  0  0  0  0
    8.6783   -3.1185  -11.3161 H   0  0  0  0  0  0  0  0  0  0  0  0
    8.7532   -2.9754  -13.1050 H   0  0  0  0  0  0  0  0  0  0  0  0
    9.9235   -2.0750  -12.0822 H   0  0  0  0  0  0  0  0  0  0  0  0
    4.5007    3.1789  -21.4438 H   0  0  0  0  0  0  0  0  0  0  0  0
    3.2826    2.2867  -20.4707 H   0  0  0  0  0  0  0  0  0  0  0  0
    3.9798    6.6451  -15.7007 H   0  0  0  0  0  0  0  0  0  0  0  0
    4.9800    7.9473  -16.4290 H   0  0  0  0  0  0  0  0  0  0  0  0
    7.2363    7.8827  -20.4833 H   0  0  0  0  0  0  0  0  0  0  0  0
    6.9049    9.5026  -19.7814 H   0  0  0  0  0  0  0  0  0  0  0  0
    3.8179    4.9610  -19.6494 H   0  0  0  0  0  0  0  0  0  0  0  0
    2.9559    3.7465  -18.6451 H   0  0  0  0  0  0  0  0  0  0  0  0
    5.9801    5.1525  -15.6275 H   0  0  0  0  0  0  0  0  0  0  0  0
    6.9794    6.4590  -16.3495 H   0  0  0  0  0  0  0  0  0  0  0  0
    4.8018   -4.9820  -17.9449 H   0  0  0  0  0  0  0  0  0  0  0  0
    3.5969    6.6993  -18.0951 H   0  0  0  0  0  0  0  0  0  0  0  0
    5.1940    8.1185  -21.9275 H   0  0  0  0  0  0  0  0  0  0  0  0
    5.8749    3.5961  -19.5516 H   0  0  0  0  0  0  0  0  0  0  0  0
    4.4323   -2.0331  -18.0535 H   0  0  0  0  0  0  0  0  0  0  0  0
    4.3864    1.3936  -18.1959 H   0  0  0  0  0  0  0  0  0  0  0  0
    4.7121    8.5437  -19.0158 H   0  0  0  0  0  0  0  0  0  0  0  0
    3.8483    4.6099  -16.8873 H   0  0  0  0  0  0  0  0  0  0  0  0
    5.3678    4.4639  -17.4674 H   0  0  0  0  0  0  0  0  0  0  0  0
    7.0645    6.4399  -14.0317 H   0  0  0  0  0  0  0  0  0  0  0  0
  1  2  2  0
  1  3  1  0
  2  4  1  0
  3  5  2  0
  4 15  2  0
  5 15  1  0
  6  8  2  0
  6 16  1  0
  7  9  1  0
  7 16  2  0
  8 18  1  0
  9 18  2  0
 10 13  2  0
 10 14  1  0
 11 13  1  0
 11 17  2  0
 12 14  2  0
 12 17  1  0
 13 19  1  0
 14 20  1  0
 15 27  1  0
 16 32  1  0
 17 39  1  0
 18 47  1  0
 19 36  1  0
 19 41  2  0
 20 37  1  0
 20 42  2  0
 21 33  1  0
 21 38  1  0
 21 43  2  0
 22 32  1  0
 23 34  1  0
 24 34  1  0
 25 39  1  0
 26 48  1  0
 27 35  1  0
 28 31  1  0
 28 33  1  0
 29 34  1  0
 29 38  1  0
 30 35  1  0
 30 40  1  0
 31 46  1  0
 32 36  1  0
 33 40  1  0
 35 37  1  0
 39 48  1  0
 44 48  2  0
 45 48  2  0
  1 49  1  0
  2 50  1  0
  3 51  1  0
  4 52  1  0
  5 53  1  0
  6 54  1  0
  7 55  1  0
  8 56  1  0
  9 57  1  0
 10 58  1  0
 11 59  1  0
 12 60  1  0
 22 61  1  0
 22 62  1  0
 22 63  1  0
 23 64  1  0
 23 65  1  0
 23 66  1  0
 24 67  1  0
 24 68  1  0
 24 69  1  0
 25 70  1  0
 25 71  1  0
 25 72  1  0
 26 73  1  0
 26 74  1  0
 26 75  1  0
 27 76  1  0
 27 77  1  0
 28 78  1  0
 28 79  1  0
 29 80  1  0
 29 81  1  0
 30 82  1  0
 30 83  1  0
 31 84  1  0
 31 85  1  0
 32 86  1  6
 33 87  1  6
 34 88  1  0
 35 89  1  6
 36 90  1  0
 37 91  1  0
 38 92  1  0
 40 93  1  0
 40 94  1  0
 46 95  1  0
M  CHG  1  40   1
M  END
>  <OMEGA_C>  (16) 
VE7KQJ9No7+/4qvBBjDjQNQzEb53bKnBTFidQK0ql787K6zBYBrPQJ1Tiz+TQ6fBtiqJQLrKLT3j
4anBpozwP6uJVsCZSInBwcowQB63sMCCr4PBiAE9PxzSY8DA6oLB9WjPP7VIt8Bbo3rBiDe/QMYc
t753eIjBylviQHv9s7/zdnLBTITkQGQmgT9Dq3bBiArKQAV7wr/DsILBekjNQMAfZz9N5oTBxOah
QP7alj9CXafBLho5QG/SisCcu4nB1KvuQDyJDL6pnGrBSmobP2v4l8BQ7nnBYl67QESSNcArc4bB
4tLEQECtBkAxPYvBoNy0QPff10DO15XBOkNvQDwSgcCthJzBshjWQFDmGEFtVbTBLuqTQBRNIUHf
manBUNkOQfCsnT9EklLBGzQOQT8KHMBeeULBoGmLQNzyHkBs1KTBxuyaQCx820AyzYLByl7OQOG9
CUHG26HB07l7QA5/hkCn4pbBKFvDQGS7x0Bhf3vBHr+DQNQ5hMCYppDBbOKRQP5oyUBv/I3B3hO2
QBsfEEFPFqzBWPecQCA5SEBUm5rB/uOYQHQqOcCzbI3BtHGiQGEzB0AmPpLB9F6wQF4YAEFpRJrB
IR4CQcCABzoq/lbB9JuOQAuumkDFMI3BRMnMQFMyd8CeRoPBIifdQNciREC6nIrBbpTUQFLEwUBp
mJfBVGzMQLZLx78XdETBoAwBQbgUk7400C3BSDrJQP/w2UCv9WbBKqf8vvt4nsBg0W3BUPb3QKHu
g78uckHBTLvZQP4JDsAIj63BedMCQTHoXb6zManBK1yKQNUiA8D2JK7BtCjiQOZF+z8ciKXBBl9N
QLZw5T0RDqrBPbj9PywjHMDO1I3B34piQGWvyMCF8YPBKOMUvbC6M8Awl4LBHJnCP3hS1MD0Z3HB
0B2sQNB63r4RpY/B56vrQB0KE8Cp42nBw7ruQIaN/T+bIHHBTbWUQIKXeMAFVaHBVVdPQCfMnsC9
Bp/BSqFDQPO3S8DttJ3Bwl3uQOekDEF2FrbBYwPFQAQaHUFHvLvBJtDlQCw9J0EJFLHBDx56QB/7
GkGas6PBI5ajQGOlL0GdVqbBYMmCQDqCJUHb/rDB/BEWQUWLlD/Mj0LBi48bQdx3qj9qo17Btk0E
QX0iB0ApQlPBXdoKQdKVR8CODjXB8gwMQZJtPsANrlHB0MYeQW/NBMCTUEHBegWQQNxyS0D7jKvB
URZSQC1ZEkD/w6PBV7R+QF2k1EAUNnvBS1yfQDpQ/kB+boPBoI/nQCY//EDY3aPBWPXcQNYKGEFR
QJ7B81d0QLPAnkD+MZ3Bfi09QCPHb0AeKZXBT12/QH/hpEAZCnrB9FbfQD6wzkC9y4LBq6iZQOts
n8AVj4/BzDJmQItg1kC1wpDB/DSmQGDlAUF2a6/BYP+7QLEmZkCaaZzBlNWNQBofAsB4bZDBuF2M
QO5gsj9EkZHBtsmWQCmzCEFIIJjBqkp2QK+Ek0AZGYfBwcSrQJzYjkBGvYvBkhDiQKkTzkD7gWDB

>  <OMEGA_E>  (16) 
QLigPg==

>  <OMEGA_NBR>  (16) 
      3557

$$$$
50220574
     RDKit          3D

 95 97  0  0  1  0  0  0  0  0999 V2000
    6.3214   -1.2327  -21.4875 C   0  0  0  0  0  0  0  0  0  0  0  0
    0.5859   -4.7401  -15.5946 C   0  0  0  0  0  0  0  0  0  0  0  0
    7.0810   -0.0811  -21.2031 C   0  0  0  0  0  0  0  0  0  0  0  0
    4.9144   -1.1646  -21.5069 C   0  0  0  0  0  0  0  0  0  0  0  0
    0.7049   -3.5574  -16.3515 C   0  0  0  0  0  0  0  0  0  0  0  0
    1.6068   -5.7106  -15.6346 C   0  0  0  0  0  0  0  0  0  0  0  0
    6.4332    1.1395  -20.9406 C   0  0  0  0  0  0  0  0  0  0  0  0
    4.2633    0.0493  -21.2251 C   0  0  0  0  0  0  0  0  0  0  0  0
    1.8435   -3.3463  -17.1518 C   0  0  0  0  0  0  0  0  0  0  0  0
    2.7469   -5.5015  -16.4331 C   0  0  0  0  0  0  0  0  0  0  0  0
    5.9719   -0.3269  -17.0757 C   0  0  0  0  0  0  0  0  0  0  0  0
    7.0780   -1.3595  -15.1682 C   0  0  0  0  0  0  0  0  0  0  0  0
    7.1279    1.0549  -15.4387 C   0  0  0  0  0  0  0  0  0  0  0  0
    6.3154   -1.4814  -16.3460 C   0  0  0  0  0  0  0  0  0  0  0  0
    6.4104    0.9361  -16.6393 C   0  0  0  0  0  0  0  0  0  0  0  0
    5.0183    1.2032  -20.9339 C   0  0  0  0  0  0  0  0  0  0  0  0
    2.8673   -4.3221  -17.1981 C   0  0  0  0  0  0  0  0  0  0  0  0
    7.4440   -0.0864  -14.6761 C   0  0  0  0  0  0  0  0  0  0  0  0
    5.8543   -2.8007  -16.8002 C   0  0  0  0  0  0  0  0  0  0  0  0
    6.1593    2.1236  -17.4523 C   0  0  0  0  0  0  0  0  0  0  0  0
    5.7377    6.6730  -18.6687 C   0  0  0  0  0  0  0  0  0  0  0  0
    3.7527   -4.0024  -19.5358 C   0  0  0  0  0  0  0  0  0  0  0  0
    6.6312    9.5753  -22.4878 C   0  0  0  0  0  0  0  0  0  0  0  0
    4.5342   10.0054  -21.1595 C   0  0  0  0  0  0  0  0  0  0  0  0
    5.3308    7.9801  -15.8956 C   0  0  0  0  0  0  0  0  0  0  0  0
    8.8835    1.2908  -13.1520 C   0  0  0  0  0  0  0  0  0  0  0  0
    8.9300   -2.3432  -12.1377 C   0  0  0  0  0  0  0  0  0  0  0  0
    4.2966    2.4971  -20.6101 C   0  0  0  0  0  0  0  0  0  0  0  0
    6.4019    8.5785  -20.1943 C   0  0  0  0  0  0  0  0  0  0  0  0
    3.9530    4.2625  -18.8795 C   0  0  0  0  0  0  0  0  0  0  0  0
    4.1024   -4.1043  -18.0464 C   0  0  1  0  0  0  0  0  0  0  0  0
    4.7432    6.1993  -17.5802 C   0  0  2  0  0  0  0  0  0  0  0  0
    5.6404    8.9742  -21.4746 C   0  0  0  0  0  0  0  0  0  0  0  0
    4.8815    3.1548  -19.3574 C   0  0  1  0  0  0  0  0  0  0  0  0
    5.2664    6.4750  -16.1594 C   0  0  1  0  0  0  0  0  0  0  0  0
    4.7466   -2.8621  -17.6309 N   0  0  0  0  0  0  0  0  0  0  0  0
    5.0623    2.1427  -18.3030 N   0  0  0  0  0  0  0  0  0  0  0  0
    5.4928    7.9049  -19.2586 N   0  0  0  0  0  0  0  0  0  0  0  0
    8.0990    0.0559  -13.4409 N   0  0  0  0  0  0  0  0  0  0  0  0
    4.4861    4.7629  -17.6140 N   0  0  0  0  0  0  0  0  0  0  0  0
    6.4176   -3.8215  -16.4188 O   0  0  0  0  0  0  0  0  0  0  0  0
    6.9547    3.0576  -17.4183 O   0  0  0  0  0  0  0  0  0  0  0  0
    6.7604    6.0395  -18.9147 O   0  0  0  0  0  0  0  0  0  0  0  0
    6.3955   -1.5880  -12.3290 O   0  0  0  0  0  0  0  0  0  0  0  0
    7.9645   -0.2359  -10.8700 O   0  0  0  0  0  0  0  0  0  0  0  0
    6.5544    5.8843  -15.9577 O   0  0  0  0  0  0  0  0  0  0  0  0
    7.7225   -0.9939  -12.1048 S   0  0  0  0  0  0  0  0  0  0  0  0
    6.8185   -2.1697  -21.6910 H   0  0  0  0  0  0  0  0  0  0  0  0
   -0.2892   -4.9029  -14.9829 H   0  0  0  0  0  0  0  0  0  0  0  0
    8.1595   -0.1353  -21.1866 H   0  0  0  0  0  0  0  0  0  0  0  0
    4.3350   -2.0460  -21.7386 H   0  0  0  0  0  0  0  0  0  0  0  0
   -0.0771   -2.8133  -16.3176 H   0  0  0  0  0  0  0  0  0  0  0  0
    1.5145   -6.6154  -15.0522 H   0  0  0  0  0  0  0  0  0  0  0  0
    7.0147    2.0282  -20.7443 H   0  0  0  0  0  0  0  0  0  0  0  0
    3.1844    0.0975  -21.2319 H   0  0  0  0  0  0  0  0  0  0  0  0
    1.9358   -2.4393  -17.7308 H   0  0  0  0  0  0  0  0  0  0  0  0
    3.5302   -6.2445  -16.4603 H   0  0  0  0  0  0  0  0  0  0  0  0
    5.3722   -0.4113  -17.9699 H   0  0  0  0  0  0  0  0  0  0  0  0
    7.3859   -2.2474  -14.6360 H   0  0  0  0  0  0  0  0  0  0  0  0
    7.4404    2.0304  -15.0965 H   0  0  0  0  0  0  0  0  0  0  0  0
    4.6721   -3.8449  -20.1189 H   0  0  0  0  0  0  0  0  0  0  0  0
    3.2663   -4.9333  -19.8627 H   0  0  0  0  0  0  0  0  0  0  0  0
    3.0685   -3.1559  -19.6946 H   0  0  0  0  0  0  0  0  0  0  0  0
    7.4186    8.8404  -22.7116 H   0  0  0  0  0  0  0  0  0  0  0  0
    6.0969    9.8335  -23.4139 H   0  0  0  0  0  0  0  0  0  0  0  0
    7.0861   10.4817  -22.0620 H   0  0  0  0  0  0  0  0  0  0  0  0
    3.8266    9.5751  -20.4355 H   0  0  0  0  0  0  0  0  0  0  0  0
    4.9887   10.9119  -20.7335 H   0  0  0  0  0  0  0  0  0  0  0  0
    3.9994   10.2637  -22.0854 H   0  0  0  0  0  0  0  0  0  0  0  0
    5.7062    8.1586  -14.8772 H   0  0  0  0  0  0  0  0  0  0  0  0
    6.0076    8.4512  -16.6236 H   0  0  0  0  0  0  0  0  0  0  0  0
    4.3247    8.4133  -15.9965 H   0  0  0  0  0  0  0  0  0  0  0  0
    9.3201    1.2213  -12.1447 H   0  0  0  0  0  0  0  0  0  0  0  0
    9.6887    1.3956  -13.8940 H   0  0  0  0  0  0  0  0  0  0  0  0
    8.2204    2.1669  -13.2043 H   0  0  0  0  0  0  0  0  0  0  0  0
    8.7299   -3.0355  -11.3066 H   0  0  0  0  0  0  0  0  0  0  0  0
    8.8497   -2.8838  -13.0924 H   0  0  0  0  0  0  0  0  0  0  0  0
    9.9442   -1.9301  -12.0345 H   0  0  0  0  0  0  0  0  0  0  0  0
    4.3988    3.1881  -21.4599 H   0  0  0  0  0  0  0  0  0  0  0  0
    3.2316    2.2815  -20.4389 H   0  0  0  0  0  0  0  0  0  0  0  0
    7.2257    7.8980  -20.4557 H   0  0  0  0  0  0  0  0  0  0  0  0
    6.8100    9.4825  -19.7188 H   0  0  0  0  0  0  0  0  0  0  0  0
    3.9221    5.0738  -19.6217 H   0  0  0  0  0  0  0  0  0  0  0  0
    2.9387    3.8644  -18.7291 H   0  0  0  0  0  0  0  0  0  0  0  0
    4.7921   -4.9488  -17.9007 H   0  0  0  0  0  0  0  0  0  0  0  0
    3.7975    6.7447  -17.7149 H   0  0  0  0  0  0  0  0  0  0  0  0
    5.1797    8.0758  -21.9112 H   0  0  0  0  0  0  0  0  0  0  0  0
    5.8564    3.5954  -19.6133 H   0  0  0  0  0  0  0  0  0  0  0  0
    4.5519    6.0368  -15.4470 H   0  0  0  0  0  0  0  0  0  0  0  0
    4.3646   -2.0012  -17.9669 H   0  0  0  0  0  0  0  0  0  0  0  0
    4.3625    1.4366  -18.1947 H   0  0  0  0  0  0  0  0  0  0  0  0
    4.6359    8.3669  -19.0301 H   0  0  0  0  0  0  0  0  0  0  0  0
    3.8273    4.5483  -16.8929 H   0  0  0  0  0  0  0  0  0  0  0  0
    5.3472    4.2888  -17.4307 H   0  0  0  0  0  0  0  0  0  0  0  0
    6.9828    5.7636  -16.7970 H   0  0  0  0  0  0  0  0  0  0  0  0
  1  3  2  0
  1  4  1  0
  2  5  2  0
  2  6  1  0
  3  7  1  0
  4  8  2  0
  5  9  1  0
  6 10  2  0
  7 16  2  0
  8 16  1  0
  9 17  2  0
 10 17  1  0
 11 14  2  0
 11 15  1  0
 12 14  1  0
 12 18  2  0
 13 15  2  0
 13 18  1  0
 14 19  1  0
 15 20  1  0
 16 28  1  0
 17 31  1  0
 18 39  1  0
 19 36  1  0
 19 41  2  0
 20 37  1  0
 20 42  2  0
 21 32  1  0
 21 38  1  0
 21 43  2  0
 22 31  1  0
 23 33  1  0
 24 33  1  0
 25 35  1  0
 26 39  1  0
 27 47  1  0
 28 34  1  0
 29 33  1  0
 29 38  1  0
 30 34  1  0
 30 40  1  0
 31 36  1  0
 32 35  1  0
 32 40  1  0
 34 37  1  0
 35 46  1  0
 39 47  1  0
 44 47  2  0
 45 47  2  0
  1 48  1  0
  2 49  1  0
  3 50  1  0
  4 51  1  0
  5 52  1  0
  6 53  1  0
  7 54  1  0
  8 55  1  0
  9 56  1  0
 10 57  1  0
 11 58  1  0
 12 59  1  0
 13 60  1  0
 22 61  1  0
 22 62  1  0
 22 63  1  0
 23 64  1  0
 23 65  1  0
 23 66  1  0
 24 67  1  0
 24 68  1  0
 24 69  1  0
 25 70  1  0
 25 71  1  0
 25 72  1  0
 26 73  1  0
 26 74  1  0
 26 75  1  0
 27 76  1  0
 27 77  1  0
 27 78  1  0
 28 79  1  0
 28 80  1  0
 29 81  1  0
 29 82  1  0
 30 83  1  0
 30 84  1  0
 31 85  1  6
 32 86  1  6
 33 87  1  0
 34 88  1  6
 35 89  1  1
 36 90  1  0
 37 91  1  0
 38 92  1  0
 40 93  1  0
 40 94  1  0
 46 95  1  0
M  CHG  1  40   1
M  END
>  <OMEGA_C>  (17) 
60jKQG7Jnb9j5qvBhvwVP5Oul8Bmg3nBzpfiQLUVpr3+n6nBYUKdQPsPlb8vDqzBonU0P2WsY8Df
z4LBPq3NP2W9tsA2J3rBzdzNQCXckT9yhqfBHm2IQIDZST0azanBGvnrP3cpVsD5NonBf80vQF8M
sMAAd4PBBRq/QOxYp77/mojB037iQMYCrr/FsHLBnhfkQLoGhz/3BHfBlBfKQOOdvb+cxILBMCLN
QFuhbz83HYXBA5agQAwCmj+HeKfBqII3QFBOisColYnBPjXuQC0Gsb1C0WrBGVa7QDY+M8C+ZobB
MRnFQGfoB0BXnovBmpu3QPyI1UB+WZXBBi1wQKgTgMBiSZzBqTLUQD00GUHz5rPB3ReRQP8VIEG+
RqnBoZWqQLlc/0BQVH7BwiIOQY86pT9zblLBS+EOQcD3FcAQNELBwH2JQNPQH0Bo4aTBVtzMQGFB
CUHVjaHBqP18QK5miEAuCZfBNUeDQNBWg8AUX5DBQciXQIZgxkBSpIzBjX60QEGWD0EUzKvBGzWc
QNDoSUAA3JrBIYaoQDEzz0B/RoHBEOSXQLosN8AqDI3BkP6hQMciCUB5bJLBTsWvQNL0/ECrEZrB
gpUBQcLdZD3PDVfB542PQL1pmECG6YzBq1zNQA2UdMDJWYPBkIzeQJSvQ0C/WIvBVFXYQK9DwUBL
UZfBKajMQIxCy7+dQ0XBj93+QIOKcb5T6y3BQb3RQIFMvEDZUn/BUh73QOtwfr87rUHBTDHaQI3b
CsAuh63BywuUvpXknMDTuW/Bf40CQYGECr47fqnBEriKQGTyAsCy6K3BKuOdvdcMNMBpioLBrdnB
P3+x08Cm1XDBTHjgQPrNAUBT9KXBgs1LQDOtxz302qnBMcf3P8ccHMCy2I3BNu9hQEDTx8C2roPB
vOirQCaV0r5Ewo/BcFnsQCzVD8AqLWrB/hfuQC/yAUBli3HB34GVQCwTdsCJ86DBzwtRQJrdncDJ
5p7BZ2JEQML5ScB9jp3Bz2TtQHlyDUFisbXBcRnDQDFWHUG8T7vBl8HiQC21J0HhfrDB4OZ0QKcz
GUHue6PBfKOfQEWXLkEl3qXBq/Z/QEk4JEEAr7DBNZm2QJyJAkHfCG7BGz7AQA04B0EV/YTBBWSK
QLycBkHV8X/BFx8VQQNTnD/JUELB2QQbQamisj8ETl7Bo4YDQS2vCkDbRFPBmK0LQd5EQsCy5zTB
RZgNQUyQOMBHelHBiRsfQc4M979ZjUDBUsOMQCMJTEDKravBqNJOQH0EEkDMgqPBnDjnQDi8/EBE
paPBn+vZQIG4F0EQwJ3BMgR7QNJcokAv+ZzB/hI8QKBRd0BF1ZXBuViZQONcnsCmNI/BowlzQHzU
10AJuI3B/r+lQFs2AUEVSq/BXWe7QHIbZkAP6JzBk6mRQCMtwUDoJnfB1qqLQAITAMAvvI/B7ZmL
QBPktz+3jpHBQFmUQMbeBUG5PZjBm/J0QGCLkUDAJIfBrByrQBo+iUD9cYvB9XLfQCFvuEA8YIbB

>  <OMEGA_E>  (17) 
+JeQPg==

>  <OMEGA_NBR>  (17) 
      5425

$$$$
50220579
     RDKit          3D

 94 96  0  0  1  0  0  0  0  0999 V2000
    6.3376   -1.2833  -21.4660 C   0  0  0  0  0  0  0  0  0  0  0  0
    0.6413   -4.8792  -15.5710 C   0  0  0  0  0  0  0  0  0  0  0  0
    7.1145   -0.1485  -21.1594 C   0  0  0  0  0  0  0  0  0  0  0  0
    4.9324   -1.1890  -21.4985 C   0  0  0  0  0  0  0  0  0  0  0  0
    0.7332   -3.6899  -16.3212 C   0  0  0  0  0  0  0  0  0  0  0  0
    1.6768   -5.8336  -15.6290 C   0  0  0  0  0  0  0  0  0  0  0  0
    6.4864    1.0811  -20.8852 C   0  0  0  0  0  0  0  0  0  0  0  0
    4.3015    0.0349  -21.2107 C   0  0  0  0  0  0  0  0  0  0  0  0
    1.8565   -3.4581  -17.1367 C   0  0  0  0  0  0  0  0  0  0  0  0
    2.8033   -5.6025  -16.4415 C   0  0  0  0  0  0  0  0  0  0  0  0
    5.9210   -0.3548  -17.0222 C   0  0  0  0  0  0  0  0  0  0  0  0
    6.9762   -1.4389  -15.1170 C   0  0  0  0  0  0  0  0  0  0  0  0
    7.2702    0.9420  -15.4606 C   0  0  0  0  0  0  0  0  0  0  0  0
    6.2186   -1.5243  -16.2978 C   0  0  0  0  0  0  0  0  0  0  0  0
    6.4383    0.8849  -16.5958 C   0  0  0  0  0  0  0  0  0  0  0  0
    5.0739    1.1718  -20.8929 C   0  0  0  0  0  0  0  0  0  0  0  0
    2.8930   -4.4182  -17.2044 C   0  0  0  0  0  0  0  0  0  0  0  0
    7.5606   -0.2208  -14.7095 C   0  0  0  0  0  0  0  0  0  0  0  0
    5.7687   -2.8406  -16.7741 C   0  0  0  0  0  0  0  0  0  0  0  0
    6.1773    2.1011  -17.3777 C   0  0  0  0  0  0  0  0  0  0  0  0
    5.6986    6.7236  -18.6601 C   0  0  0  0  0  0  0  0  0  0  0  0
    6.1169    6.2593  -15.6027 C   0  0  0  0  0  0  0  0  0  0  0  0
    3.7289   -4.1013  -19.5622 C   0  0  0  0  0  0  0  0  0  0  0  0
    4.4059    9.7380  -21.3342 C   0  0  0  0  0  0  0  0  0  0  0  0
    6.6115    9.6678  -22.5436 C   0  0  0  0  0  0  0  0  0  0  0  0
    8.6352    1.1956  -12.9409 C   0  0  0  0  0  0  0  0  0  0  0  0
    7.8616   -2.0411  -11.5444 C   0  0  0  0  0  0  0  0  0  0  0  0
    4.3718    2.4805  -20.5716 C   0  0  0  0  0  0  0  0  0  0  0  0
    4.8723    6.8799  -16.2738 C   0  0  0  0  0  0  0  0  0  0  0  0
    6.2678    8.1597  -20.5942 C   0  0  0  0  0  0  0  0  0  0  0  0
    3.9617    4.2202  -18.8251 C   0  0  0  0  0  0  0  0  0  0  0  0
    4.1057   -4.1777  -18.0789 C   0  0  1  0  0  0  0  0  0  0  0  0
    4.5967    6.3039  -17.6753 C   0  0  2  0  0  0  0  0  0  0  0  0
    5.9307    9.5456  -21.1684 C   0  0  0  0  0  0  0  0  0  0  0  0
    4.9289    3.1365  -19.2973 C   0  0  1  0  0  0  0  0  0  0  0  0
    4.7276   -2.9160  -17.6822 N   0  0  0  0  0  0  0  0  0  0  0  0
    5.0993    2.1217  -18.2509 N   0  0  0  0  0  0  0  0  0  0  0  0
    5.5185    7.8952  -19.3689 N   0  0  0  0  0  0  0  0  0  0  0  0
    8.4000   -0.1381  -13.5724 N   0  0  0  0  0  0  0  0  0  0  0  0
    4.4670    4.8392  -17.5895 N   0  0  0  0  0  0  0  0  0  0  0  0
    6.3241   -3.8597  -16.3750 O   0  0  0  0  0  0  0  0  0  0  0  0
    6.9408    3.0586  -17.2979 O   0  0  0  0  0  0  0  0  0  0  0  0
    6.6815    6.0149  -18.8585 O   0  0  0  0  0  0  0  0  0  0  0  0
   10.2683   -1.0894  -12.0144 O   0  0  0  0  0  0  0  0  0  0  0  0
    9.2460   -2.6542  -13.7084 O   0  0  0  0  0  0  0  0  0  0  0  0
    9.0873   -1.5384  -12.7638 S   0  0  0  0  0  0  0  0  0  0  0  0
    6.8199   -2.2264  -21.6763 H   0  0  0  0  0  0  0  0  0  0  0  0
   -0.2240   -5.0596  -14.9505 H   0  0  0  0  0  0  0  0  0  0  0  0
    8.1917   -0.2221  -21.1347 H   0  0  0  0  0  0  0  0  0  0  0  0
    4.3389   -2.0571  -21.7446 H   0  0  0  0  0  0  0  0  0  0  0  0
   -0.0581   -2.9567  -16.2704 H   0  0  0  0  0  0  0  0  0  0  0  0
    1.6062   -6.7425  -15.0500 H   0  0  0  0  0  0  0  0  0  0  0  0
    7.0824    1.9554  -20.6689 H   0  0  0  0  0  0  0  0  0  0  0  0
    3.2239    0.1042  -21.2331 H   0  0  0  0  0  0  0  0  0  0  0  0
    1.9272   -2.5463  -17.7113 H   0  0  0  0  0  0  0  0  0  0  0  0
    3.5990   -6.3317  -16.4811 H   0  0  0  0  0  0  0  0  0  0  0  0
    5.2979   -0.4073  -17.9027 H   0  0  0  0  0  0  0  0  0  0  0  0
    7.1137   -2.3218  -14.5104 H   0  0  0  0  0  0  0  0  0  0  0  0
    7.6931    1.8889  -15.1589 H   0  0  0  0  0  0  0  0  0  0  0  0
    6.2610    6.7089  -14.6092 H   0  0  0  0  0  0  0  0  0  0  0  0
    5.9732    5.1739  -15.4965 H   0  0  0  0  0  0  0  0  0  0  0  0
    7.0034    6.4527  -16.2246 H   0  0  0  0  0  0  0  0  0  0  0  0
    4.6339   -3.9263  -20.1624 H   0  0  0  0  0  0  0  0  0  0  0  0
    3.2617   -5.0481  -19.8709 H   0  0  0  0  0  0  0  0  0  0  0  0
    3.0200   -3.2747  -19.7182 H   0  0  0  0  0  0  0  0  0  0  0  0
    3.9160    9.6513  -20.3532 H   0  0  0  0  0  0  0  0  0  0  0  0
    4.2059   10.7336  -21.7570 H   0  0  0  0  0  0  0  0  0  0  0  0
    4.0105    8.9661  -22.0109 H   0  0  0  0  0  0  0  0  0  0  0  0
    7.6970    9.5314  -22.4293 H   0  0  0  0  0  0  0  0  0  0  0  0
    6.2142    8.8960  -23.2192 H   0  0  0  0  0  0  0  0  0  0  0  0
    6.4096   10.6635  -22.9653 H   0  0  0  0  0  0  0  0  0  0  0  0
    9.3054    1.0795  -12.0764 H   0  0  0  0  0  0  0  0  0  0  0  0
    9.0974    1.8723  -13.6747 H   0  0  0  0  0  0  0  0  0  0  0  0
    7.6757    1.6173  -12.6068 H   0  0  0  0  0  0  0  0  0  0  0  0
    8.2290   -2.9209  -10.9957 H   0  0  0  0  0  0  0  0  0  0  0  0
    7.6867   -1.2157  -10.8386 H   0  0  0  0  0  0  0  0  0  0  0  0
    6.9199   -2.2938  -12.0538 H   0  0  0  0  0  0  0  0  0  0  0  0
    4.5075    3.1727  -21.4156 H   0  0  0  0  0  0  0  0  0  0  0  0
    3.2993    2.2821  -20.4289 H   0  0  0  0  0  0  0  0  0  0  0  0
    3.9968    6.6864  -15.6365 H   0  0  0  0  0  0  0  0  0  0  0  0
    5.0270    7.9652  -16.3646 H   0  0  0  0  0  0  0  0  0  0  0  0
    6.0160    7.3920  -21.3407 H   0  0  0  0  0  0  0  0  0  0  0  0
    7.3442    8.1162  -20.3722 H   0  0  0  0  0  0  0  0  0  0  0  0
    3.8665    4.9893  -19.6057 H   0  0  0  0  0  0  0  0  0  0  0  0
    2.9767    3.7705  -18.6312 H   0  0  0  0  0  0  0  0  0  0  0  0
    4.8187   -5.0032  -17.9371 H   0  0  0  0  0  0  0  0  0  0  0  0
    3.6445    6.7233  -18.0325 H   0  0  0  0  0  0  0  0  0  0  0  0
    6.3234   10.3236  -20.4972 H   0  0  0  0  0  0  0  0  0  0  0  0
    5.8994    3.5989  -19.5301 H   0  0  0  0  0  0  0  0  0  0  0  0
    4.3847   -2.0678  -18.0859 H   0  0  0  0  0  0  0  0  0  0  0  0
    4.4033    1.4091  -18.1628 H   0  0  0  0  0  0  0  0  0  0  0  0
    4.8636    8.5743  -19.0372 H   0  0  0  0  0  0  0  0  0  0  0  0
    3.8360    4.6206  -16.8452 H   0  0  0  0  0  0  0  0  0  0  0  0
    5.3671    4.4532  -17.3875 H   0  0  0  0  0  0  0  0  0  0  0  0
  1  3  2  0
  1  4  1  0
  2  5  2  0
  2  6  1  0
  3  7  1  0
  4  8  2  0
  5  9  1  0
  6 10  2  0
  7 16  2  0
  8 16  1  0
  9 17  2  0
 10 17  1  0
 11 14  2  0
 11 15  1  0
 12 14  1  0
 12 18  2  0
 13 15  2  0
 13 18  1  0
 14 19  1  0
 15 20  1  0
 16 28  1  0
 17 32  1  0
 18 39  1  0
 19 36  1  0
 19 41  2  0
 20 37  1  0
 20 42  2  0
 21 33  1  0
 21 38  1  0
 21 43  2  0
 22 29  1  0
 23 32  1  0
 24 34  1  0
 25 34  1  0
 26 39  1  0
 27 46  1  0
 28 35  1  0
 29 33  1  0
 30 34  1  0
 30 38  1  0
 31 35  1  0
 31 40  1  0
 32 36  1  0
 33 40  1  0
 35 37  1  0
 39 46  1  0
 44 46  2  0
 45 46  2  0
  1 47  1  0
  2 48  1  0
  3 49  1  0
  4 50  1  0
  5 51  1  0
  6 52  1  0
  7 53  1  0
  8 54  1  0
  9 55  1  0
 10 56  1  0
 11 57  1  0
 12 58  1  0
 13 59  1  0
 22 60  1  0
 22 61  1  0
 22 62  1  0
 23 63  1  0
 23 64  1  0
 23 65  1  0
 24 66  1  0
 24 67  1  0
 24 68  1  0
 25 69  1  0
 25 70  1  0
 25 71  1  0
 26 72  1  0
 26 73  1  0
 26 74  1  0
 27 75  1  0
 27 76  1  0
 27 77  1  0
 28 78  1  0
 28 79  1  0
 29 80  1  0
 29 81  1  0
 30 82  1  0
 30 83  1  0
 31 84  1  0
 31 85  1  0
 32 86  1  6
 33 87  1  6
 34 88  1  0
 35 89  1  6
 36 90  1  0
 37 91  1  0
 38 92  1  0
 40 93  1  0
 40 94  1  0
M  CHG  1  40   1
M  END
>  <OMEGA_C>  (18) 
Sc3KQL9CpL9euqvBji0kPy4inMDNInnB36njQEoWGL5wRqnB89WdQEsxmL/5/KvBCrU7P9wnbMDd
kYLBlKLWP4WsusB9EHrB6pDPQM1iij/jFKfBu6WJQEDMDj2Ur6nBuKDtP/BQXcD3F4nB8mgzQN5H
s8A0iIPBHnm9QEKntb58LYjBOD3fQCEuuL8133HBgKXoQDcpcT+fXnfBc/7GQNAcw7/QYYLBLQbO
QAmKYj8lxITBWV2iQAP/lT/CJKfBVyY5QEZijcCaoonBZ/DxQPMkYr42WmvBC5m4QJPMNcBsMYbB
hqzFQMN3BkB7BYvB3Vq2QIwn10DxR5XB073DQFRMyEClpHnByKVuQOU9g8Bnf5zBFv2MQPfOG0GA
rKrBipHTQHyvGkFJWbTBsikKQVUKmT/YDU/BJpL7QDGiAsC9tTjBneWLQN+/HkCPkqTBv+mbQBIo
3ECrMILBb5HIQCCOAkEBwaTBw4x9QIILh0C7mZbB4WGDQGyvhcCNoZDBFBiTQIy5yUAdZ43BCci9
QNe6GEHVWKnBgbmdQDu8SEDRYJrBOUiXQGSfOsAzdY3Bwy2jQFjKB0DLAZLBoZewQGml/EBu85rB
e2YGQb1xDb5sKFnBvfGOQJ/amkA8t4zBXF/KQAMGd8ACAIPBMxveQOW/Q0AHYorBzs7VQL95wEBK
3pbB4EokQWJyi78oO0DBz+8TQe3dKcDFVVvBbGURQQ/pxL9/OEzBhTzaQON9DsAZaa3BmWZlvpjo
ocBFNW/BLhEDQWJxY771E6nBitiKQECoA8AB9a3Bicdtvec5PcDQKYLB9JjNP3/C18DazHDBZqPi
QKxL+j/nWaXBGFVOQCGA1T1b3anBHa32Pwr3IsCzsI3BMlZmQACdysA02YPBVoipQO2I0L7QOI/B
QaPjQLCYFMCKKmjBIC72QFHG8T+0inLBBFrIQJOv1kArv2nByyS/QMyQpUCg8XfB6BvgQKl8zkDx
y4HB70iUQBRIe8CtTKHBVcBQQE+KocCp957BS0hBQE2VUcDxvp3Bkp96QLhrGkFM06LBA5eGQP+8
K0FrDq7BC1aAQFh1D0FMFrDBBk72QKWAGEFEb7PBsdrGQBxWDkHowLnBqhvNQMSdKkEIubfB+eIU
QaUuij/3OEHBv44RQVWm7z/Fy1rBYJ/1QK0Czz9YtUnBy6kDQU3wOsBU7i/BYvn1QA2dm7/0ai3B
MnDdQPLMEsBD3EDBgD2QQHYNS0AiU6vBJydTQOgNEkBLbqPBAcx/QMT21UAKL3rBHt2gQKLi/kCm
6oLBI4PAQOOK7EC+uarB/gPrQP7bAUFS+qLBcnR3QBGon0B72JzBVoI+QP5PcUDEDJXBcDKaQJga
oMAsf4/BSkBpQPgk10CUQpDBkVnKQH8tJUFJ+qPBJci8QC1VZkCPPZzBJU+MQFpWBMDxr5DB++eM
QEJetD9cTZHB/6KbQDUwCUEpTJjBRoB1QN/bk0DowobBor+rQNWAjkCXGYvB

>  <OMEGA_E>  (18) 
zK38Pg==

>  <OMEGA_NBR>  (18) 
      7274

$$$$
50163097
     RDKit          3D

 80 83  0  0  1  0  0  0  0  0999 V2000
    6.9538   -1.2368  -22.4222 C   0  0  0  0  0  0  0  0  0  0  0  0
    0.3714   -5.3508  -15.4019 C   0  0  0  0  0  0  0  0  0  0  0  0
    7.4490    0.0732  -22.2888 C   0  0  0  0  0  0  0  0  0  0  0  0
    5.6331   -1.5398  -22.0333 C   0  0  0  0  0  0  0  0  0  0  0  0
    1.3806   -6.3305  -15.4801 C   0  0  0  0  0  0  0  0  0  0  0  0
    0.5284   -4.1239  -16.0763 C   0  0  0  0  0  0  0  0  0  0  0  0
    6.6213    1.0813  -21.7748 C   0  0  0  0  0  0  0  0  0  0  0  0
    4.8140   -0.5393  -21.4807 C   0  0  0  0  0  0  0  0  0  0  0  0
    2.5409   -6.0901  -16.2417 C   0  0  0  0  0  0  0  0  0  0  0  0
    1.6896   -3.8797  -16.8361 C   0  0  0  0  0  0  0  0  0  0  0  0
    6.1950   -1.0195  -17.0679 C   0  0  0  0  0  0  0  0  0  0  0  0
    7.0477   -1.9092  -14.9738 C   0  0  0  0  0  0  0  0  0  0  0  0
    7.4608    0.4187  -15.5600 C   0  0  0  0  0  0  0  0  0  0  0  0
    6.3373   -2.0960  -16.1757 C   0  0  0  0  0  0  0  0  0  0  0  0
    6.7632    0.2322  -16.7661 C   0  0  0  0  0  0  0  0  0  0  0  0
    5.3106    0.7723  -21.3461 C   0  0  0  0  0  0  0  0  0  0  0  0
    2.6989   -4.8670  -16.9285 C   0  0  0  0  0  0  0  0  0  0  0  0
    7.6013   -0.6480  -14.6549 C   0  0  0  0  0  0  0  0  0  0  0  0
    5.7350   -3.3978  -16.5068 C   0  0  0  0  0  0  0  0  0  0  0  0
    6.6003    1.3396  -17.7008 C   0  0  0  0  0  0  0  0  0  0  0  0
    4.1334    7.3503  -17.0121 C   0  0  0  0  0  0  0  0  0  0  0  0
    4.2881    5.8802  -16.6020 C   0  0  0  0  0  0  0  0  0  0  0  0
    4.8617    6.3801  -17.9333 C   0  0  0  0  0  0  0  0  0  0  0  0
    3.5724   -4.4770  -19.2622 C   0  0  0  0  0  0  0  0  0  0  0  0
    8.0035    0.8032  -12.6609 C   0  0  0  0  0  0  0  0  0  0  0  0
    8.4944   -2.7274  -11.7738 C   0  0  0  0  0  0  0  0  0  0  0  0
    4.4667    1.8386  -20.6998 C   0  0  0  0  0  0  0  0  0  0  0  0
    4.6655    4.7589  -19.7628 C   0  0  0  0  0  0  0  0  0  0  0  0
    3.9379   -4.6360  -17.7772 C   0  0  1  0  0  0  0  0  0  0  0  0
    5.2356    2.4002  -19.4870 C   0  0  1  0  0  0  0  0  0  0  0  0
    4.5233    3.5599  -18.8142 C   0  0  2  0  0  0  0  0  0  0  0  0
    4.6241   -3.4198  -17.3412 N   0  0  0  0  0  0  0  0  0  0  0  0
    5.4891    1.3406  -18.5267 N   0  0  0  0  0  0  0  0  0  0  0  0
    8.2568   -0.4384  -13.4383 N   0  0  0  0  0  0  0  0  0  0  0  0
    4.1678    6.0040  -19.1727 N   0  0  0  0  0  0  0  0  0  0  0  0
    6.2209   -4.4348  -16.0674 O   0  0  0  0  0  0  0  0  0  0  0  0
    7.4125    2.2598  -17.7209 O   0  0  0  0  0  0  0  0  0  0  0  0
   10.3302   -0.8416  -11.9616 O   0  0  0  0  0  0  0  0  0  0  0  0
    9.9320   -2.3450  -13.9741 O   0  0  0  0  0  0  0  0  0  0  0  0
    3.1495    3.2681  -18.5523 O   0  0  0  0  0  0  0  0  0  0  0  0
    9.4054   -1.5771  -12.8352 S   0  0  0  0  0  0  0  0  0  0  0  0
    7.5878   -2.0133  -22.8240 H   0  0  0  0  0  0  0  0  0  0  0  0
   -0.5220   -5.5401  -14.8254 H   0  0  0  0  0  0  0  0  0  0  0  0
    8.4632    0.3016  -22.5814 H   0  0  0  0  0  0  0  0  0  0  0  0
    5.2499   -2.5415  -22.1599 H   0  0  0  0  0  0  0  0  0  0  0  0
    1.2644   -7.2674  -14.9554 H   0  0  0  0  0  0  0  0  0  0  0  0
   -0.2420   -3.3699  -16.0108 H   0  0  0  0  0  0  0  0  0  0  0  0
    6.9859    2.0956  -21.7063 H   0  0  0  0  0  0  0  0  0  0  0  0
    3.8096   -0.7750  -21.1611 H   0  0  0  0  0  0  0  0  0  0  0  0
    3.3121   -6.8438  -16.3004 H   0  0  0  0  0  0  0  0  0  0  0  0
    1.8096   -2.9368  -17.3490 H   0  0  0  0  0  0  0  0  0  0  0  0
    5.6473   -1.1534  -17.9891 H   0  0  0  0  0  0  0  0  0  0  0  0
    7.1704   -2.7363  -14.2902 H   0  0  0  0  0  0  0  0  0  0  0  0
    7.8893    1.3826  -15.3283 H   0  0  0  0  0  0  0  0  0  0  0  0
    3.1449    7.7404  -17.2960 H   0  0  0  0  0  0  0  0  0  0  0  0
    4.6969    8.1312  -16.4805 H   0  0  0  0  0  0  0  0  0  0  0  0
    4.9641    5.6058  -15.7788 H   0  0  0  0  0  0  0  0  0  0  0  0
    3.4121    5.2150  -16.5943 H   0  0  0  0  0  0  0  0  0  0  0  0
    5.9560    6.4823  -17.9796 H   0  0  0  0  0  0  0  0  0  0  0  0
    4.4875   -4.3115  -19.8498 H   0  0  0  0  0  0  0  0  0  0  0  0
    3.0698   -5.3893  -19.6157 H   0  0  0  0  0  0  0  0  0  0  0  0
    2.8982   -3.6163  -19.3836 H   0  0  0  0  0  0  0  0  0  0  0  0
    8.6048    0.7888  -11.7399 H   0  0  0  0  0  0  0  0  0  0  0  0
    8.2819    1.6781  -13.2667 H   0  0  0  0  0  0  0  0  0  0  0  0
    6.9363    0.8616  -12.4010 H   0  0  0  0  0  0  0  0  0  0  0  0
    9.1879   -3.4763  -11.3637 H   0  0  0  0  0  0  0  0  0  0  0  0
    8.0252   -2.1715  -10.9486 H   0  0  0  0  0  0  0  0  0  0  0  0
    7.7162   -3.2331  -12.3644 H   0  0  0  0  0  0  0  0  0  0  0  0
    4.2710    2.6455  -21.4214 H   0  0  0  0  0  0  0  0  0  0  0  0
    3.5122    1.4055  -20.3663 H   0  0  0  0  0  0  0  0  0  0  0  0
    5.7291    4.8873  -20.0120 H   0  0  0  0  0  0  0  0  0  0  0  0
    4.0962    4.5516  -20.6809 H   0  0  0  0  0  0  0  0  0  0  0  0
    4.6103   -5.4999  -17.6699 H   0  0  0  0  0  0  0  0  0  0  0  0
    6.2023    2.7730  -19.8563 H   0  0  0  0  0  0  0  0  0  0  0  0
    5.0428    3.7954  -17.8736 H   0  0  0  0  0  0  0  0  0  0  0  0
    4.2689   -2.5433  -17.6663 H   0  0  0  0  0  0  0  0  0  0  0  0
    4.8378    0.5847  -18.4595 H   0  0  0  0  0  0  0  0  0  0  0  0
    3.1950    5.8922  -18.9699 H   0  0  0  0  0  0  0  0  0  0  0  0
    4.2869    6.7404  -19.8387 H   0  0  0  0  0  0  0  0  0  0  0  0
    3.0898    2.5242  -17.9644 H   0  0  0  0  0  0  0  0  0  0  0  0
  1  3  2  0
  1  4  1  0
  2  5  2  0
  2  6  1  0
  3  7  1  0
  4  8  2  0
  5  9  1  0
  6 10  2  0
  7 16  2  0
  8 16  1  0
  9 17  2  0
 10 17  1  0
 11 14  2  0
 11 15  1  0
 12 14  1  0
 12 18  2  0
 13 15  2  0
 13 18  1  0
 14 19  1  0
 15 20  1  0
 16 27  1  0
 17 29  1  0
 18 34  1  0
 19 32  1  0
 19 36  2  0
 20 33  1  0
 20 37  2  0
 21 22  1  0
 21 23  1  0
 22 23  1  0
 23 35  1  0
 24 29  1  0
 25 34  1  0
 26 41  1  0
 27 30  1  0
 28 31  1  0
 28 35  1  0
 29 32  1  0
 30 31  1  0
 30 33  1  0
 31 40  1  0
 34 41  1  0
 38 41  2  0
 39 41  2  0
  1 42  1  0
  2 43  1  0
  3 44  1  0
  4 45  1  0
  5 46  1  0
  6 47  1  0
  7 48  1  0
  8 49  1  0
  9 50  1  0
 10 51  1  0
 11 52  1  0
 12 53  1  0
 13 54  1  0
 21 55  1  0
 21 56  1  0
 22 57  1  0
 22 58  1  0
 23 59  1  0
 24 60  1  0
 24 61  1  0
 24 62  1  0
 25 63  1  0
 25 64  1  0
 25 65  1  0
 26 66  1  0
 26 67  1  0
 26 68  1  0
 27 69  1  0
 27 70  1  0
 28 71  1  0
 28 72  1  0
 29 73  1  6
 30 74  1  6
 31 75  1  1
 32 76  1  0
 33 77  1  0
 35 78  1  0
 35 79  1  0
 40 80  1  0
M  CHG  1  35   1
M  END
>  <OMEGA_C>  (19) 
IoXeQJxQnr+jYLPBsiy+Ptw5q8BHbnbBBV7uQDAAlj1zT7LBD0K0QCQXxb8pRLDB37WwP8KTysCR
rnfBvEQHP0/3g8AunIDB0eHTQLRnij+6Mq7BIAyaQIMQCr9g2KvBup4iQMHhwsAW74HBj0XYP0lM
eMBIsIbBPj3GQHyAgr8ci4jBdIbhQNph9L+nlG/Bvr7uQIZj1j7E9XjB2crKQNskBsDbZ4HBEGzY
QLS/bT74IIbBTvCpQL21RT/YxKrB2LosQIi+m8CUbYfBMT7zQH/iJb+hemrBuIS3QEt1WcDWDYTB
szXTQOx4qz8xm43By0SEQJA160C8GIjB5zeJQPYqvEDg0ITBO5ObQKApzEB+d4/BwqJkQD5Dj8Dy
GJrBeQ4AQU2bTT8Ek0rB7ugHQaWNLsCDYTzBK++OQIRY6z9ImaXBYkuVQO9ImEA3Gp7BYAZ8QBla
lMC+N47Bx4mnQCucGUBM5ZvBNL+QQM7UY0Bjg5bBS/iTQPfdWsDGuorBT6avQDGYqz+YNpTBAxwE
QQZy4L4ZA1fBX16FQCQhwECaYZnBjhHHQL3pjcAcioDBVTPtQKagEEB9xI3BdkglQR1xV7+tYj/B
UukeQR8UFsAIll/B4pFJQL4oUUAPa5TBb3wWQcDdyb/HXE3BAc/yQFzaAMCfl7bBEaAFv4ZIscDM
NG3BUWkHQVxmmj6jprTBAf+nQGyoIsCSR7HBAtmhPyKO6MBxSW/BMNh3vqmsV8AcFoDB34zfQLQd
BkBopq3BMNFzQNdoRr/YSanBLfpTQNAA28AvZ4LBc5/nP8T0O8CzyorBl7a0QOeik7+h6Y/BBXTl
QF8fL8CcpGTBCXX8QBD6sD/NQHXBTUVJQHax90AdXorBS02WQGwZAkEI2IPBQ9qeQLJis0ALdnzB
PF9aQE/hpkAbwYTBa5e+QA1vz0BK1o/BTpmPQJv3icB1zJ7BDHdEQBZ1rMDw7JzBAHw5QCVyZ8CU
EZvBHq0JQVbtST9w1jvBeoIEQYjM1j9NRFTB3PXdQDyQXD+xakbBiAETQXB7XsCU0TXBUGcAQXn6
CsCRLS/BLOv2QGzqTsB81EXB5auIQHBPKUAhX6vBKMdgQKTmsz9E7qLBC1W3QGlknECfGKDByxOD
QJ6mkUCDcqXBu4eTQCv/r8D5W43BTXnGQIl4MUC52Z7BiF6hQAHockAU/Y7BNZuIQKjFIsCFVI3B
6c6aQPiwFT8drZPBK3pMQJmMvEBTwpfBUi6JQEex10CltZ7BEb9FQDKNIUAat4/BmMv0QFjqM79w
HLDB7P2pPnxwrcCsWHfBAMD+QChKKz95rK/BGDLLQDD8kr+Pl63BpAYHPwZkhcDCnYDBVjapP3he
zcAh83jBFi/fQEQtzD/EsKzBCrmrQICgZb6mYqrBEhnbP5mFesAIYYbBKVQgQEBcxcCxQYLBNlbG
QBh6eL8d5YjBJivfQDbz7r9avm/Big7vQGTJ4D4FNHnBLJbJQMkqA8DmooHBkIHZQPj1ij7faIbB
SNa1QDlLkz+z46nBMzQtQBpMncDrPIfBhuvxQMycIL/emmrBUN62QEtVV8ALKITB7mXWQP6Dsz/T
3I3BDpnOQMzhAUFDNaLBYIm7QMqX7ED48qvB8CanQIwR50Bd2aDBb5FmQEZvk8BG35nB6R0AQZwW
Rj+nTErBQZ4GQfPrLMACeDvBnkuWQHpDCUC+XqXBQN6GQHwSoUBKXpzBdRR9QHzslcAP8I3BEOeo
QDj1LUCm0ZrBkiOLQOlmcEAbg5XBrK6TQCupW8Dt5IrBNKawQEQfyz+Kg5PBmJsDQWSY6b7wJFfB
hiKsQFzkvUAyBpvBHvvFQCw1jMB5KIDBAovzQH42DkDOYY7BCrElQWQFcr8bMkHBdPobQT9jH8B9
+l/BZTdDQF5TTEDWOJTBpV8VQRoC07/31U3ByowGQQ1Etb8eYrLByp8Tv5eos8A5im7Brk4PQUAP
gT9IobHBUHjDQMa6DMBcH67BS3psvuDTWcB0+X/BgjiWP0gA7MAWT3HBrJDmQEuaKUAIiqzBif6L
QDa0EL9+UKjBpCfuPxsOPcCeJYrBja9QQFjt3cDq4YLBezi1QGwrjL+oVZDBpGLhQIr2K8AXjmTB
pHL9QP8Osj+cW3XB7KztQCmc+UCE8p7Bo3vLQMBZE0EieKHBxcGqQFru/kAXLrLBDvPMQAHX0UB5
qK/BErOIQFQP+ECcpp/BCJyQQGoZjsCdjZ7BiYBIQJuescBkZZzBMdI5QMuaccAFOZvBBc8JQSLe
OT/RoDvBGtwEQWGu0z8kvFPB9i7eQEVhWj+cBUbB7EYRQRHDXsDoEjXBSmwAQXLHBcByNy7BfF3y
QH4uS8B69EPBCTORQCd0PUATI6vBYE5vQCZT0j+svaPBZWaEQNvYl0Ca1qTBkmVTQK5BskCO9ZnB
3KeUQLnbsMB/s4zBA4jHQMlbTUDJqZzBKJqYQBABgUBMr43BUwyIQMvtJMCC2Y3B+1GZQB2caT9K
k5LB2DvGQLQCr0BUx53BDMqvQPIpxECVO5PB0g5HQFDVGUAABJDB

>  <OMEGA_E>  (19) 
KBCBP7JWfj8=

>  <OMEGA_NBR>  (19) 
      5804

$$$$
50163091
     RDKit          3D

 73 75  0  0  1  0  0  0  0  0999 V2000
    6.8448   -1.0553  -22.2726 C   0  0  0  0  0  0  0  0  0  0  0  0
    7.3717    0.2312  -22.0566 C   0  0  0  0  0  0  0  0  0  0  0  0
    5.5183   -1.3506  -21.8986 C   0  0  0  0  0  0  0  0  0  0  0  0
    6.5729    1.2221  -21.4680 C   0  0  0  0  0  0  0  0  0  0  0  0
    4.7234   -0.3659  -21.2846 C   0  0  0  0  0  0  0  0  0  0  0  0
    1.7554   -3.6012  -16.8154 C   0  0  0  0  0  0  0  0  0  0  0  0
    2.2898   -5.9446  -16.3719 C   0  0  0  0  0  0  0  0  0  0  0  0
    0.5450   -3.7448  -16.1099 C   0  0  0  0  0  0  0  0  0  0  0  0
    1.0805   -6.0853  -15.6650 C   0  0  0  0  0  0  0  0  0  0  0  0
    6.2857   -1.0078  -17.0728 C   0  0  0  0  0  0  0  0  0  0  0  0
    7.1029   -1.9823  -14.9938 C   0  0  0  0  0  0  0  0  0  0  0  0
    7.5511    0.3566  -15.4977 C   0  0  0  0  0  0  0  0  0  0  0  0
    6.4205   -2.1222  -16.2187 C   0  0  0  0  0  0  0  0  0  0  0  0
    6.8610    0.2290  -16.7192 C   0  0  0  0  0  0  0  0  0  0  0  0
    5.2551    0.9197  -21.0569 C   0  0  0  0  0  0  0  0  0  0  0  0
    2.6336   -4.7032  -16.9499 C   0  0  0  0  0  0  0  0  0  0  0  0
    7.6353   -0.7332  -14.6008 C   0  0  0  0  0  0  0  0  0  0  0  0
    0.2054   -4.9880  -15.5391 C   0  0  0  0  0  0  0  0  0  0  0  0
    5.7965   -3.4072  -16.5764 C   0  0  0  0  0  0  0  0  0  0  0  0
    6.6665    1.4043  -17.5814 C   0  0  0  0  0  0  0  0  0  0  0  0
    3.5877   -4.4704  -19.2637 C   0  0  0  0  0  0  0  0  0  0  0  0
    9.1811    0.5350  -13.0805 C   0  0  0  0  0  0  0  0  0  0  0  0
    8.3726   -2.9190  -11.7024 C   0  0  0  0  0  0  0  0  0  0  0  0
    4.4085    1.9850  -20.4055 C   0  0  0  0  0  0  0  0  0  0  0  0
    5.1931    4.4827  -17.5216 C   0  0  0  0  0  0  0  0  0  0  0  0
    3.9085   -4.5845  -17.7667 C   0  0  1  0  0  0  0  0  0  0  0  0
    5.1685    2.6188  -19.2171 C   0  0  1  0  0  0  0  0  0  0  0  0
    4.3567    3.7712  -18.5997 C   0  0  2  0  0  0  0  0  0  0  0  0
    4.6577   -3.3912  -17.3689 N   0  0  0  0  0  0  0  0  0  0  0  0
    5.4562    1.5470  -18.2498 N   0  0  0  0  0  0  0  0  0  0  0  0
    8.1979   -0.5583  -13.3195 N   0  0  0  0  0  0  0  0  0  0  0  0
    4.6364    5.8156  -17.2082 N   0  0  0  0  0  0  0  0  0  0  0  0
    6.2538   -4.4607  -16.1446 O   0  0  0  0  0  0  0  0  0  0  0  0
    7.5277    2.2760  -17.6386 O   0  0  0  0  0  0  0  0  0  0  0  0
    6.0988   -1.6466  -12.1984 O   0  0  0  0  0  0  0  0  0  0  0  0
    7.8441   -0.5190  -10.7454 O   0  0  0  0  0  0  0  0  0  0  0  0
    4.0588    4.7058  -19.6374 O   0  0  0  0  0  0  0  0  0  0  0  0
   -0.9658   -5.1322  -14.8793 F   0  0  0  0  0  0  0  0  0  0  0  0
    7.5097   -1.3400  -11.9178 S   0  0  0  0  0  0  0  0  0  0  0  0
    7.4588   -1.8191  -22.7266 H   0  0  0  0  0  0  0  0  0  0  0  0
    8.3887    0.4550  -22.3432 H   0  0  0  0  0  0  0  0  0  0  0  0
    5.1118   -2.3339  -22.0837 H   0  0  0  0  0  0  0  0  0  0  0  0
    6.9656    2.2185  -21.3286 H   0  0  0  0  0  0  0  0  0  0  0  0
    3.7100   -0.5938  -20.9889 H   0  0  0  0  0  0  0  0  0  0  0  0
    2.0140   -2.6489  -17.2544 H   0  0  0  0  0  0  0  0  0  0  0  0
    2.9563   -6.7885  -16.4723 H   0  0  0  0  0  0  0  0  0  0  0  0
   -0.1229   -2.9025  -16.0063 H   0  0  0  0  0  0  0  0  0  0  0  0
    0.8233   -7.0347  -15.2190 H   0  0  0  0  0  0  0  0  0  0  0  0
    5.7403   -1.1026  -18.0001 H   0  0  0  0  0  0  0  0  0  0  0  0
    7.2206   -2.8396  -14.3477 H   0  0  0  0  0  0  0  0  0  0  0  0
    8.0202    1.2957  -15.2439 H   0  0  0  0  0  0  0  0  0  0  0  0
    4.5243   -4.3857  -19.8345 H   0  0  0  0  0  0  0  0  0  0  0  0
    3.0392   -5.3662  -19.5904 H   0  0  0  0  0  0  0  0  0  0  0  0
    2.9696   -3.5776  -19.4391 H   0  0  0  0  0  0  0  0  0  0  0  0
    9.5059    0.5135  -12.0298 H   0  0  0  0  0  0  0  0  0  0  0  0
   10.0527    0.3939  -13.7365 H   0  0  0  0  0  0  0  0  0  0  0  0
    8.7109    1.5051  -13.2991 H   0  0  0  0  0  0  0  0  0  0  0  0
    7.9653   -3.4434  -10.8254 H   0  0  0  0  0  0  0  0  0  0  0  0
    8.2302   -3.5398  -12.5993 H   0  0  0  0  0  0  0  0  0  0  0  0
    9.4462   -2.7326  -11.5522 H   0  0  0  0  0  0  0  0  0  0  0  0
    4.1743    2.7653  -21.1446 H   0  0  0  0  0  0  0  0  0  0  0  0
    3.4742    1.5337  -20.0402 H   0  0  0  0  0  0  0  0  0  0  0  0
    5.1960    3.8708  -16.6076 H   0  0  0  0  0  0  0  0  0  0  0  0
    6.2239    4.6010  -17.8870 H   0  0  0  0  0  0  0  0  0  0  0  0
    4.5238   -5.4815  -17.6032 H   0  0  0  0  0  0  0  0  0  0  0  0
    6.1170    3.0282  -19.5949 H   0  0  0  0  0  0  0  0  0  0  0  0
    3.4362    3.3727  -18.1482 H   0  0  0  0  0  0  0  0  0  0  0  0
    4.3260   -2.5042  -17.6903 H   0  0  0  0  0  0  0  0  0  0  0  0
    4.7355    0.8797  -18.0618 H   0  0  0  0  0  0  0  0  0  0  0  0
    5.1974    6.2551  -16.5067 H   0  0  0  0  0  0  0  0  0  0  0  0
    4.6347    6.3787  -18.0346 H   0  0  0  0  0  0  0  0  0  0  0  0
    3.7002    5.7149  -16.8715 H   0  0  0  0  0  0  0  0  0  0  0  0
    3.5419    4.2784  -20.3103 H   0  0  0  0  0  0  0  0  0  0  0  0
  1  2  2  0
  1  3  1  0
  2  4  1  0
  3  5  2  0
  4 15  2  0
  5 15  1  0
  6  8  2  0
  6 16  1  0
  7  9  1  0
  7 16  2  0
  8 18  1  0
  9 18  2  0
 10 13  2  0
 10 14  1  0
 11 13  1  0
 11 17  2  0
 12 14  2  0
 12 17  1  0
 13 19  1  0
 14 20  1  0
 15 24  1  0
 16 26  1  0
 17 31  1  0
 18 38  1  0
 19 29  1  0
 19 33  2  0
 20 30  1  0
 20 34  2  0
 21 26  1  0
 22 31  1  0
 23 39  1  0
 24 27  1  0
 25 28  1  0
 25 32  1  0
 26 29  1  0
 27 28  1  0
 27 30  1  0
 28 37  1  0
 31 39  1  0
 35 39  2  0
 36 39  2  0
  1 40  1  0
  2 41  1  0
  3 42  1  0
  4 43  1  0
  5 44  1  0
  6 45  1  0
  7 46  1  0
  8 47  1  0
  9 48  1  0
 10 49  1  0
 11 50  1  0
 12 51  1  0
 21 52  1  0
 21 53  1  0
 21 54  1  0
 22 55  1  0
 22 56  1  0
 22 57  1  0
 23 58  1  0
 23 59  1  0
 23 60  1  0
 24 61  1  0
 24 62  1  0
 25 63  1  0
 25 64  1  0
 26 65  1  6
 27 66  1  6
 28 67  1  1
 29 68  1  0
 30 69  1  0
 32 70  1  0
 32 71  1  0
 32 72  1  0
 37 73  1  0
M  CHG  1  32   1
M  END
>  <OMEGA_C>  (20) 
AAnbQB8Uh79hLrLBMeXrQMDBbD7gc7DBKZawQOLfrL9rMK/BWFXSQHNunD+JvqvBViaXQNdTu77z
RqrB3LHgP4V5ZsABhobBKYwSQFg6vsCm+YLBUoYLPyyrb8An4YDB3EyKP5q6wsD8o3rBxCTJQMj+
gL8RlYjBNkvjQAK7/b/N5m/BcqLxQKaStj5s9nfB9HTNQJDRB8D1v4HBMI3bQGuAaj7XwIXBaCmo
QIRyaz+XdKjBc4woQLyAlsBdmYfBHFT0QOKzO78MnWnBiFpSPhien8BSoHjBlny5QKUPWsCGnITB
WVTVQOG+sz/EpozBrZ1lQIgNj8AbHJrByeUSQbTyCD/ESVHB+fUFQbfROsApPTvBcxKNQFwV/j+E
PqPBwy2mQGdyj0BVLIzBjyR6QDC0ksAjIo7BpmSlQD+aJ0CVvJnB1GmLQCFccUAmzJTBiguVQB4J
WcCN84rB1JiuQHcFxj+u/5HBfioDQdLpDr+4HFXBrl2UQEgZukBgqonB6R7IQGG+jsAhKIHBw+Lw
QI2qEUDFG43BTCnDQIjE0r/ULEPBtgL7QJrbBL8i7SvBW+GBQAGWlkBqGZ3BSjx3v5g6pMCqEW7B
ak/wQKuDq79Irz7Bja7uQObY6L/+z7XB8jcGQWb26D7uvrLBM5SjQLBeFcBoq7DBgubeQJ/7DUAJ
oarBBHFtQPsBGL9D6afBNOUAQJuHKcAdCYrBzTM9QFs72cBCx4PBO7v7vWvCOcDjDIDBH8NSP/ob
4cAjgXPBXbC3QIAjjb8qAJDBRw/nQLe7NcD+j2XB4VIAQa3YpT/n5nPBz8aQQGFXjMD+rJ7BcoJC
QLe3q8ASuZzBIQ0+QK/3ZMBXg5vBBBgYQUBzAz/peUDBA9ggQbWpyT7FyFvB2F8LQWimwD/9yFTB
6OP+QC1gXMCvNC3B/q4DQUKMYsDLlknBfyMXQYDiLsCt1TjBfZOFQBL7MEAwKKnB+1leQARRxD9G
UqDBbUWmQFK7d0BG3ITBEyrHQD87k0CGGI/B58KQQKxor8BT04zBtL7DQKTOQUBDwpzBLepbQFHa
V0CCL5HB+G6KQJxEIMC0hY3BG4mXQCs3YT+ZfpDBXFGmQHspyEClDYTBdE+UQGkezEDHRpDBo9Bs
QJvgtkC8+IbBBq9iQA/piEBze6LB

>  <OMEGA_E>  (20) 
sGp1Pw==

>  <OMEGA_NBR>  (20) 
      8942

$$$$
50163079
     RDKit          3D

 79 81  0  0  1  0  0  0  0  0999 V2000
    6.5404   -1.5221  -22.2927 C   0  0  0  0  0  0  0  0  0  0  0  0
    7.2351   -0.3126  -22.1009 C   0  0  0  0  0  0  0  0  0  0  0  0
    5.1724   -1.6145  -21.9675 C   0  0  0  0  0  0  0  0  0  0  0  0
    6.5596    0.8070  -21.5910 C   0  0  0  0  0  0  0  0  0  0  0  0
    4.4996   -0.5020  -21.4351 C   0  0  0  0  0  0  0  0  0  0  0  0
    1.7423   -3.8369  -16.7573 C   0  0  0  0  0  0  0  0  0  0  0  0
    2.4708   -6.1437  -16.4082 C   0  0  0  0  0  0  0  0  0  0  0  0
    0.5983   -4.0802  -15.9729 C   0  0  0  0  0  0  0  0  0  0  0  0
    1.3266   -6.3847  -15.6238 C   0  0  0  0  0  0  0  0  0  0  0  0
    6.2678   -1.0608  -17.1508 C   0  0  0  0  0  0  0  0  0  0  0  0
    7.0316   -1.9648  -15.0277 C   0  0  0  0  0  0  0  0  0  0  0  0
    7.4961    0.3560  -15.5927 C   0  0  0  0  0  0  0  0  0  0  0  0
    6.3733   -2.1428  -16.2606 C   0  0  0  0  0  0  0  0  0  0  0  0
    6.8391    0.1826  -16.8217 C   0  0  0  0  0  0  0  0  0  0  0  0
    5.1931    0.7083  -21.2415 C   0  0  0  0  0  0  0  0  0  0  0  0
    2.6869   -4.8683  -16.9739 C   0  0  0  0  0  0  0  0  0  0  0  0
    7.5614   -0.7025  -14.6644 C   0  0  0  0  0  0  0  0  0  0  0  0
    0.3911   -5.3534  -15.4053 C   0  0  0  0  0  0  0  0  0  0  0  0
    5.7529   -3.4322  -16.6041 C   0  0  0  0  0  0  0  0  0  0  0  0
    6.6741    1.3149  -17.7255 C   0  0  0  0  0  0  0  0  0  0  0  0
    4.5002    6.8025  -16.8615 C   0  0  0  0  0  0  0  0  0  0  0  0
    3.5043   -4.4405  -19.3139 C   0  0  0  0  0  0  0  0  0  0  0  0
    9.0576    0.6385  -13.1530 C   0  0  0  0  0  0  0  0  0  0  0  0
    8.2201   -2.7986  -11.7227 C   0  0  0  0  0  0  0  0  0  0  0  0
    4.4720    1.8920  -20.6512 C   0  0  0  0  0  0  0  0  0  0  0  0
    5.0538    6.4968  -18.2502 C   0  0  0  0  0  0  0  0  0  0  0  0
    4.3527    4.6881  -19.7290 C   0  0  0  0  0  0  0  0  0  0  0  0
    3.9084   -4.6308  -17.8443 C   0  0  1  0  0  0  0  0  0  0  0  0
    5.2606    2.4348  -19.4404 C   0  0  1  0  0  0  0  0  0  0  0  0
    4.5258    3.5551  -18.7154 C   0  0  2  0  0  0  0  0  0  0  0  0
    4.6194   -3.4278  -17.4070 N   0  0  0  0  0  0  0  0  0  0  0  0
    5.5399    1.3517  -18.5131 N   0  0  0  0  0  0  0  0  0  0  0  0
    8.0940   -0.4764  -13.3807 N   0  0  0  0  0  0  0  0  0  0  0  0
    3.9678    5.9240  -19.0591 N   0  0  0  0  0  0  0  0  0  0  0  0
    6.2248   -4.4803  -16.1761 O   0  0  0  0  0  0  0  0  0  0  0  0
    7.4882    2.2333  -17.7333 O   0  0  0  0  0  0  0  0  0  0  0  0
    5.9663   -1.5090  -12.2799 O   0  0  0  0  0  0  0  0  0  0  0  0
    7.7031   -0.3766  -10.8186 O   0  0  0  0  0  0  0  0  0  0  0  0
    3.2529    3.1335  -18.2226 O   0  0  0  0  0  0  0  0  0  0  0  0
   -0.7062   -5.5857  -14.6503 F   0  0  0  0  0  0  0  0  0  0  0  0
    7.3763   -1.2162  -11.9796 S   0  0  0  0  0  0  0  0  0  0  0  0
    7.0580   -2.3824  -22.6907 H   0  0  0  0  0  0  0  0  0  0  0  0
    8.2849   -0.2465  -22.3456 H   0  0  0  0  0  0  0  0  0  0  0  0
    4.6410   -2.5410  -22.1274 H   0  0  0  0  0  0  0  0  0  0  0  0
    7.0832    1.7433  -21.4655 H   0  0  0  0  0  0  0  0  0  0  0  0
    3.4538   -0.5746  -21.1752 H   0  0  0  0  0  0  0  0  0  0  0  0
    1.8990   -2.8618  -17.1942 H   0  0  0  0  0  0  0  0  0  0  0  0
    3.1846   -6.9363  -16.5776 H   0  0  0  0  0  0  0  0  0  0  0  0
   -0.1201   -3.2912  -15.8064 H   0  0  0  0  0  0  0  0  0  0  0  0
    1.1657   -7.3603  -15.1893 H   0  0  0  0  0  0  0  0  0  0  0  0
    5.7474   -1.1836  -18.0892 H   0  0  0  0  0  0  0  0  0  0  0  0
    7.1334   -2.8009  -14.3516 H   0  0  0  0  0  0  0  0  0  0  0  0
    7.9537    1.3056  -15.3576 H   0  0  0  0  0  0  0  0  0  0  0  0
    5.2958    7.2331  -16.2356 H   0  0  0  0  0  0  0  0  0  0  0  0
    3.6719    7.5212  -16.9472 H   0  0  0  0  0  0  0  0  0  0  0  0
    4.1335    5.8736  -16.4004 H   0  0  0  0  0  0  0  0  0  0  0  0
    4.4042   -4.2704  -19.9232 H   0  0  0  0  0  0  0  0  0  0  0  0
    2.9849   -5.3421  -19.6710 H   0  0  0  0  0  0  0  0  0  0  0  0
    2.8338   -3.5728  -19.4003 H   0  0  0  0  0  0  0  0  0  0  0  0
    9.3583    0.6537  -12.0949 H   0  0  0  0  0  0  0  0  0  0  0  0
    9.9460    0.4899  -13.7843 H   0  0  0  0  0  0  0  0  0  0  0  0
    8.5796    1.5948  -13.4119 H   0  0  0  0  0  0  0  0  0  0  0  0
    7.7952   -3.3025  -10.8421 H   0  0  0  0  0  0  0  0  0  0  0  0
    8.0845   -3.4345  -12.6100 H   0  0  0  0  0  0  0  0  0  0  0  0
    9.2932   -2.6196  -11.5605 H   0  0  0  0  0  0  0  0  0  0  0  0
    4.3821    2.6814  -21.4120 H   0  0  0  0  0  0  0  0  0  0  0  0
    3.4685    1.5821  -20.3240 H   0  0  0  0  0  0  0  0  0  0  0  0
    5.4188    7.4229  -18.7182 H   0  0  0  0  0  0  0  0  0  0  0  0
    5.8805    5.7753  -18.1714 H   0  0  0  0  0  0  0  0  0  0  0  0
    5.3030    4.8459  -20.2600 H   0  0  0  0  0  0  0  0  0  0  0  0
    3.5708    4.4102  -20.4512 H   0  0  0  0  0  0  0  0  0  0  0  0
    4.5749   -5.5028  -17.7709 H   0  0  0  0  0  0  0  0  0  0  0  0
    6.2131    2.8389  -19.8141 H   0  0  0  0  0  0  0  0  0  0  0  0
    5.1535    3.9142  -17.8865 H   0  0  0  0  0  0  0  0  0  0  0  0
    4.2646   -2.5422  -17.7069 H   0  0  0  0  0  0  0  0  0  0  0  0
    4.8831    0.6010  -18.4420 H   0  0  0  0  0  0  0  0  0  0  0  0
    3.1898    5.7338  -18.4603 H   0  0  0  0  0  0  0  0  0  0  0  0
    3.6992    6.5928  -19.7524 H   0  0  0  0  0  0  0  0  0  0  0  0
    3.3729    2.4306  -17.5949 H   0  0  0  0  0  0  0  0  0  0  0  0
  1  2  2  0
  1  3  1  0
  2  4  1  0
  3  5  2  0
  4 15  2  0
  5 15  1  0
  6  8  2  0
  6 16  1  0
  7  9  1  0
  7 16  2  0
  8 18  1  0
  9 18  2  0
 10 13  2  0
 10 14  1  0
 11 13  1  0
 11 17  2  0
 12 14  2  0
 12 17  1  0
 13 19  1  0
 14 20  1  0
 15 25  1  0
 16 28  1  0
 17 33  1  0
 18 40  1  0
 19 31  1  0
 19 35  2  0
 20 32  1  0
 20 36  2  0
 21 26  1  0
 22 28  1  0
 23 33  1  0
 24 41  1  0
 25 29  1  0
 26 34  1  0
 27 30  1  0
 27 34  1  0
 28 31  1  0
 29 30  1  0
 29 32  1  0
 30 39  1  0
 33 41  1  0
 37 41  2  0
 38 41  2  0
  1 42  1  0
  2 43  1  0
  3 44  1  0
  4 45  1  0
  5 46  1  0
  6 47  1  0
  7 48  1  0
  8 49  1  0
  9 50  1  0
 10 51  1  0
 11 52  1  0
 12 53  1  0
 21 54  1  0
 21 55  1  0
 21 56  1  0
 22 57  1  0
 22 58  1  0
 22 59  1  0
 23 60  1  0
 23 61  1  0
 23 62  1  0
 24 63  1  0
 24 64  1  0
 24 65  1  0
 25 66  1  0
 25 67  1  0
 26 68  1  0
 26 69  1  0
 27 70  1  0
 27 71  1  0
 28 72  1  6
 29 73  1  6
 30 74  1  1
 31 75  1  0
 32 76  1  0
 34 77  1  0
 34 78  1  0
 39 79  1  0
M  CHG  1  34   1
M  END
>  <OMEGA_C>  (21) 
HEvRQDnTwr+KV7LBlYXnQAAIoL6yzrDBdISlQAWnzr9ava/BiujRQKWaTj9JuqzBbPyPQEyAAL8m
e6vBlwLfPzyQdcDyDobB1CAeQJSZxMAWRIPBJSsZP/GQgsAhkX/B9sypP8hPzMAK+3nBjpHIQKDJ
h7/cNInBrgLhQGd/+79UcXDB69/vQE9Itj7Ie3nBJfLLQAgjCcCeFYLBFNraQD4AOz7vkobB4y2m
QKtRNT+q7qnBdvUrQDDJm8CdyofBK/fxQFrVM78uoWrB3D/IPglPq8D/e3bB0Re4QKCpW8BD1YTB
fJLVQApQqD/fzY3B7wGQQFOu2UBJ5IbB0EVgQL4YjsDzgprBEOwQQaB3Iz+CclLBhoUDQbYbM8Bh
kDvBVRqPQNws8j+PNaXBILmhQJ/lz0BTAJLB+EiLQLEElkDr1J3BqSN6QJwvlMAJwY7BOleoQPTT
G0D/hZvBStOQQB6GY0AduZXB7tGTQIhgW8CNQYvB90axQJ4ErT/UGpTBK4EBQfjt874sF1bB8/B9
QLKRvUD7eJjBvTHHQM9ej8CgaIHBH5/vQC7vDkDb3Y3Bteu+QBkowb9tekTBCYD2QKzVwL4wGS3B
9C9QQKSKSEDlx5HBmsc0v+a9ssCqZ2rBygrsQCWrm7+RrD/BL9vhQMl4GMCYhrXB+Y4EQXllfL65
w7LBy4KUQO2eIsACBbHB56niQGAj3z9quavBeQtdQBAcE7/fZqnB8hLzP0knN8DDjYnBDdFLQO71
3cDsnoTBGwb2vQijUsAM53zBWTWVP8mH68CFB3PBV+q3QCCAl7+atpDBt0TkQFRBM8AgoGXB94T+
QNAdpz/luHXBNnepQNB150CY4oHBDwBrQKCt8EDOk4fBxkWEQIH0u0D7M4PBQO+MQG+niMCsYp/B
Uwk/QH/yqsAeXp3BuFw1QCWoZMDPM5vBZrsVQYpbJz/ghEHB+yIfQRbT+j6ejFzB+UUJQeUhzD9Q
l1bBqHL5QI9cU8BHeS3BA1oBQYHPW8BlwknBILEUQd2nJ8Cj9zjBRTqMQGqbK0CxS6vBy/tdQJWD
yj+Hl6LB82atQG6I7UDwvpXBsSy8QE/PuEAdX5HB+LGpQLMRm0BzFKLBqIhkQHEgjUD1m6PBlGWS
QD0XsMC7Ko7BktHGQC6wNUAwg57Bl+mkQHOBekCYF4/BYXeIQBC0IsDOp43BlkKcQCHaGT82iZPB
8iVMQKx7t0C1rpPBN8BsQN330kDcBJ7B8NxXQD6OG0BQwozBZ+TUQMT5uL96LLLB50LsQM1gjr5R
0K/BG8qoQOWuwb8k5a/B2mHXQGg0VD+6UavBbfiTQCud1L52O6vBFsPbP/DWa8C0j4XBB40YQAGd
wMCVToPBQowRP0/eesCwn37B6iGeP1ENyMCbHHrB2hXIQKg1dr8hkojB6n7hQM+4+b8n32/BBdPw
QF3NxD7yxXfBkMfLQCoKBcAIwIHBSfvaQOTmiD5nuIXB/jKrQLiHQT/n96jB34soQCeBl8BbjIfB
8QfzQA7+Nb+peWnBvzmoPih6psAdGXbBk4m3QIDTVsCrsYTBfGzWQEfBtz/r0IzBzvORQCi3t0BL
c3PBwdJcQBBCicCCP5rB2LoSQaARBD+WDFHBeUQFQVCxPcA6JDzBRsCTQHxT+j/v0aTBrtKkQN0i
0EB8R4PBT5+qQIiukEBhyY7BXtN2QLtCkMCQiI7Ba1yrQHvDJUBWUJvBGiKRQIXKcUD8QpfByfaS
QEW1VMAV+4rBIZ2xQBeHxz/3ApPBcKwCQUxvDr8p/FTBy+GXQIyDu0B8R43BLCrGQHtkjcCKZoHB
eEbyQA0uE0AY/YzBlUTCQI8K0b+S2ELBK8b7QMhKFb97qSvByPWIQOyClUD885/B1JdFvxilrcD3
C2rBFcfvQEp7rr9mqz7BIdrkQIG3EsCov7XBohQHQVQocb6jdbHBmgOXQKlBGsDLvLHBIALpQO4B
3j/EqKnBMIBkQOYv8L5/Y6nBsvnyP7P1LMCo14jBR81EQH1s2sCZ3ITBLz4Dvs57R8CfknvBzlqG
P/SA58BwmHPBDLa2QLkvhr/oAZDB3MzkQLryM8DpkGXBugAAQejKqD/PlnPBksmbQMZcx0CpeGTB
V6ZdQIW7t0BalHTB0LadQEaKlkCtm3PBnDqLQNAYhMBSIp/BHGE6QNqdpcD8L53ByvkyQFEWWsAs
0ZrBi/oXQUPH9D7OQkDBVpggQTkcuz54nlvBq3oLQQiPvz9vXVTBvbr9QN0tYMCXMi7BLIQCQV7A
Y8CqsErBSIsWQeZRM8DiATrBnf2QQGu7LEA7RavBiSxnQJgL0z+YOKLBqA6ZQDlP8UBmL4PBTfLH
QPsd0EAPs4LBiGWpQNHDfUBnM4fB1xjMQOnNk0C8ZJHBjzmQQD6WrMBlEI7BFq3KQP8ePUBFE57B
Ev9lQPxxWkAMxpPBYO6HQBNrG8C6PY3BdeGZQAYaaD+WwZHBKwJwQKi4uEC/TY3BagmhQB0YzkCQ
YJPBzApyQEsUh0BZU6XB

>  <OMEGA_E>  (21) 
MM5ZP64Ncz8=

>  <OMEGA_NBR>  (21) 
     11747

$$$$
