50216833
     RDKit          3D

 70 72  0  0  1  0  0  0  0  0999 V2000
    7.8805    8.6413  -19.5065 C   0  0  0  0  0  0  0  0  0  0  0  0
    4.8371   -0.8002  -20.0454 C   0  0  0  0  0  0  0  0  0  0  0  0
    6.2175    0.7064  -21.3776 C   0  0  0  0  0  0  0  0  0  0  0  0
    5.5206    8.2756  -19.1480 C   0  0  0  0  0  0  0  0  0  0  0  0
    8.1202    8.0898  -18.2313 C   0  0  0  0  0  0  0  0  0  0  0  0
    6.5532    8.7476  -19.9869 C   0  0  0  0  0  0  0  0  0  0  0  0
    5.1016    0.4922  -20.5415 C   0  0  0  0  0  0  0  0  0  0  0  0
    6.8128   -1.6525  -21.2012 C   0  0  0  0  0  0  0  0  0  0  0  0
    5.6992   -1.8763  -20.3693 C   0  0  0  0  0  0  0  0  0  0  0  0
    7.0705   -0.3636  -21.7071 C   0  0  0  0  0  0  0  0  0  0  0  0
    5.8292    7.7460  -17.8768 C   0  0  0  0  0  0  0  0  0  0  0  0
    5.5509    1.8111  -17.9252 C   0  0  0  0  0  0  0  0  0  0  0  0
    5.5305    4.3026  -16.5710 C   0  0  0  0  0  0  0  0  0  0  0  0
    5.0473    2.6049  -19.1602 C   0  0  2  0  0  0  0  0  0  0  0  0
    4.9767    4.8724  -17.8970 C   0  0  1  0  0  0  0  0  0  0  0  0
    4.1719    3.8168  -18.7094 C   0  0  1  0  0  0  0  0  0  0  0  0
    7.4529    9.9129  -22.1091 C   0  0  0  0  0  0  0  0  0  0  0  0
    5.1568   10.4368  -21.2598 C   0  0  0  0  0  0  0  0  0  0  0  0
    5.6497    8.1760  -22.2746 C   0  0  0  0  0  0  0  0  0  0  0  0
    4.2449    1.6651  -20.1018 C   0  0  0  0  0  0  0  0  0  0  0  0
    4.7124    7.2154  -17.0027 C   0  0  0  0  0  0  0  0  0  0  0  0
    5.0996   -3.3384  -18.5490 C   0  0  0  0  0  0  0  0  0  0  0  0
    6.2168    9.3113  -21.3868 C   0  0  0  0  0  0  0  0  0  0  0  0
    3.7207   -4.0542  -18.5424 C   0  0  0  0  0  0  0  0  0  0  0  0
    6.2373   -4.1248  -17.8302 C   0  0  0  0  0  0  0  0  0  0  0  0
    7.1098    7.6545  -17.4450 N   0  0  0  0  0  0  0  0  0  0  0  0
    7.6707   -2.7059  -21.5052 N   0  0  0  0  0  0  0  0  0  0  0  0
    4.0695    6.0237  -17.6179 N   0  0  0  0  0  0  0  0  0  0  0  0
    7.6849    3.3441  -17.7540 O   0  0  0  0  0  0  0  0  0  0  0  0
    6.8145    2.1987  -15.6460 O   0  0  0  0  0  0  0  0  0  0  0  0
    3.6408    4.4767  -19.8612 O   0  0  0  0  0  0  0  0  0  0  0  0
    5.4705   -3.1665  -19.9375 O   0  0  0  0  0  0  0  0  0  0  0  0
    8.1454   -0.1469  -22.4996 F   0  0  0  0  0  0  0  0  0  0  0  0
    2.7993   -3.2498  -19.1359 F   0  0  0  0  0  0  0  0  0  0  0  0
    3.3104   -4.3099  -17.2747 F   0  0  0  0  0  0  0  0  0  0  0  0
    3.7740   -5.2185  -19.2450 F   0  0  0  0  0  0  0  0  0  0  0  0
    5.9613   -4.2425  -16.5061 F   0  0  0  0  0  0  0  0  0  0  0  0
    7.4181   -3.4567  -17.9598 F   0  0  0  0  0  0  0  0  0  0  0  0
    6.3918   -5.3644  -18.3646 F   0  0  0  0  0  0  0  0  0  0  0  0
    6.5645    2.8859  -16.9189 S   0  0  0  0  0  0  0  0  0  0  0  0
    8.7060    8.9812  -20.1142 H   0  0  0  0  0  0  0  0  0  0  0  0
    3.9754   -0.9703  -19.4170 H   0  0  0  0  0  0  0  0  0  0  0  0
    6.4179    1.6941  -21.7658 H   0  0  0  0  0  0  0  0  0  0  0  0
    4.4936    8.3198  -19.4792 H   0  0  0  0  0  0  0  0  0  0  0  0
    9.1363    8.0130  -17.8735 H   0  0  0  0  0  0  0  0  0  0  0  0
    4.6907    1.4581  -17.3374 H   0  0  0  0  0  0  0  0  0  0  0  0
    6.1461    0.9482  -18.2586 H   0  0  0  0  0  0  0  0  0  0  0  0
    6.1250    5.0742  -16.0600 H   0  0  0  0  0  0  0  0  0  0  0  0
    4.6941    3.9968  -15.9254 H   0  0  0  0  0  0  0  0  0  0  0  0
    5.9193    2.9897  -19.7093 H   0  0  0  0  0  0  0  0  0  0  0  0
    5.8217    5.2157  -18.5119 H   0  0  0  0  0  0  0  0  0  0  0  0
    3.3545    3.4393  -18.0774 H   0  0  0  0  0  0  0  0  0  0  0  0
    7.1515   10.2958  -23.0953 H   0  0  0  0  0  0  0  0  0  0  0  0
    7.8649   10.7359  -21.5067 H   0  0  0  0  0  0  0  0  0  0  0  0
    8.2182    9.1332  -22.2369 H   0  0  0  0  0  0  0  0  0  0  0  0
    4.9214   10.8340  -22.2582 H   0  0  0  0  0  0  0  0  0  0  0  0
    4.2430   10.0297  -20.8024 H   0  0  0  0  0  0  0  0  0  0  0  0
    5.5542   11.2450  -20.6281 H   0  0  0  0  0  0  0  0  0  0  0  0
    5.4095    8.5745  -23.2713 H   0  0  0  0  0  0  0  0  0  0  0  0
    6.3991    7.3765  -22.3703 H   0  0  0  0  0  0  0  0  0  0  0  0
    4.7376    7.7703  -21.8125 H   0  0  0  0  0  0  0  0  0  0  0  0
    3.9232    2.2305  -20.9888 H   0  0  0  0  0  0  0  0  0  0  0  0
    3.3608    1.2869  -19.5675 H   0  0  0  0  0  0  0  0  0  0  0  0
    5.1259    6.9346  -16.0229 H   0  0  0  0  0  0  0  0  0  0  0  0
    3.9559    8.0028  -16.8695 H   0  0  0  0  0  0  0  0  0  0  0  0
    4.9895   -2.3577  -18.0631 H   0  0  0  0  0  0  0  0  0  0  0  0
    8.4032   -2.3783  -22.1020 H   0  0  0  0  0  0  0  0  0  0  0  0
    8.0656   -3.0683  -20.6610 H   0  0  0  0  0  0  0  0  0  0  0  0
    3.6589    6.3086  -18.4840 H   0  0  0  0  0  0  0  0  0  0  0  0
    3.1083    5.2140  -19.5869 H   0  0  0  0  0  0  0  0  0  0  0  0
  1  5  2  0
  1  6  1  0
  2  7  2  0
  2  9  1  0
  3  7  1  0
  3 10  2  0
  4  6  2  0
  4 11  1  0
  5 26  1  0
  6 23  1  0
  7 20  1  0
  8  9  2  0
  8 10  1  0
  8 27  1  0
  9 32  1  0
 10 33  1  0
 11 21  1  0
 11 26  2  0
 12 14  1  0
 12 40  1  0
 13 15  1  0
 13 40  1  0
 14 16  1  0
 14 20  1  0
 15 16  1  0
 15 28  1  0
 16 31  1  0
 17 23  1  0
 18 23  1  0
 19 23  1  0
 21 28  1  0
 22 24  1  0
 22 25  1  0
 22 32  1  0
 24 34  1  0
 24 35  1  0
 24 36  1  0
 25 37  1  0
 25 38  1  0
 25 39  1  0
 29 40  2  0
 30 40  2  0
  1 41  1  0
  2 42  1  0
  3 43  1  0
  4 44  1  0
  5 45  1  0
 12 46  1  0
 12 47  1  0
 13 48  1  0
 13 49  1  0
 14 50  1  6
 15 51  1  6
 16 52  1  1
 17 53  1  0
 17 54  1  0
 17 55  1  0
 18 56  1  0
 18 57  1  0
 18 58  1  0
 19 59  1  0
 19 60  1  0
 19 61  1  0
 20 62  1  0
 20 63  1  0
 21 64  1  0
 21 65  1  0
 22 66  1  0
 27 67  1  0
 27 68  1  0
 28 69  1  0
 31 70  1  0
M  END
>  <OMEGA_C>  (1) 
tyz8QKlCCkE8DZzB2MmaQN7YTL8NXaDBFPbGQNDYND9LBavBeqiwQMloBEEDL5nBRewBQaBvAUG7
2ZHB27PRQED2C0Ef5Z/BHUCjQB78+z4XVaTBygLaQCeE078cnKnB1V+2QCcp8L9U9KLBhEHiQMcm
ur4YqK3BMom6QAzf90CdA4/BKKGxQN7R5z/JZo/BuvmwQCaviUB+kYTBX4OhQES2JkAgSJnB/ECf
QKPqm0ALLY/BWICFQI5GdEDTrJXBBX7uQFGbHkGH37DBfASlQCn9JkH4E6rBMsq0QPjQAkFZMrLB
6NWHQHgg1T9t0KDBR8yWQJnk5kChBYjBlS+jQICoVcB0ZJTBHvDGQEn7FEE6GKvBih9uQK+7gcDo
VpTBGZjHQHL+g8AnpI7BlIPjQFvx9EBXj4vBDHb1QMktLcC+CqzBkTmCQB3CwEBv8YzBy+r1QBgF
VkA7CI7BjxDaQAW4DED3VXrBbgNpQMNAj0DP457B+Q2vQHKoSsD0f5/BZ1MCQVhlFr5A/7PBVCcz
QCP8T8A/FpnBrt1TQLfqicCvMorB1YhxQP/9psC79ZnBxsK+QMrCh8BmDITB1GDtQEM7XcCwrY/B
RonMQIWpq8DG6pLBdBDSQNeyOED8WYfByEsLQf2yD0Hb6aDBPm1+QINneL8WVpvBYV/NQDHZ2D9g
IK7BWMuPQNYdBUFs1ZvBQi4SQSs1AEHx/I7BiRqWQMajuj/9sorBhazEQF+7cj+qEZLBTQDEQBlg
okDteoDBDjaWQODKf0BJzn7B32q9QNlXP0CgrJ3BbEu6QBHnpkBOGJTBkbBWQHgdXECXnpDBZNnk
QMa7JEE8w7jBb637QCDGK0GoDazBrn0DQYQhEkE25bHBQnydQOhXLUHBELLBR8aHQJB5IEFja6bB
4LuxQHLrM0FsBqXBhBqtQCIxCUG0K7rBTcXMQEIM7EBf9rLBmJqXQCOm+ED/f67BcxV7QErBDkD4
6KfBSRdXQF64pD9OipzBxgekQA/o3UDcLoDBGC59QFoLAEGp9IbBU6qfQC7lFsApgZDBYHMGQcw2
GMDq0LDBrQwBQSJfRMDJSaXBwStqQBbgyUBT35PB+u1GQOHYpkAKspzBJdj7QGGdCkGnCZzBQqOa
QPiATb8za6DB8jnHQG8gNT+/7qrBRGiwQB1nBEE1OpnBAMcBQZXYAUF205HBa2PRQNYbDEHF6Z/B
4VejQJGj+z6ZTaTBag/aQKao07/slqnB1C22QE1k8L8eBaPB5oTiQDWrub5gka3BMVG6QHsB+ECT
C4/BF9ixQJGd5z9RXY/BExaxQKq2iUBdjYTBbruhQLiKJkA4QJnBXGyfQPvgm0CvLI/Ba72FQDcj
dEDQq5XBn/3tQGXpHkFe3rDBJmKkQE7/JkHcGKrByLm0QCbhAkF5N7LBQPeHQHDc1D8BxKDBZKWW
QM/d5kADD4jBK4ekQJG9VcDJZpTBFZDGQNkcFUEfHKvB2zxyQGr8gsDq5ZPBJmnKQC/LgsA86I7B
P0bjQHN99UCEjovBL3z1QFJOLcDvAqzBXUOCQOykwED6+YzBCST2QCLvVUCt9Y3BxRfaQCLNDEAY
NnrBE7ZpQFkhj0Bf6J7BpGeuQCCrSsB2oJ/BP4wCQbqbE76c17PBXegzQOjOUsBz+5fBoH5dQDbn
jMDqp4nBIbl0QMlup8D+25nBmKzNQAapq8C8hJLB1qPEQJhJg8D3I4TB3gzwQJrLXMA4/JDBiTTS
QH2wOEAkTYfByhsLQQArEEHd4aDBatB9QA56eb/rcpvBn8TNQCQq2T82/q3BbZGPQJzvBEEP6JvB
NgcSQfTFAEEt8I7B80+WQK5Juj+Aq4rBX/DEQHGHcj+uBpLBFhbEQBJvokC1d4DBX0qWQBjsf0AV
yX7BvqK9QCgNP0CDp53BYXq6QBnkpkDHFZTB+ApXQFQTXEDYoJDB3ErkQKAEJUEBwrjBTO/6QNQe
LEFQCazBClgDQciJEkHA47HBUM+cQFJXLUGQFbLBDjaHQGtfIEHzc6bB3uKwQGX2M0FuCKXBbvus
QKo5CUF3MbrBPufMQD9b7ECL+bLB756XQC6O+EBeh67Blyp7QE6jDkAm2qfBqXVXQCdlpD/ZeJzB
PuejQFXz3UCfN4DBeqN8QG3z/0BX/4bB/aigQOr0FsAkipDB8Y4GQRlGGMC3uLDBIO4AQVLhRMB7
P6XBHFhqQJWsyUAo65PBrp5HQCLBpkBCvJzBdAn9QFf7CkGb4JvBvj+bQECLbL9fZp/B8m/EQJ1K
Jz8IOqrBVHaxQGUSBUGVKZnB8DMCQRwPAkHlrZHBaqvSQCu6DEG7yJ/BeO2hQN0Dyj4TQqPByBra
QAGd178iS6nBhgS4QJF1+78IRaLB8FjgQIZXw77dPK3BigC7QCvk+EC4A4/BeqywQFL+6D8eqY7B
OuuwQK1Si0AviYTBWvifQLzbI0AAtpjBQvKeQEl4nEC9O4/B+6+EQL7Xc0B9cZXBWum2QOx3A0GJ
J7LBjJnvQIzBH0HSo7DBUpGlQFN5J0G7CKrBPrOFQBUMxz/4oJ/B2OKWQD/f50C/JojBJGy8QGBU
dcCBXJXBCCLIQJzBFUEH/arBoj3qQGziXMAd1ZDBrseWQEKQZ8Cwf43BwN/jQGH99UBxeIvBPDT1
QBxpLcDCjKzBpUiCQFvZwUBxLY3BDCT1QBB6VkBFAI7B8iraQGbKEUDhennBdSRoQLX0jUAp2Z7B
VjqwQADrUsDT35/BJJAAQSjW+b09/rPBXHYEQdAhfMAod5fBAK3wQM84gcBYJYfBuJvwQAZVB8Be
m4/BoI6aQIrnjsAdEYXBy95iQBovesAJpJLBxEWVQJDFFcDi34nBsKrRQJ4rO0DcEIfBvMsLQbR0
EEGirqDBb0SAQISCkb+9RprBKG/JQNKC0z+EQ63BrK2QQPXRBUH13pvBLWoSQX3VAEGLwI7Bu2mV
QIsxvz+YvonB3nnDQIBecT8KIJHBlTDEQHFcpEAgqIDBjUWWQO89gkCmgX7BJpK7QKbsOUC4bJ3B
t+C5QFyspkAMS5TBJp9UQMgiXkBKSZDBJ1uvQAHPCUGyJLrBh1rPQF7E7UC53bLBjsqZQAdv+UDw
iq7BFxfmQP/eJUGzirjBJyT8QP/8LEH2wavBWkUEQVZ+E0Fwn7HBHzSeQB/WLUGeB7LBy1+IQKKv
IEEKeqbB6pyxQId2NEGM6qTBECJyQCnpBEAEtKbB+edVQDzDlD8/2ZrBuL6jQCyp3kA2SoDBBHt9
QOOSAEGRHYfB6/S9QBCPncAldJbBv70FQd7nFcDwe7HBDLIBQTE9R8CeJabB/tVrQHETy0CrL5TB
EQxHQEU1pkCM4JzBtub7QLuKCkEWB5zBScCaQIupSr/5caDBJ2LHQP5INT+3C6vBp3qwQOFjBEFo
KpnBktkBQfqzAUGK1ZHB4GbRQAwZDEF23Z/Bpn2jQLRF/z5QZ6TBCx/aQNqE078dk6nBNzu2QD9c
779H/6LBXp/iQHw4u749oa3BNne6QMfa90AtAY/BGNqxQAF85z/Yc4/BYDKxQMGPiUB6mYTBCMuh
QCbHJkDoUpnBD3OfQDPTm0AwNI/BKruFQLomdEAltZXB5kG0QIf7AkE3H7LBj9HtQMDfHkEo2bDB
f3CkQO8gJ0FU9qnBiymIQNQW1j8Y6KDBO86WQKOy5kCbBIjBP1qjQIQnVcA1cpTBrm3GQDoqFUFR
CavBsqFuQKWegcA1NZTBlVrIQLmyg8DS6o7BM3bjQB409UCAjIvBZoL1QKN3LcDk7KvBM1aCQICU
wEBG94zBxSj2QEjHVUAkDo7BlzzaQHJkDEBkaHrBW29pQN8zj0CG657BRF+uQIMSSsBbmZ/B1ZYC
QXvLHr7t7bPBNu8zQDZ2UsCxcJnBO0VTQG1Hh8DqAIrBb/lyQOMsqMDJOpnBo82+QHcsi8C6fYTB
IirtQG7BWMA1UY/B05rPQJOlqcCD6ZPBGEfSQA5wOECjYofB6R0LQVoZEEGE4qDBOxV+QL9Adb/Q
dJvB4PjNQM/n2D9yJ67BXZyPQI/4BEHj0ZvByB0SQUCTAEFC+Y7BDU6WQFc5uj/PworBtuPEQDgj
cj8UIZLB6TvEQIQ+okDygoDBeXCWQHCLf0Aw3X7Bnru9QKSSP0AXsJ3Bl3i6QOngpkC3HpTByi1X
QPzfW0Dop5DBW2SsQORaCUHvFbrB70vMQCxz7EDx6rLBzCyXQEPk+EDpZK7BT/7jQJUHJUHTt7jB
+QX7QJAILEHIBqzBli0DQeZvEkF/6rHBw8GcQOqELUH67rHBOUiHQIOPIEEASabBaCyxQK8LNEE8
56TB8jR8QNF1D0BxAajBD3RXQJX6pT8lrpzBsRakQCym3UBaMIDBkQ99QMnP/0BG7YbBkg+gQA15
FsB8hpDBU5UGQXnMGMALp7DBF+0AQbSkRMD/IqXBdHRqQK66yUBn5ZPB00JHQB7CpkC8uJzBIMr5
QPIwCkHWWZzBHIyaQF0jAr+vIaHB8nPEQAJQOz+ZMq7BxxWvQHxgA0GO1pjBTKsBQdqMAUFxNZLB
5LbOQG6lC0EDxZ/BMxSiQDwOKj906abB6TDYQNj8x7/aoqnBHbK2QI7Byr+S6qHBsareQNUay76Z
z6/BANS6QJAf9kBJwo7BPd2yQFPF4j+sjJHB+VixQPmbhEA4CIXB7+ajQJjVK0Aq9ZrBnP+gQDoO
mkCjY4/B2oiHQOSRdUCglZbBpBa+QBhhAUF/z7LBEcrkQMcNJEE6Ya/B8IiXQBHBIEEKjarBID2K
QMk58z/0mKPBjqiYQLOf40B0iofBC0+uQFoRdsDpKZzBSJXCQDJZFEEF9KrBlajMQNNvlMAlo5TB
oZ97QDzmhcADApvBl0TkQDCA9EAMoYvBeGj0QGJIKMAU3KrB19+DQG4pvkBbp4zBkq73QC7eTUD6
F47BeLjWQAHg9j+oCH3Bl4JsQAqykkChVZ/Bdt20QHwTHsBwjpnBEtD/QM0Lpr6dxLbBQQT1QP3u
g8CVNJXBj/rNQNr4vcBWtZfB7+a/QP7dkcDqQYrB0N1sQEMSrsB1rp7B8zBMQKJdVMD186DBykhg
QFDdgsCJtZDBJdnRQHyhLkBnS4jBCaQJQX+vD0Fef6HBNoN9QF3CFL9XB5zB66vKQF6m0j+Uh7LB
heaNQJRqA0FPQJvB0yQSQVy+AEEgoo/B77KWQNDUrT/ib43BinnGQLzzcj8UupTB23DEQErFm0CI
b4DBk9+VQMMrdEBrM4DBal/AQC7jR0Blw57BVJe8QJ8/pkCG7JPBhgBbQHZzWUA20ZHB83W1QE9x
B0EIybrBtKrcQK1t8UAbSrPBCvGkQB707EBg8q/BvNraQOrPKUHdULfBXA3oQGK7MUEE56nBhtkB
QQe+G0HvDbDBcK6PQDnBJkFalrLBvPd7QBb7FUFdyqfBSXOaQOJPLkG7/KTBaHWFQPTXIkApoarB
6OhVQP1Qzj/LSaDBL2OnQA6I2UD46X/B11iAQOhD/ECs8YXBEvC3QEYsgcDdfKTB67MEQUHQGsAz
qLDB/QgCQeIaMsAG/qPBYOBrQIQjyEDVaJPBcM5JQCo/qUDDqJzBDqX4QAmRCkHU+pzBj/2bQGP3
A78gJ6HB6VzGQKi5Mz8LPq7B8HyuQGgUBEH7pZjBaegBQR5TAUFqE5PBJA7NQDHdC0Ge9p/B8Nuj
QAj6Jj95+KbBq7zYQFiWzb8/vanBMpK3QCSBzb/wBaLBqQPgQHgA4r4Q3q/BC8a7QGI39kAr3Y7B
66ayQPPg4T/lfpHBFUWwQJbrg0Du6oTBReikQPqQK0AWAJvBPYyhQEzfmUAdWo/BCoOIQF4vdkB4
zpbBB87jQFzMG0GJILLB6CGkQBNGKkHbRKjBsJmhQKl4BUGdsrDBnfeLQAnJ8j+XyKPBAFaaQBl7
40DMe4fBe9GmQNqKc8D2+5vBBim+QM+7FUHDoKrBXAu5QHkjlcAPtZLB1JlpQI4+dMDluJzB6cfl
QEZt80D4Q4zByp7zQFo7LcBe7arBHvKEQDxrvkDoq4zBZjv3QMYnTUBcoI3B+PDUQIE59D/jjHzB
IIdxQFZtk0AjqZ/B2Hu2QKlqH8AuupnBK48AQWz/xr5517bBGmnkQPNzkMD7YZLBcb6vQNYIv8Bn
NZTBGwepQIADiMAQIInBTPxMQLWCosCSe57BnpNOQLATQ8APCaXBiEBFQGRZVcAonpPBee3QQKCd
LUDjDIjBIZoIQV6dEEHFQKLBdW2AQEPYEr8c9pvBNSDNQHiLzj9ejrLB9NKMQNT+BEFxjJrBP5US
QSdLAEGM3pDByfWVQP71rT9ZkI3BAlrGQAXAbz8/i5TBY8nCQHTEmkDwFIDBlBWUQC6NckADXoDB
R+TBQGb2RkBqop7BL+C9QDG7pUAXp5PBPVJbQN2zWkA2RZLBih3XQA26IkGMkbnB93T4QMiUJ0Er
Hq7B+Iz2QPViDUENA7TBx12ZQKFtMUFd2K/BgCOIQBo2JkH4VaPBNmW4QHnHNUFI8qPB+/uWQA2I
DEEoT7jBcgu0QPKp7UBjT7LBDIOFQHiCAUEZx6vBuPaHQKSaIkD+2KrBH6lYQKuvzj9xp6DBocqp
QCPN2ECrCoDBpUyCQPIY/EDWn4XBuv+zQPeWhcAcl6PBrHIEQT+HIcCauLDBQ4UBQWUYOMDaDKTB
8d9uQAi0yEDlc5PB4ttOQPUzqkCHGZ3B

>  <OMEGA_E>  (1) 
6CBVPmAaVz6Ai5M+4LBUPrhHwz7ILMg+

>  <OMEGA_NBR>  (1) 
    151769

$$$$
50216776
     RDKit          3D

 69 71  0  0  1  0  0  0  0  0999 V2000
    4.8112   -0.7879  -20.0777 C   0  0  0  0  0  0  0  0  0  0  0  0
    6.2073    0.7101  -21.4040 C   0  0  0  0  0  0  0  0  0  0  0  0
    5.0782    0.5011  -20.5829 C   0  0  0  0  0  0  0  0  0  0  0  0
    6.8156   -1.6416  -21.1835 C   0  0  0  0  0  0  0  0  0  0  0  0
    5.6824   -1.8616  -20.3788 C   0  0  0  0  0  0  0  0  0  0  0  0
    7.0746   -0.3584  -21.7017 C   0  0  0  0  0  0  0  0  0  0  0  0
    6.9169    7.8713  -18.3933 C   0  0  0  0  0  0  0  0  0  0  0  0
    5.5212    1.7845  -17.9678 C   0  0  0  0  0  0  0  0  0  0  0  0
    5.5336    4.2473  -16.5848 C   0  0  0  0  0  0  0  0  0  0  0  0
    5.5454    8.1974  -17.7792 C   0  0  1  0  0  0  0  0  0  0  0  0
    5.0351    2.6030  -19.1944 C   0  0  2  0  0  0  0  0  0  0  0  0
    5.0173    4.8646  -17.9088 C   0  0  1  0  0  0  0  0  0  0  0  0
    5.6775    8.0104  -19.2952 C   0  0  1  0  0  0  0  0  0  0  0  0
    4.1842    3.8316  -18.7335 C   0  0  1  0  0  0  0  0  0  0  0  0
    5.5460    8.1244  -22.2511 C   0  0  0  0  0  0  0  0  0  0  0  0
    7.4390    9.5880  -21.4058 C   0  0  0  0  0  0  0  0  0  0  0  0
    5.2007   10.5902  -21.9414 C   0  0  0  0  0  0  0  0  0  0  0  0
    4.2261    1.6811  -20.1482 C   0  0  0  0  0  0  0  0  0  0  0  0
    4.7564    7.1917  -16.9052 C   0  0  0  0  0  0  0  0  0  0  0  0
    5.1542   -3.3219  -18.5461 C   0  0  0  0  0  0  0  0  0  0  0  0
    5.9122    9.3474  -21.3725 C   0  0  0  0  0  0  0  0  0  0  0  0
    3.7954   -4.0689  -18.4657 C   0  0  0  0  0  0  0  0  0  0  0  0
    6.3475   -4.0862  -17.8921 C   0  0  0  0  0  0  0  0  0  0  0  0
    7.6895   -2.6927  -21.4482 N   0  0  0  0  0  0  0  0  0  0  0  0
    4.1420    6.0384  -17.6299 N   0  0  0  0  0  0  0  0  0  0  0  0
    7.6729    3.2843  -17.7781 O   0  0  0  0  0  0  0  0  0  0  0  0
    6.7872    2.1179  -15.6873 O   0  0  0  0  0  0  0  0  0  0  0  0
    3.6547    4.5062  -19.8776 O   0  0  0  0  0  0  0  0  0  0  0  0
    5.4352   -3.1475  -19.9532 O   0  0  0  0  0  0  0  0  0  0  0  0
    5.4216    9.2351  -20.0111 O   0  0  0  0  0  0  0  0  0  0  0  0
    8.1639   -0.1457  -22.4754 F   0  0  0  0  0  0  0  0  0  0  0  0
    2.8204   -3.2701  -18.9754 F   0  0  0  0  0  0  0  0  0  0  0  0
    3.4784   -4.3684  -17.1812 F   0  0  0  0  0  0  0  0  0  0  0  0
    3.8266   -5.2133  -19.2024 F   0  0  0  0  0  0  0  0  0  0  0  0
    6.1633   -4.1881  -16.5508 F   0  0  0  0  0  0  0  0  0  0  0  0
    7.5124   -3.4127  -18.1073 F   0  0  0  0  0  0  0  0  0  0  0  0
    6.4761   -5.3324  -18.4181 F   0  0  0  0  0  0  0  0  0  0  0  0
    6.5470    2.8266  -16.9501 S   0  0  0  0  0  0  0  0  0  0  0  0
    3.9410   -0.9560  -19.4604 H   0  0  0  0  0  0  0  0  0  0  0  0
    6.4065    1.6929  -21.8051 H   0  0  0  0  0  0  0  0  0  0  0  0
    7.7052    8.6381  -18.4186 H   0  0  0  0  0  0  0  0  0  0  0  0
    7.3718    6.8830  -18.2312 H   0  0  0  0  0  0  0  0  0  0  0  0
    4.6534    1.4395  -17.3864 H   0  0  0  0  0  0  0  0  0  0  0  0
    6.1021    0.9155  -18.3102 H   0  0  0  0  0  0  0  0  0  0  0  0
    6.1304    4.9936  -16.0400 H   0  0  0  0  0  0  0  0  0  0  0  0
    4.6784    3.9387  -15.9656 H   0  0  0  0  0  0  0  0  0  0  0  0
    5.4333    9.2452  -17.4635 H   0  0  0  0  0  0  0  0  0  0  0  0
    5.9168    2.9764  -19.7359 H   0  0  0  0  0  0  0  0  0  0  0  0
    5.8802    5.1828  -18.5122 H   0  0  0  0  0  0  0  0  0  0  0  0
    5.2706    7.0753  -19.7074 H   0  0  0  0  0  0  0  0  0  0  0  0
    3.3640    3.4645  -18.0991 H   0  0  0  0  0  0  0  0  0  0  0  0
    4.4584    7.9625  -22.2201 H   0  0  0  0  0  0  0  0  0  0  0  0
    5.8593    8.3116  -23.2888 H   0  0  0  0  0  0  0  0  0  0  0  0
    6.0606    7.2308  -21.8683 H   0  0  0  0  0  0  0  0  0  0  0  0
    7.6874   10.4575  -20.7795 H   0  0  0  0  0  0  0  0  0  0  0  0
    7.9588    8.6984  -21.0207 H   0  0  0  0  0  0  0  0  0  0  0  0
    7.7574    9.7792  -22.4412 H   0  0  0  0  0  0  0  0  0  0  0  0
    5.4503   11.4689  -21.3285 H   0  0  0  0  0  0  0  0  0  0  0  0
    5.5311   10.7598  -22.9768 H   0  0  0  0  0  0  0  0  0  0  0  0
    4.1127   10.4292  -21.9254 H   0  0  0  0  0  0  0  0  0  0  0  0
    3.9199    2.2549  -21.0353 H   0  0  0  0  0  0  0  0  0  0  0  0
    3.3324    1.3109  -19.6245 H   0  0  0  0  0  0  0  0  0  0  0  0
    5.4470    6.7865  -16.1510 H   0  0  0  0  0  0  0  0  0  0  0  0
    3.9479    7.7435  -16.4033 H   0  0  0  0  0  0  0  0  0  0  0  0
    5.0503   -2.3434  -18.0544 H   0  0  0  0  0  0  0  0  0  0  0  0
    8.4352   -2.3682  -22.0302 H   0  0  0  0  0  0  0  0  0  0  0  0
    8.0644   -3.0389  -20.5883 H   0  0  0  0  0  0  0  0  0  0  0  0
    3.8069    6.3791  -18.5083 H   0  0  0  0  0  0  0  0  0  0  0  0
    3.1383    5.2520  -19.5953 H   0  0  0  0  0  0  0  0  0  0  0  0
  1  3  2  0
  1  5  1  0
  2  3  1  0
  2  6  2  0
  3 18  1  0
  4  5  2  0
  4  6  1  0
  4 24  1  0
  5 29  1  0
  6 31  1  0
  7 10  1  0
  7 13  1  0
  8 11  1  0
  8 38  1  0
  9 12  1  0
  9 38  1  0
 10 13  1  0
 10 19  1  0
 11 14  1  0
 11 18  1  0
 12 14  1  0
 12 25  1  0
 13 30  1  0
 14 28  1  0
 15 21  1  0
 16 21  1  0
 17 21  1  0
 19 25  1  0
 20 22  1  0
 20 23  1  0
 20 29  1  0
 21 30  1  0
 22 32  1  0
 22 33  1  0
 22 34  1  0
 23 35  1  0
 23 36  1  0
 23 37  1  0
 26 38  2  0
 27 38  2  0
  1 39  1  0
  2 40  1  0
  7 41  1  0
  7 42  1  0
  8 43  1  0
  8 44  1  0
  9 45  1  0
  9 46  1  0
 10 47  1  6
 11 48  1  6
 12 49  1  6
 13 50  1  6
 14 51  1  1
 15 52  1  0
 15 53  1  0
 15 54  1  0
 16 55  1  0
 16 56  1  0
 16 57  1  0
 17 58  1  0
 17 59  1  0
 17 60  1  0
 18 61  1  0
 18 62  1  0
 19 63  1  0
 19 64  1  0
 20 65  1  0
 24 66  1  0
 24 67  1  0
 25 68  1  0
 28 69  1  0
M  END
>  <OMEGA_C>  (2) 
KPWZQNK2Sb8Pn6DB8qHGQFvLNT9cO6vB7YCiQPJHAD/XqaTBFxnaQJIg0r/Hd6nBKta1QHRK7r/B
B6PBumLiQAZ/t74fna3B/lbdQAzi+0BhJZPBhK2wQGpr5D/3vY/BbxOxQKzph0CyrYTBTXSxQKYo
A0HIO47BVx+hQM+XJkA6jpnBFY6gQHKqm0AlRY/B6621QLwqAEGlXJrBpeSFQE85dUBA3pXBqnix
QJH9AUFRArLBDwzuQJ5oGUEiP6vBh2ymQJpxKUH9h6/BYzyHQCQv1z9yL6HBLjSYQJwi5kDyPYfB
1O6kQJmZVMBbXpTBqTC9QOWOFUHq+qrBeOhyQD40gsDNuZPB4R7LQCTCgsAVI4/BmRD2QKlULMD1
lavBeIuEQJg6wUADCo3BXYj1QKgxUkCJOY7BbjDZQC6MB0Ar/3rBnOZpQAwzkEBpBZ/BCe2tQPNv
ScA+oJ/BpH2tQOLCE0GwFqDBOp8CQUg9Fb6RzbPBwoA0QPlIUcC0zZfBcJ5eQJrJi8Azc4nBYuZ0
QPzSpsCOnpnBcDnFQCwFhsAkaITBjmXwQDZqWsDZ25DBlDzPQPKiqsA+WJPBA4HRQDjnNEDmmYfB
Ezp8QCq5dL/arpvBOQLNQD+w2D/kcK7BrpD2QMI1CkFOWZPBo+XrQLRB3EBt2ZHBreiUQOFBuD9w
F4vBeETDQBlcaj9De5LBmSzEQHLLn0DpUYDBorWVQMsTfEAdc3/BeN2tQDPsE0FDtYvBkFa9QPh8
PkAN453Bmyq8QMbZpUAOGZTBfqioQKpo4kDRqJ3BdUtXQHm6XUDkypDBNauOQOrM/kDdwrHBKn+7
QGH8BEGBT7rBrPDBQI5i50BA8q7BJf/1QPtRJ0FkPKbBG67+QI4sC0FiKqjBmjz4QKh3HEGjh7PB
v2iuQJGAN0GvoKrByv6wQFIoLEGI0LfBZJuDQPfdJkEwZ6/Bpt96QAxQEEBSSKjBe0ZVQKXKpz/9
/pzBwE2uQOUq2UBWNYHBvap8QJXK90DnOYPBB5yhQIb5FcB5b5DBvvYGQd2QF8DAPbDB6wcBQRV+
QsDBtKTB1aNzQNQhzED3EJTBWNpIQCgQqEAiw5zB3dWaQIZ0U79+P6DB5vrGQLUQMD/a16rB312j
QCLD8D7gHaTBLujZQPY21r+7mKnB5jW2QM0587+Q+6LB5zTiQORww75xkK3B6TTlQF3t70BYL5DB
iZmxQNwp5z/fIo/B83CxQIK1ikAUq4TBqXK5QHX7AUHO7Y3BKqGhQG+WJUBnFpnBYI+gQAxTnEAg
d4/Bs6THQMR6+0AslpnBovGFQDgfdECcmZXBnw2eQFtII0Fq6afBVwO3QMAeAUFG3rDBi67mQJdD
IUEdhLDB0OCHQJvk0T/liqDB/dOWQAKp6EBtEIjB3s6lQKRxWMDbcJTBR+jEQOmpFEF7CqrBkexz
QFFog8D4wZPBiujLQLl5hcC8bY/Bo1v1QN1+LsBZDKzBHM+EQPgQw0D5AI7Bh2H2QAZRVECZ243B
3KvZQJERDkApynnBJYhoQJswjkBY3p7BPWauQJg6TMB6sp/Bn7PZQPP6DkEs+Z/BYUgCQaE3Jr4s
6bPBBTI2QEWaUsAAyJfBcrxfQC/XjMCveInBQWp0QCL7p8Daq5nBGEvGQG6zicDatYTBCkTxQGf5
X8ABGpHBW53PQDX1rMD+4pPB7iTSQFr0OEDyLIfB0r9+QNX9f7+vMJvB2F3NQDG11j+A6a3BDkUB
QbpGAUHgxo7B/gjrQH8mzkCQLo7BzwOWQLY/uz+jaIrBS47EQN3nbz8GuJHBx5zEQC1vo0DHooDB
G0WWQCO1gUDDF3/BnVS6QDzlEkEvgYvBmKK9QE5mPUCigp3BSD28QLMLpUANcpTBXvW3QP244ECF
v53Bo2tYQL5CXUDFUZDBSCWoQK8WMUFzEqPBAPSQQJ/xKEHRkq/BzleFQPY8GkGhkqPBeN7SQEaO
7UAuWrLBfFmeQC8G8EC/i6zBr/WpQMG3BkHvi7jBGkIBQdjyFkH0EbLBT67YQEBvJkE3KrjByOHw
QPNhL0EV7KvBfmN6QMDkDEAtn6fBbKpXQOXtoD97MZzB4kOlQD1+3EAbo4DBVgZ4QMwN/kBnF4bB
jSujQBUrGsDnY5DBCG8GQcBkGcChyrDBTPMAQeL4RcB6TKXBBkl5QK9YzUCqTJXB/eBGQKANpkDp
wJzB8n2bQACMW78QPJ/BaG3CQJ4zMz9VtqrBDbSgQGni4D7Gf6PBI83YQHRi0L8esanBBOe3QAGZ
8b8aSqLBs47eQL94qL44vq3BllPmQLMP9kATYY/BfbWvQAH75D/ClY7BlZ+wQIr9ikD9g4TBHe23
QAnvAkFko4/B0MKfQIgUI0BtoZjBfb2gQF0lnEA1dY/BZ/XOQHFG+EDPGJrB00+FQMqzc0D7ZpXB
GrW1QIVYAEG93LDBosHnQOa2H0HHjrHB1R+kQD5jIkGTxKbB6dmEQOyfyj/Uq5/BqMyXQE3m6UCB
GYnBceC6QOn/VcC1GZPBi23IQMMyE0H0UarBnVCcQF+Zj8BA1Y/BlanrQEjYacCXv5DBQOHzQHbQ
KcAh8qzBbWeFQHRpw0AmeY7BRBv1QLA+UUC/m43B9R3YQAH3DUC/+XjBUyVoQHBWjUBbz57BJ0Oz
QPmDSsAkeZ7BtYThQEAWDEG5LKHBF2X/QFpdgb2TdrTBQQJoQKyGhsAbV5PB0xGbQAGrk8DjBoXB
RFmpQF7+tMCaWpTBlbfwQHfuj8AEUojBeo4AQYdtIMDoZo7Bcez+QPl6h8CnUZnBBcTQQIT+N0Cr
1IbBMuaBQEPah79uqZnB26LGQEzg2D+J6q3BdzEAQcNXBkFlpY3BHNvtQGjE1kAo0YvBmxuUQGPH
uz/VxInBSEvCQExKaD/8DpHBJvfDQPeco0C3foDBlAaVQIaxgkCz7H7BrNWzQFxMFEHhoY7BG8C7
QGwkOEC1RZ3B1M68QNiao0ApbpTBpdPEQCGd2UBqmZ3BuY1WQEdYX0DnDZDBFkmfQOhw7kCb16vB
TbKkQPKfBkHR5bfBa9nPQN6a60AEf7PBXWz1QHEyLUHDDK3BFNMAQdoDFUEmMLTBCn/WQF3WJUHz
lrjBcbKxQMu3L0F9IaLBp6OTQLm4KEF03q3BxCqNQGOKGUFOxqHB3nJwQNtYCEDrnqbBvy1UQBlx
lz8D75rB2ZSoQNLQ3kCi4IHB2NN5QHmj/kCqx4bBmuKxQOawG8Aeto7Bi5sEQSr1EsDaLbLBEJwB
QbKYQcDUlabBNUh6QN8vzEBR4pXBIeNHQMXnpUDT3ZzB/ZmaQG+JUL92uZ/BOb/CQMQbOD8JJavB
yDegQDRP8j5XI6TBwUDZQAJFzb/TkqnBVHq3QNib7L92ZKLBvULfQBiCob7F0q3BVYveQHsW+EB8
KpPBfByvQNjw4z+kT4/BthixQA25iEC5t4TBVCWzQGpSAkFgS47B+TCfQOC1JED2NZnBxM+fQCl+
m0A9VY/BvxO3QMZO/kDRaJrBz6WEQPyLdEAetpXBH7ezQBohAUGlG7LB1UDyQHTKFkEY/arBU9us
QOjKKEF8o6/B7HqEQOSh0D9teaDBM4KXQB4g5kAnZ4fBJ+C4QMKMUMBs7JLBxQjBQKpNFEFS/arB
7iKZQH/Ai8BOlY/BYDfpQMeeZcBRNpDBN/H0QNd/KMDmZqzBVuSDQD8owUAsK43B6qv0QF8ZUEDD
RI7BkHPYQBteCUD5hHrBGUpoQGhkj0Ac/Z7Bd5CyQKJaR8B5YJ7B3GOwQD7UEkHnLaDBg1wAQeAv
hL3oYrTBWJ1iQHSwgcCbQpPBPDeXQM4Gj8CLxITBJz+lQPnYscBP5JPB5Qv/QO1dHMAXAY7Bn/j8
QBajhsBniJjBKgPtQObljMDPkIfBUbfQQE0kNUDdd4fBt1OAQC4Ngb9mVJrB0kjHQB9m2j9hdq7B
9uT4QKG0B0FKYZPBypfrQFjV10BH1ZHBfYOTQKqQuj/jf4rB+kLBQMcEZj9+9pHBfN3EQHHcoEC6
pIDBvRSWQISDf0DZFH/BIC+xQHEuE0EX0YvB/Ta7QITnOkCawZ3BiBS7QNpkpUAfUZTBI7uoQELq
4ECPqZ3BMWpUQDXOXkC7k5DBqqmQQOMM/0BSC7LBiMC+QOLeA0HfWbrBC0nCQMHA5EDZ+67Bf037
QEJwJEHd6aXBWYEAQU8aCEHZ16fBL3r9QNGYGUHfNbPB5fe1QLaaNkHLrqrBq2K4QDc5K0Eq3bfB
c86JQKQsJ0G5sK/BK+5xQE8MDEAkfafBOe5RQE0Dnz8t8pvBoPCrQA4/2UBLAIHBr996QLIL+UAM
24PBzhewQAvWFMDfz47BH3AFQWZiEsCEh7HBe8IBQWTOPsBI2aXBoZNyQL3yy0DVN5TBH/dHQDSy
p0AL3ZzBbBWbQNjTV7/w/p/Bz+bFQMGxLj8R0qrBseWiQECC6D5q7KPB4Z7ZQKgc1r8uq6nBCpC2
QLhX9L/l2qLBAjzhQB6wwb4irK3BOx/nQNta8EAnPpHBO8KwQHpC5T+q147BDTWyQMRYi0DHzoTB
L9m8QGcRAkEbjI3Bk2qhQCgcJEA65ZjBGxuiQCZVnEBQwY/BLTrGQG6q/0BnkJnBmmWGQNTqc0AB
kZXBgeWaQJb3JEEXzqjBqCq2QA8sAkGHkrDBHjvlQPB7IkEvdrDBglGHQOK3zj/iQaDB54OZQNuJ
6ECZI4jBNLunQMnXWMCTL5TBkX7CQKZ0FkFEDqrBwPh4QH2ahMAvP5PB4MLOQBijhMCwUI/BERH1
QKn9LcAnT6zBLoWHQMYNxEC/j47Brtn2QPOIT0CnSY3B4PnWQPg2DkBEvXjBwu9nQKZAjUAU2p7B
oFmvQPrQTMBcf5/BFi3VQNlPEkGBhp/B5X0BQXprF74/MrTB4lE5QJUdVsBXBZfBPldnQPqTjsDX
6ojBFNJ5QE8FqcAZOJnBR+DSQDU5rMB9sJPBhSLKQOd5iMAMj4TBqYbzQA31XMCwPZHBV2jRQMuU
N0Bl04bBNhiAQLMag78nzJrBZrzLQCdC1j+D663Bc6ICQeT/AEEiKJDBNe/sQE3szUARIpDBpNqU
QIYsuz/mKorBeoLDQFLHaT8IUpHB8BbGQGPpo0Cv7oDBOJyWQNvng0DcV3/BaG2/QK52EkHfaYrB
9bO9QN9tOkD5U53B2hC+QDaGo0AuypTBOHu0QMSq5kBq453BcBtaQG24XkBhEJDBkpyjQCtQM0E+
MqTBIkiPQAHCKUFkwrDB2omBQAUuHEGZkaTBtmjSQN6j70AId7HB0M6cQHnF8kD7VazBGI2qQLn2
BkHGhrjBm8QAQUAuGEHdXrHBOqnYQHOsJkH5aLjB7zzuQEYsMUEyK6zBJDJ4QFs5C0CDSqfB4TpX
QDr3nD+ozpvBiCmnQKUJ20BMw4DBv559QCn4/UBXGYbBYa2kQLx6GsDBLJDBvgcGQZ5tGMAtLbHB
YScBQRl9RcANpaXB06+BQNAnz0Dr65XBMyVHQBJ+pUA3y5zBoVObQA7XWb9UX5/Br8DCQDkFMj+V
16rBX8qgQJSL4j5hrqPBg/HYQLsX0b+Fp6nBZ8O3QBFF8b82UKLBxNzeQMRtrb6xx63BPwbmQJmC
7kAQJJDBftavQCDK5D+u047BaQaxQOSOikDCrYTBDXO6QNiXAUFlB47BO7mfQKhmI0DU1JjBmkyg
QNHdm0AUho/BzAfJQKdF+kBvopnBSgCFQAqKc0CIhpXB9SShQJQKI0GrDKjBlem4QK2eAEE78bDB
NOnpQFdHIEH3gbDBNfiEQLKkyz9x7Z/BtUGXQHhz6EBoOojBiv+5QIzFVMBdBZPBCXPHQJ4GFEHS
GarBmCGbQAm5jsCNwY/BmaLqQHrkaMBlh5DBMiv0QA5jKsBzwqzBuAmFQC8Aw0CoLI7BP1r1QMbj
UEBlzo3BSj3YQIhVDUBZannBMudnQKGgjUAc6J7BMe2yQEQUSsAxbZ7BttPbQHcsDkEcAqDB6c3/
QDDFp722fbTBPP5lQDSLhcD9XpPBhnqZQAh/ksCU8oTBsyaoQPdMtMBmLpTBpyAAQR53H8BTSY7B
BAf+QBOgh8CG/pjBL0DvQMXxjsD9+4fBU/zQQGB5N0A9DIfB9YKBQA9Dhr/D2ZnBwinHQP341z/S
E67B98UBQadhAEEnrY7B303rQL6yzECgFI7B802UQBwguz+IAIrBHmXCQEllaD82W5HBJ5vEQHEz
o0ApvYDBd8WVQPY8gkBdBn/BV667QLWFEkFopIvBKaS7QB8YOUBidJ3BXwe8QPfuo0AcjpTBhCm5
QB6l30D7zZ3BO9lVQO2lXkD+OJDB2airQOjAMEENM6PBLX+UQNzQKEHPvK/BfvKHQOhCGkH1v6PB
51zUQLv260ALYLLBEsGfQGKR70A2qKzBwU2sQKVWBkEQpbjBla8CQV2vFUExArLBi1vcQKGWJUHa
LrjBD4n0QMpKLkG85KvBiWJxQA3qCEBe6abBTu9TQHwGmT96QJvB2TelQBE93EDHv4DBuEJ5QHU3
/kAKWobBqfawQCEOGsAuuY7BAdoEQRTrE8DU97HBpqEBQRykQcALVabBtKh6QMRDzUCqgJXB+1NH
QB0JpkCl65zBZv+bQGDVYL8pWJ/Bg6DBQN7HEz8o46vBEpigQNSowz5wWKTBlVDYQGDF3r+Gt6nB
7Xq4QJAI978A66HBFiPdQODq976woa7B7zijQJ6A7kBWJJ/BfRiwQFri4D/7xo/BvYKvQLBth0DC
A4XBI1O6QJTg8ECZTpTBLFSfQOQDIkB0sZnB1o6eQFpumUCfnI/BIGizQFeZDEEs85rBetiDQEgJ
cUAmKpbBI0i9QOx2OEGLpKXBq7amQPocGUE+ErHBoVjzQBGvJEEi9LDBAR2FQKEGyD944qDBFn2d
QFYv50CAqorB/izBQKs4SMCEipHB1BbLQIRZIkEJ76nBwZakQJgBh8AQfYzBL5byQJtFVsAoio/B
etvzQPlPMsDKTazBpCSEQHLOv0C5CI3BJ1D0QCa5UkDrjY7BJsDYQDSlCUB2QHvBqfFnQPoEjkA+
d5/B9Ga2QCNgScDo15zBa9PWQLnIFEF086DBF6T8QOSsk7614bXBjcV1QG9Je8DVpI7B7i2qQEA6
iMD9vIHBx4KtQL4XrsAxvJDBRED8QMG1TMD9AIXBBBEFQc9aG8Df75TBoJz/QMSmksBbt5LBuKLQ
QOJCNUDy0YfBXMuCQNvShL9ikpnBctPFQL3MxT9Mkq/B+vqyQO1H30CSB6bBmqWAQNcC6EAKcZ/B
aMyUQCi0sz8M/orBBy3DQL0AZT+0cJLBkDnCQNccoEDF1YDB4oWUQGPcekBe5X/BIRLbQPAD5EBt
BZTBVPS6QLpnOUD7S57BVgW6QENho0DHhZTBEyGbQL7rF0FYBpjBPF1SQN0+WkD2LJHBodvWQI4Y
P0E5lqDBV0K3QKFSQ0EbZ6zBK+GfQH+7NkHw4aDBBlWwQFlZCUGMKLTB7FmJQOZvF0FrSqzBGLug
QAkHJEGWz7fBB/j8QPjeFEEf+rPB01DsQGhUL0G8vLfBPMAGQQiGK0G9KKzBR/pzQJWjBkAqBqjB
WrBSQIN+mD+iXZzB9k6xQKvw4UBEg4PB37KHQE8gAUHIQonB2zy4QGkKCsB0Eo7BkTAEQaIDH8C+
8rHBiQ4CQewVRMDwx6XB+UZiQLTmxUCZSZPBAJlGQI38pUAmWZ3B

>  <OMEGA_E>  (2) 
OEiqPvhKqT7Ue9Q+uLzKPqw1uD4cu80+eBAIPw==

>  <OMEGA_NBR>  (2) 
     62181

$$$$
50216801
     RDKit          3D

 71 73  0  0  1  0  0  0  0  0999 V2000
    4.8422   -0.7839  -20.0464 C   0  0  0  0  0  0  0  0  0  0  0  0
    6.2302    0.7036  -21.3930 C   0  0  0  0  0  0  0  0  0  0  0  0
    7.2468    7.7193  -17.3651 C   0  0  0  0  0  0  0  0  0  0  0  0
    5.7090    8.2107  -18.9881 C   0  0  0  0  0  0  0  0  0  0  0  0
    5.1148    0.5026  -20.5523 C   0  0  0  0  0  0  0  0  0  0  0  0
    5.8131    7.7146  -17.7219 C   0  0  0  0  0  0  0  0  0  0  0  0
    6.8102   -1.6577  -21.1987 C   0  0  0  0  0  0  0  0  0  0  0  0
    5.6928   -1.8670  -20.3691 C   0  0  0  0  0  0  0  0  0  0  0  0
    7.0766   -0.3746  -21.7145 C   0  0  0  0  0  0  0  0  0  0  0  0
    5.5895    1.8233  -17.9512 C   0  0  0  0  0  0  0  0  0  0  0  0
    5.5621    4.3020  -16.5851 C   0  0  0  0  0  0  0  0  0  0  0  0
    5.0718    2.6192  -19.1795 C   0  0  2  0  0  0  0  0  0  0  0  0
    4.9841    4.8760  -17.8994 C   0  0  1  0  0  0  0  0  0  0  0  0
    4.1895    3.8210  -18.7193 C   0  0  1  0  0  0  0  0  0  0  0  0
    5.2900   10.4410  -21.2644 C   0  0  0  0  0  0  0  0  0  0  0  0
    7.1722   10.1069  -22.8680 C   0  0  0  0  0  0  0  0  0  0  0  0
    5.7491    8.1361  -22.2871 C   0  0  0  0  0  0  0  0  0  0  0  0
    4.2661    1.6817  -20.1186 C   0  0  0  0  0  0  0  0  0  0  0  0
    4.6699    7.1710  -16.9083 C   0  0  0  0  0  0  0  0  0  0  0  0
    7.4513    9.1409  -20.6077 C   0  0  0  0  0  0  0  0  0  0  0  0
    5.1573   -3.3253  -18.5359 C   0  0  0  0  0  0  0  0  0  0  0  0
    6.3864    9.4339  -21.7184 C   0  0  0  0  0  0  0  0  0  0  0  0
    3.7841   -4.0453  -18.4491 C   0  0  0  0  0  0  0  0  0  0  0  0
    6.3397   -4.1123  -17.8910 C   0  0  0  0  0  0  0  0  0  0  0  0
    7.9228    8.2232  -18.3721 N   0  0  0  0  0  0  0  0  0  0  0  0
    7.0058    8.5175  -19.3311 N   0  0  0  0  0  0  0  0  0  0  0  0
    7.6612   -2.7198  -21.4912 N   0  0  0  0  0  0  0  0  0  0  0  0
    4.0567    6.0058  -17.5960 N   0  0  0  0  0  0  0  0  0  0  0  0
    7.7123    3.3723  -17.7958 O   0  0  0  0  0  0  0  0  0  0  0  0
    6.8738    2.2093  -15.6842 O   0  0  0  0  0  0  0  0  0  0  0  0
    3.6548    4.4862  -19.8669 O   0  0  0  0  0  0  0  0  0  0  0  0
    5.4373   -3.1515  -19.9436 O   0  0  0  0  0  0  0  0  0  0  0  0
    8.1517   -0.1722  -22.5104 F   0  0  0  0  0  0  0  0  0  0  0  0
    2.8221   -3.2270  -18.9526 F   0  0  0  0  0  0  0  0  0  0  0  0
    3.4679   -4.3386  -17.1630 F   0  0  0  0  0  0  0  0  0  0  0  0
    3.7882   -5.1897  -19.1862 F   0  0  0  0  0  0  0  0  0  0  0  0
    6.1629   -4.2106  -16.5485 F   0  0  0  0  0  0  0  0  0  0  0  0
    7.5144   -3.4591  -18.1159 F   0  0  0  0  0  0  0  0  0  0  0  0
    6.4416   -5.3606  -18.4176 F   0  0  0  0  0  0  0  0  0  0  0  0
    6.6049    2.8999  -16.9513 S   0  0  0  0  0  0  0  0  0  0  0  0
    3.9831   -0.9431  -19.4117 H   0  0  0  0  0  0  0  0  0  0  0  0
    6.4351    1.6866  -21.7906 H   0  0  0  0  0  0  0  0  0  0  0  0
    7.6674    7.3681  -16.4344 H   0  0  0  0  0  0  0  0  0  0  0  0
    4.8163    8.3341  -19.5832 H   0  0  0  0  0  0  0  0  0  0  0  0
    4.7360    1.4641  -17.3574 H   0  0  0  0  0  0  0  0  0  0  0  0
    6.1862    0.9645  -18.2923 H   0  0  0  0  0  0  0  0  0  0  0  0
    6.1553    5.0766  -16.0770 H   0  0  0  0  0  0  0  0  0  0  0  0
    4.7372    3.9838  -15.9307 H   0  0  0  0  0  0  0  0  0  0  0  0
    5.9369    3.0125  -19.7334 H   0  0  0  0  0  0  0  0  0  0  0  0
    5.8162    5.2444  -18.5175 H   0  0  0  0  0  0  0  0  0  0  0  0
    3.3739    3.4332  -18.0914 H   0  0  0  0  0  0  0  0  0  0  0  0
    4.7042   10.0009  -20.4439 H   0  0  0  0  0  0  0  0  0  0  0  0
    5.7664   11.3698  -20.9174 H   0  0  0  0  0  0  0  0  0  0  0  0
    4.6243   10.6645  -22.1111 H   0  0  0  0  0  0  0  0  0  0  0  0
    7.9612    9.4266  -23.2210 H   0  0  0  0  0  0  0  0  0  0  0  0
    6.4860   10.3340  -23.6972 H   0  0  0  0  0  0  0  0  0  0  0  0
    7.6281   11.0393  -22.5035 H   0  0  0  0  0  0  0  0  0  0  0  0
    6.5441    7.4432  -22.5998 H   0  0  0  0  0  0  0  0  0  0  0  0
    5.1323    7.6600  -21.5106 H   0  0  0  0  0  0  0  0  0  0  0  0
    5.1192    8.3863  -23.1534 H   0  0  0  0  0  0  0  0  0  0  0  0
    3.9498    2.2461  -21.0082 H   0  0  0  0  0  0  0  0  0  0  0  0
    3.3785    1.3113  -19.5848 H   0  0  0  0  0  0  0  0  0  0  0  0
    5.0434    6.8557  -15.9229 H   0  0  0  0  0  0  0  0  0  0  0  0
    3.9110    7.9566  -16.7785 H   0  0  0  0  0  0  0  0  0  0  0  0
    8.2028    8.4702  -21.0497 H   0  0  0  0  0  0  0  0  0  0  0  0
    7.9227   10.1011  -20.3510 H   0  0  0  0  0  0  0  0  0  0  0  0
    5.0750   -2.3461  -18.0414 H   0  0  0  0  0  0  0  0  0  0  0  0
    8.3981   -2.4025  -22.0881 H   0  0  0  0  0  0  0  0  0  0  0  0
    8.0506   -3.0782  -20.6427 H   0  0  0  0  0  0  0  0  0  0  0  0
    3.6697    6.3271  -18.4603 H   0  0  0  0  0  0  0  0  0  0  0  0
    3.1175    5.2181  -19.5875 H   0  0  0  0  0  0  0  0  0  0  0  0
  1  5  2  0
  1  8  1  0
  2  5  1  0
  2  9  2  0
  3  6  1  0
  3 25  2  0
  4  6  2  0
  4 26  1  0
  5 18  1  0
  6 19  1  0
  7  8  2  0
  7  9  1  0
  7 27  1  0
  8 32  1  0
  9 33  1  0
 10 12  1  0
 10 40  1  0
 11 13  1  0
 11 40  1  0
 12 14  1  0
 12 18  1  0
 13 14  1  0
 13 28  1  0
 14 31  1  0
 15 22  1  0
 16 22  1  0
 17 22  1  0
 19 28  1  0
 20 22  1  0
 20 26  1  0
 21 23  1  0
 21 24  1  0
 21 32  1  0
 23 34  1  0
 23 35  1  0
 23 36  1  0
 24 37  1  0
 24 38  1  0
 24 39  1  0
 25 26  1  0
 29 40  2  0
 30 40  2  0
  1 41  1  0
  2 42  1  0
  3 43  1  0
  4 44  1  0
 10 45  1  0
 10 46  1  0
 11 47  1  0
 11 48  1  0
 12 49  1  6
 13 50  1  6
 14 51  1  1
 15 52  1  0
 15 53  1  0
 15 54  1  0
 16 55  1  0
 16 56  1  0
 16 57  1  0
 17 58  1  0
 17 59  1  0
 17 60  1  0
 18 61  1  0
 18 62  1  0
 19 63  1  0
 19 64  1  0
 20 65  1  0
 20 66  1  0
 21 67  1  0
 27 68  1  0
 27 69  1  0
 28 70  1  0
 31 71  1  0
M  END
>  <OMEGA_C>  (3) 
gvOaQOCrSL8RX6DBsl3HQNQeND/SJKvBs+XnQJAE90C+64rBYLC2QPFeA0Gj55fBFayjQNWpAD8d
a6TB/AS6QLnd9kCLxo3B7uzZQLAv1L/flqnBkyu2QFj47r8A9KLBUHPiQAnPv75Et63BIt2yQFxi
6T8EnI/BmPyxQEmqiUA6roTBNUyiQFKhJ0CXb5nBIH6fQDAInEAEMo/BtBCGQAyMdEAywZXBbkep
QGQOJ0FnHarBXYLlQAC2IUGX8bbBd/i3QIQtAkHmS7LBoYOIQAVC1z/e8qDBCXCVQCZ55UAiRIfB
NnHuQFJBEkGa3KTBaQilQIrRVMB3SZTBPF3MQC/xFkFIv63BTS9yQAlzgcC5l5PBj97KQNSXg8DR
II/BdYf9QDeSA0Ei+pLBRy/gQKFHCEENpprBeyj1QNIRLsDt7avBZtCBQKYvwECbxIzB9Mr2QGDU
V0DTXY7Bh/bbQKNkDUBU8nrB1+hpQMmOj0B5757Btv6tQNuyScCRjJ/Be20CQZpVML46FbTBgZ00
QIiHTsDsnpfBDfJdQIjVisDJTYnB7XFyQAMSpsBtfZnBXTbFQEm9hsBWY4TBWnbwQKliXcBK7ZDB
tSHOQGCKq8BOV5PBO1vTQDKXOUBPnIfB4up+QPpxcb8XS5vBA+zNQNXi1z8rU67Bclv1QMbH60C4
eYPB8x6aQEVYBUFzqpzBoY2XQF1muz/+24rBuvXFQFfrdj+pVpLB/PfEQJtzokClnYDBEpeXQBL2
fkD6437Befu9QJjMQEAX3p3B/B26QBTSp0DeI5TBwu1XQJi5W0A1u5DBFomWQMADIEECjaPBs4a4
QKbqNUHqVqfBQPqTQNuhKkF647DB98H+QF7TFkGIxLnBLY3PQCVYJUHQk73BoRn0QPCgMEE/B7TB
GmnRQGQu7kBczLTB/DukQGAe9UC3FazBQtCjQDcuBkFDOrnBSsp8QAjAD0DbEKjBQzlYQCnXpz+S
rZzB0GOhQH1h20AMxH7BiU16QLqc/kBOOobBnD4DQcuFB0HIZajBhIb9QCSeIUHJzqLBGWaiQFAn
FsDFVJDBnl4GQffCGcBbtLDBQM8AQbgBRcA9JKXBm9xqQIl3ykC3rpPBIYVHQLb6pkBKs5zBMoKZ
QBNjTr9UIqHBrGvKQFKiMj+GcqrBDJ3nQLEG/kDVB5LBnw+pQH+l+0CflpvBxX6kQC0k/T6Ch6TB
mba4QGLG9kAyfZHBri3bQITd1r8SIqnBoQ21QOai8r/WYaPBpJ3lQGbbxb5ZxKzBIvuwQLLT4T8K
eI/BzPawQHS2hkD5MYTBhWKiQBQdJkAxT5nBK/WgQOiTmkCXvY7BW9WGQJmfdEDKrJXBfYmcQCVq
KEGgpqjBhLjrQLRIK0G8w6zBgmi3QM6aIUFYQrvBekCJQKKM1z+NMKHBZg2eQB225kBtUojB0LPI
QLu9BkGVG63B+EeaQFdWXMBtJJbBKQnCQHbwHkGxS6/BgjVhQCOXiMAGkZfB/sG9QO0rhcDeio/B
b+vxQNwTA0HfCpzBYHnMQK4yAkFykqHBZJX2QGrBL8AfMavBkr2FQOtDwEBT/4vBLBz2QG/mT0Ag
cY3Bc+rXQHq5BEC95nnBOGRvQCPHkEAY5Z7BmsuqQB+XTMCKxqDBrvEEQXRHOr6pcrLBHTwqQFit
ZMCK6p3B1Ik6QFNfj8CV/o3B5K5xQLPcrsBrVZzBB9CuQFhXkMB0vIXB9qjfQHKyVMA+NI7BUfXL
QOPTqMC+qpTBFGDRQGOpMkBND4fBYhp4QHTDeL9g0JzBn5nSQHos2D+PNK3BjIf9QJzW/EBLW4vB
JUKIQIko+UCCPJ7B7sKUQB+xtT94/YrBv6HDQIEMZT8SLJLBRu3DQF1/nkC9iH/BXWOVQEqdeUAp
o37BoAa/QEpXPkCvbp3BZsi8QPtYpUDkaJPBCXhXQOL2XEB+5pDBztp9QDudH0FodqrBWNOjQPby
JkGlEqDBS0+YQBJlOUHatarB0RwDQSKNJEH/ebHBwYjnQAREPEGA067BzgzzQOjRKUFLMKTBo57R
QDD7GkE0HMDB5oyZQIgKGUGQGb3BunSzQJOyMkHvG73BeoqAQFkBEUB2VajBIQpYQNr+qD+APp3B
PvGyQDH53UCilYHBnZKHQK3K/0Ccw4XBBjmtQH+s+0ASVrDBFifmQGp3AUFoJLHBxlqSQIV4H8Bx
MJLBavgHQR35GsClUq/BeTAAQTc0ScCkRaTBvPRpQPtkyEB6gJLBBPRNQJKZqED7spzBtaibQI5C
Tb8GCaDBu+rEQGgANz+HVqvBquLlQBHs/0C024/BoBemQMldB0HcIpjBiCyiQORk+j7mXKTBCLS2
QOqH+kCBbY/BmB7ZQHpZ0b9PIKrBubG3QOgc7r8fy6LBeDbgQOdCsL5LOa7BSC+vQO0C4T9fPo/B
M7evQPE9hkD7AYTBfdqgQJN3JUAUHZnBcVugQMismkCYlY7BgRqGQPp2dUDBmJXBaMX/QNOsEkGV
pLHBPPK3QPty/0AuPLLBvYm/QN0WJUG6ernB6NiGQC0P1T+yvKDBApabQPH05EA/HYfBLInDQIvK
H0FexaXBWEe6QBY9SsC7wpLBH8HOQHORFUFxrbDBvAyXQMkRg8ArXY7ByzjpQHDaZsACq4/ByCbv
QN0nDEEKIZjB3tTIQDXYEEFBvJzBNOfzQEmoK8CuHq3BrMuEQOngv0Dx5ovBcKT0QHEETkBhKY3B
0b3VQGEcA0BvcXnBSHBvQPlvkUDj3J7Bt8KzQIwtR8APR57B/OEAQYQ9572JzbTBvAxgQOLOZMDy
1JDBrquaQKWPhsCLlIPB86yZQB+JqsAF7pLBBNT0QHBhQsBgO4bByBoDQecUTcBQEZfBoAXtQCyQ
nsDYp47BLavPQEpbMUD004bBo1CBQHQCe7/2oJrB0ZbKQCVH2j82eq7Bm6r8QJA08kD1VorBdTKF
QPjGB0EJx5rB5NKSQP75tT9jx4rBD6LBQPr9YT8m65HB07zCQHWwnUDP937BRM2TQAcLeUBGdX7B
IIy9QPDqO0BhXp3B/2G8QFt+pUC3K5PBzA5VQCITX0C05ZDBfNQHQak4IkGDh7DB3HMFQXdsB0GW
eavBh80DQSlRDEGHnLnB3SKVQIzuAUFJibHBs5+/QIKm8kB0NLrBXezCQB/d6ECDEazBvrGcQA5F
J0HJ3rjBRo/PQDWhNEEZeLjBhoPHQKlxHkFbYcHBLVt5QBKMD0ADx6fBCvNUQJWepD++f5zBGh+w
QCa12UAli4DB9AaEQDTr+0Dq+4PBbpjYQLWnLUGseqTBoAWiQIMnJUHf/qXBNQe1QPcSCsDZYo/B
VdcEQadMFsB4VrLBuVwBQdfQQsDFpabBqy1tQGrJyUADoZLB1QRPQHisqUBVtpzBkjScQDpEWb/7
tZ/B0h3FQORcKT+oI6vBpN3oQBBi/UCWPJHBahqsQGpD/ECvgJvB1oyiQP4q4T5OGqTBiNi5QPif
9kCUQJHBfmDZQEYY2L984qnBgDS4QNxS9L+Hd6LBtEXgQMChzL7RDq7BCL2uQLkR4D9dCo/BaIuu
QDXUhkBfFYTBNpugQBSmI0BTCJnBer+fQGxzmkC5xY7BcKeFQLMudED1t5XBWOWgQMGAKEFe7ajB
QDjxQPIJLEEEJavBSunCQLSJIkH937rBmPGGQFrQzj8ElKDBTGKdQBLS5kAlZIjBJlPPQORHB0Ex
mazBTB+8QEYbS8BYS5LBPv/IQCmFH0G3vK7B6MmXQG74gMBKcY3B9pHqQI2za8DrYo/BVBf1QP/z
AkFhF5vBhrHQQIR0AkHxDKHBKBH0QNgNL8Dc6azBJvCEQCrKwEAmT4zBRPvzQHsyTkD0+YzBNJrU
QL0nBUCn73jBX6xvQDw8kECCHp/BLqW0QM7LScB+yZ3BArQAQcT5Mb4MyLTBAQtjQIurXMBPwY/B
8mmcQCR1g8BSqoLBGKOXQGQHqcBSuZHBwPL4QDbnQsA+eYbBAHIDQZ+JWsBTUJfBaufrQCazoMAi
j43BTs/OQLQzMkDwqobB+wGCQNImg78ZQZrB78PKQCNT0z9kTa7BkYX9QMac+0DoUorB8smLQCdW
+kA7h57BNUiSQEiEtT97mIrBIWnBQMOeXz8ek5HB1kfBQNCZnkCrLn/BwWuSQJ6lekC6tX7BXmO9
QCaxOUCkSJ3BDSG8QHR1pEBNVpPB27hTQLFuXkCADZHBcV2EQNeRH0G4f6vBVfqkQCjIJkGjOqDB
ufKcQA6GOUHo76rBUMYGQZyjJUHJRa/BsVbtQAIQPUEGKK3BTV71QBxSKkHBcqLBDgzfQBJCHEFB
Ib/BqyWmQNLYGUHNfb3B3S6/QI+qM0HPq7zB0kp5QPCTC0DkrKfBvlBVQJg9nj9bT5zBhwOxQG2o
3UB/dIHBv/GGQJUhAEEIC4bBUJy0QEPZ/EBCPLDBiJztQNEhAkEwRbDBZOq4QHK0CcBKI4/BFdIE
QYbMGcDcMLLB1ZEBQSQGRsCNd6bBR9lqQEM5yUAd+5LBsAtPQPabqEDJHp3B

>  <OMEGA_E>  (3) 
6EF7PsChwT5YH9Y+qFXhPg==

>  <OMEGA_NBR>  (3) 
    104304

$$$$
50216793
     RDKit          3D

 70 72  0  0  1  0  0  0  0  0999 V2000
    4.8305   -0.7920  -20.0430 C   0  0  0  0  0  0  0  0  0  0  0  0
    6.1941    0.7029  -21.4064 C   0  0  0  0  0  0  0  0  0  0  0  0
    5.7859    8.1991  -18.9305 C   0  0  0  0  0  0  0  0  0  0  0  0
    5.0840    0.4951  -20.5603 C   0  0  0  0  0  0  0  0  0  0  0  0
    6.8055   -1.6493  -21.1967 C   0  0  0  0  0  0  0  0  0  0  0  0
    5.6949   -1.8676  -20.3604 C   0  0  0  0  0  0  0  0  0  0  0  0
    7.0527   -0.3669  -21.7233 C   0  0  0  0  0  0  0  0  0  0  0  0
    5.8904    7.6486  -17.5969 C   0  0  0  0  0  0  0  0  0  0  0  0
    7.0494    8.5199  -19.3427 C   0  0  0  0  0  0  0  0  0  0  0  0
    5.5665    1.8209  -17.9686 C   0  0  0  0  0  0  0  0  0  0  0  0
    5.5519    4.2886  -16.5999 C   0  0  0  0  0  0  0  0  0  0  0  0
    5.0387    2.6167  -19.1930 C   0  0  2  0  0  0  0  0  0  0  0  0
    4.9704    4.8732  -17.9078 C   0  0  1  0  0  0  0  0  0  0  0  0
    4.1628    3.8248  -18.7276 C   0  0  1  0  0  0  0  0  0  0  0  0
    7.1560   10.0988  -22.9111 C   0  0  0  0  0  0  0  0  0  0  0  0
    5.2872   10.3837  -21.2778 C   0  0  0  0  0  0  0  0  0  0  0  0
    5.8028    8.0904  -22.2859 C   0  0  0  0  0  0  0  0  0  0  0  0
    4.2297    1.6724  -20.1241 C   0  0  0  0  0  0  0  0  0  0  0  0
    4.7003    7.1382  -16.8322 C   0  0  0  0  0  0  0  0  0  0  0  0
    7.5048    9.1470  -20.6450 C   0  0  0  0  0  0  0  0  0  0  0  0
    5.1544   -3.3175  -18.5174 C   0  0  0  0  0  0  0  0  0  0  0  0
    6.4136    9.4114  -21.7425 C   0  0  0  0  0  0  0  0  0  0  0  0
    3.7612   -4.0015  -18.4424 C   0  0  0  0  0  0  0  0  0  0  0  0
    6.3076   -4.1370  -17.8595 C   0  0  0  0  0  0  0  0  0  0  0  0
    7.1560    7.6134  -17.2603 N   0  0  0  0  0  0  0  0  0  0  0  0
    7.6719   -2.7012  -21.4817 N   0  0  0  0  0  0  0  0  0  0  0  0
    4.0676    6.0193  -17.5852 N   0  0  0  0  0  0  0  0  0  0  0  0
    7.6895    3.3711  -17.8304 O   0  0  0  0  0  0  0  0  0  0  0  0
    6.8697    2.2032  -15.7132 O   0  0  0  0  0  0  0  0  0  0  0  0
    7.8967    8.1653  -18.3320 O   0  0  0  0  0  0  0  0  0  0  0  0
    3.6275    4.4944  -19.8722 O   0  0  0  0  0  0  0  0  0  0  0  0
    5.4671   -3.1539  -19.9197 O   0  0  0  0  0  0  0  0  0  0  0  0
    8.1231   -0.1559  -22.5233 F   0  0  0  0  0  0  0  0  0  0  0  0
    2.8598   -3.2729  -19.1543 F   0  0  0  0  0  0  0  0  0  0  0  0
    3.3302   -4.0699  -17.1574 F   0  0  0  0  0  0  0  0  0  0  0  0
    3.8028   -5.2519  -18.9752 F   0  0  0  0  0  0  0  0  0  0  0  0
    6.0072   -4.4328  -16.5692 F   0  0  0  0  0  0  0  0  0  0  0  0
    7.4601   -3.4105  -17.8768 F   0  0  0  0  0  0  0  0  0  0  0  0
    6.5322   -5.2939  -18.5379 F   0  0  0  0  0  0  0  0  0  0  0  0
    6.5903    2.8940  -16.9777 S   0  0  0  0  0  0  0  0  0  0  0  0
    3.9758   -0.9575  -19.4039 H   0  0  0  0  0  0  0  0  0  0  0  0
    6.3856    1.6854  -21.8119 H   0  0  0  0  0  0  0  0  0  0  0  0
    4.8761    8.3324  -19.4970 H   0  0  0  0  0  0  0  0  0  0  0  0
    4.7177    1.4625  -17.3677 H   0  0  0  0  0  0  0  0  0  0  0  0
    6.1594    0.9614  -18.3148 H   0  0  0  0  0  0  0  0  0  0  0  0
    6.1464    5.0591  -16.0872 H   0  0  0  0  0  0  0  0  0  0  0  0
    4.7287    3.9652  -15.9460 H   0  0  0  0  0  0  0  0  0  0  0  0
    5.9003    3.0076  -19.7542 H   0  0  0  0  0  0  0  0  0  0  0  0
    5.8032    5.2332  -18.5299 H   0  0  0  0  0  0  0  0  0  0  0  0
    3.3480    3.4406  -18.0964 H   0  0  0  0  0  0  0  0  0  0  0  0
    7.9628    9.4429  -23.2701 H   0  0  0  0  0  0  0  0  0  0  0  0
    6.4490   10.2927  -23.7311 H   0  0  0  0  0  0  0  0  0  0  0  0
    7.5847   11.0505  -22.5638 H   0  0  0  0  0  0  0  0  0  0  0  0
    4.7320    9.9304  -20.4434 H   0  0  0  0  0  0  0  0  0  0  0  0
    5.7352   11.3325  -20.9475 H   0  0  0  0  0  0  0  0  0  0  0  0
    4.5995   10.5747  -22.1148 H   0  0  0  0  0  0  0  0  0  0  0  0
    5.2653    7.5743  -21.4768 H   0  0  0  0  0  0  0  0  0  0  0  0
    5.1030    8.3192  -23.1032 H   0  0  0  0  0  0  0  0  0  0  0  0
    6.6076    7.4423  -22.6630 H   0  0  0  0  0  0  0  0  0  0  0  0
    3.9043    2.2325  -21.0132 H   0  0  0  0  0  0  0  0  0  0  0  0
    3.3479    1.2989  -19.5830 H   0  0  0  0  0  0  0  0  0  0  0  0
    5.0259    6.7778  -15.8453 H   0  0  0  0  0  0  0  0  0  0  0  0
    3.9712    7.9517  -16.7033 H   0  0  0  0  0  0  0  0  0  0  0  0
    7.9676   10.1145  -20.4007 H   0  0  0  0  0  0  0  0  0  0  0  0
    8.2603    8.4799  -21.0855 H   0  0  0  0  0  0  0  0  0  0  0  0
    5.0938   -2.3361  -18.0243 H   0  0  0  0  0  0  0  0  0  0  0  0
    8.4014   -2.3788  -22.0849 H   0  0  0  0  0  0  0  0  0  0  0  0
    8.0702   -3.0447  -20.6312 H   0  0  0  0  0  0  0  0  0  0  0  0
    3.7157    6.3868  -18.4461 H   0  0  0  0  0  0  0  0  0  0  0  0
    3.0951    5.2288  -19.5897 H   0  0  0  0  0  0  0  0  0  0  0  0
  1  4  2  0
  1  6  1  0
  2  4  1  0
  2  7  2  0
  3  8  1  0
  3  9  2  0
  4 18  1  0
  5  6  2  0
  5  7  1  0
  5 26  1  0
  6 32  1  0
  7 33  1  0
  8 19  1  0
  8 25  2  0
  9 20  1  0
  9 30  1  0
 10 12  1  0
 10 40  1  0
 11 13  1  0
 11 40  1  0
 12 14  1  0
 12 18  1  0
 13 14  1  0
 13 27  1  0
 14 31  1  0
 15 22  1  0
 16 22  1  0
 17 22  1  0
 19 27  1  0
 20 22  1  0
 21 23  1  0
 21 24  1  0
 21 32  1  0
 23 34  1  0
 23 35  1  0
 23 36  1  0
 24 37  1  0
 24 38  1  0
 24 39  1  0
 25 30  1  0
 28 40  2  0
 29 40  2  0
  1 41  1  0
  2 42  1  0
  3 43  1  0
 10 44  1  0
 10 45  1  0
 11 46  1  0
 11 47  1  0
 12 48  1  6
 13 49  1  6
 14 50  1  1
 15 51  1  0
 15 52  1  0
 15 53  1  0
 16 54  1  0
 16 55  1  0
 16 56  1  0
 17 57  1  0
 17 58  1  0
 17 59  1  0
 18 60  1  0
 18 61  1  0
 19 62  1  0
 19 63  1  0
 20 64  1  0
 20 65  1  0
 21 66  1  0
 26 67  1  0
 26 68  1  0
 27 69  1  0
 31 70  1  0
M  END
>  <OMEGA_C>  (4) 
i5OaQK29Sr8dWKDB5TXGQJrwMz81QKvBJSa5QJQvA0GucZfBU7CiQFmA/T6De6TBq8bZQNod07/o
kqnBvTy2QBwP778Y4qLBj6/hQHrWu75Fya3BGX68QFLB9EBsxozB/ZThQHpRCEHsvZrBnSCyQJ4R
6T+7v4/BTqmxQOw7iUCkzITBYT2hQNR3J0BVi5nB5g2fQHrxm0A8Q4/B/zWFQGDJdEAt0pXBSv7k
QMCUIUHkSbfBizCpQI0jJkHpOKrBXbC5QE5yAUGfSbLBAFqHQCwS1j9C/qDB12iWQBZs5EBnqIbB
+CbwQBtaEkH6KKXBEfGkQPxRVMCZI5TBIDzNQASVFkGs8K3B5LdwQI4MgMAIipPBHtjJQENihMBA
4I7BVf7kQKyg80AYFYrBD4D1QDThLMCT2qvBEiqCQFCewEB9rozBvRD2QD/AV0C9pI7Bv9TbQFEB
DUAmaXvBiLH8QBulAkHkp5LB/ChoQETSj0A3+p7BV/KuQBDZScCWW5/BLfgBQVyvH77QL7TB8AY3
QKh2UcD7O5nBZyFVQKw8gsBMQonBHmFzQFIPqMAkzZfBnzrAQODZjcDGjYTBErnuQPJFWsC5A4/B
KQjRQIBnqcCoTZTBBuTSQEs3OUBr0ofBHnR+QHIfdb8dO5vBilbMQOm51z/Pfq7BKwmcQHNRBUHh
+ZvBEfeWQM4yuz8X8YrB5hnFQMwgdj+4hJLBPq/EQFvkoUCvsoDBIlGXQHPFfUCuIn/BIc+8QFd8
QECqCJ7BdrO5QGl2p0BMPZTB80RWQG8zXECDxZDB8c7+QOoVF0E1KbrB4l3OQP6uJEFM2b3BerXy
QMXOMEGYgrTBUWyXQMPiHkEGjKPBeoa3QMJRNUFklKfB4y6TQPwxKUEY67DBP32oQEJg8kCH0KvB
ZEujQEIbBUFg07jBuHHTQHIn7kDiTbXBHuB5QFbhDkAJG6jB/UNWQL1Cpj/5qZzBNNSgQNTj2EAw
hn3BZid+QAN0/kBgoIXBrPb+QA/VIUGuNKPBVyoEQZytB0Eqr6jBIACjQFGCFcDHMZDBFGwGQfw9
GMDqrbDBeh8BQaTbQsCpDKXB1c5tQK9gzECZkZPBuhVGQPBRp0DEt5zBPoWaQJSnSr+XYaDBpn3G
QEsNND9vM6vBdM64QEXKAkEpjpfBztqiQGL0/T65d6TB5NLZQFdO079njqnBAie2QPEB77+q6KLB
LeXhQAR6vL52va3Bure7QMrK9EAQyYzBCWXhQD3UB0ESx5rBSZuyQJpv6T8zwY/BI8axQJ9ciUDz
zYTBoouhQAqCJ0CJi5nB9gafQATvm0D9Q4/Bo2SFQNiOdECo0pXBATO5QC4BAkHFm7LBBC3mQPrb
IUHcH7fB78WqQBVYJkHR7KnBfpWHQDke1j+2+KDBb52VQBNi5ED4sYbBNqXwQBlREUGsQqXBfdWl
QPIzVMDEIJTBsOvNQFeTFkGU8K3Byv50QK4zgsDTYZPBkz/MQAsPgsAZ3I7BIxXkQNwM9ED094nB
BXH1QNYhLcAQ2KvBdsSBQB1UwEAHsozBoVD2QIqeWEDiqI7BJVLcQAaqDUDnbXvB9hz8QLOVAkHu
ipLBAGZoQBWlj0B9+57BuZiuQB6wScBCaJ/BHhwCQUS6Ir6KHrTBxCA2QC6tUcBmbZfBenRhQGyn
i8CjE4nBSPR2QCzqpsDBPZnB6fvPQD16qsAKwJLBUe7GQCLeg8C2FoTBcoLxQHzRWcA55JDBMTzT
QMTCOUC61IfBNQ1+QPgYdb87UZvB7sHMQBXg1z8iaq7Bb+abQMy3BEEZMZzBN4aXQBT6uj//8IrB
fLbFQAqvdz/lh5LB9q/EQKwhokCltoDBA4KXQD7JfUBdIH/BzQW9QD6sQECZDp7BRJK5QCavp0As
PpTBX7BWQOnCW0DWx5DBo6CnQKoh80DZQazBV/GiQJdiBkGTELnByVrSQKj87kAl0LXBikf1QNeK
MEHQE7TBpfX+QMsVF0GcSrrBNIzPQA76JUEKi73BnAO6QGrLNEG5pqbBAduVQM/NKkFqpLDBoqGX
QIqPHkEJpqPBLjZ6QH7eDkCsFKjB785WQARipj+Ln5zBIe2fQFIb2UD8iH3BfC98QJFJ/kB5vIXB
Q7sAQcRQIEEwYqPBZ6EDQSTiBUFO1qjBIF2iQAdQFcABRZDBrnMGQZGIGMDforDBdQQBQetwQ8Dq
CaXBWLtsQOvpy0AklpPBuyRGQOIUp0CcuZzBtAabQIo/S78ZHKDB7l7FQC6TND/2TavBYqy5QFI0
AkExoJfBCDyiQCtH+z5maaTBO7HZQLvq0b9apqnBxP+2QD9r7b/usqLBmgnhQLQet7526a3BWnq8
QME19EAbzozBpFDiQF36BkGz5ZrBx5KxQFmw6D9Jr4/BCEOxQOw3iUCGyITBTrCgQBgbJ0BIfpnB
iKWeQKjbm0CAQI/BLMCEQNCmdEDEzJXBpDCtQJ7IJkHM6KnBFBW4QGANAkFRhrLB5E/nQGLkIEEA
R7fBir2GQM/a1D9w5aDB/iKWQN+A5EBZsobBX4rxQPFxEEHoYqXBIumzQCR5UMCeQpPBurnOQLU5
FkFi963BrcqPQCDLh8BvL5DBSAniQOKHb8BfFZDB0NvkQEQP80ByAorB9RP1QNpcLMDLIazB186B
QPWhwEB4r4zBM531QIgtV0CSn47BdlHbQA/cDEAzU3vBJwf9QDulAUECrJLBPI1nQFK/j0Df+Z7B
AZGwQCCQR8C1wp7BAHoBQXhRD75EaLTBWhpTQHbbbcDoRZPBqLSOQPZGjsAndoXB9DGVQPffrcBE
SZXB5wzkQKDAgcBjhYXBL1z/QELOMMAD6ZHBq6XtQH26msBU3pXBWGnSQKT7OEByyYfBJiyAQMY5
d7/52JrB+QzLQI0c2D/nlq7BFMecQGogBEFWRJzBIWiWQMs1uz9R3YrBo3zEQInedD/xcJLBJVjE
QA/ioUCgs4DBjOuWQDnvfUDmE3/BOkK8QOjeP0AkAZ7B40y5QLlPp0BlPJTBazBVQGhRXEDTwZDB
rdK9QAPsNEEkuKbBFWWYQKqfK0GblbDB/aeZQFV/H0FCj6PB2kPQQBIl7UDQV7XByZmkQIQt9UBp
N6zB4VajQBe3BkHCPbnBQXL/QH+0FUFOZrrB+rvQQFQaJUEmsb3B6D/3QD53L0EaXrTBwx54QFse
DkD6/qfBjmFVQCZ9pD/RhZzBh0GgQDgx2UBqg33BBf59QP3D/kAlxIXBNI0BQT85H0HVf6PB8b4D
QTLQBEF8D6nBgs6tQG+gEsDFV4/BbOsFQczRF8B3IrHBjFABQYBVQsDhbKXBwwhtQINRzEDIk5PB
uJVFQO9Qp0CZvJzBeuCaQHkTSr+GVaDBBtPGQKaZMj9FOqvBSqe4QMW4AkE2o5fBQkCjQNLk/T4T
d6TBcN3ZQOpl1L8Tk6nBuly2QEBV77+92aLBigjiQFqXwb7OyK3BTpW7QBTy9EBT1ozBhDXhQIbZ
B0GP2ZrB6JuyQACW6T9muo/BctOxQKF8iUDQyoTBEr+hQOihJ0DIiJnBKhGfQDcEnEBRQo/BU4CF
QO6cdEAK0pXBRBe5QACPAkGmvLLBKOHlQCugIkELBLfBWmaqQDqhJkGnzanBqPqHQOBx1j/yAaHB
IIyVQIKM5EDJuIbBxGnwQBuMEUE7SaXB9JWkQNLAU8D8DZTBoKnNQL8HF0EA7K3BP8txQDeDgcBD
l5PBahnKQMYggsALfo7BlPLjQKRQ9EBBBYrBOEL1QLXyLcBB6KvB3r6BQN9mwEAhs4zB1Gr2QCZR
WECqmY7B/ijcQJqqDUDaU3vBGPb7QJaZAkHFn5LBkIloQJCgj0A1+57BXOauQAvJScCLRZ/BjCMC
QYhuMr4PNLTBpa80QF+NUMBDFJjBc7taQHTdicBLVonBBtt0QGDGpsCAN5nB7M3CQEIYhcB6z4PB
xHzvQF7wWMBr94/BKuPOQP8YqsCNmZLBtjjTQMC/OUAMyofBBeJ+QPw5c79hPZvBWjLNQDkB1z9O
c67BRcSbQD5/BEH8S5zB2W+XQMt2uz8P74rBFq7FQFKGdz/he5LBoszEQK1CokBYuIDB1o2XQK8+
fkBkFH/Bb0+9QNXoQEDSAJ7BvJu5QFrLp0C2O5TB1vFWQOG4W0Bzx5DBFY+nQCLU80C6cqzBcNKi
QP4UB0FzKrnB91LSQO9b8ECaArbBst30QHA+MUFU27PBycD+QEX9F0EjQbrBQkDPQEzkJkH7aL3B
44m5QCADNUE0babBbHiVQB0+K0EKfrDB6UqXQC2kHkG/laPBpHd7QE8TD0B3IqjB7U9XQA3qpj+A
tZzBxuqfQGxd2UDelH3B4Ph7QB1s/kBVxYXB/qYAQcZ8IEHTVaPBknoDQV0rBkEz76jBYgKhQOqm
FMCsQZDBQU4GQfmaGcDuv7DBtAIBQX9NRMDCH6XB7plsQN3oy0AqmJPB0C9GQCcIp0DRuZzBfgib
QB77Tr/nlJ/BlODCQI71Nz8XIKvBDiS6QPzVAUEt0pfB8IqgQMTE8z75DaTByjrZQJuLzb90j6nB
Nru3QGkv7L8rSKLBgkDfQCQSo77y1K3BHni8QMiv80BZ94zB8vviQDR4BkGD/prBQq+wQAeE5z/A
bI/BqhOxQLA/iUD8v4TBVIGfQNy4JUCMQ5nBDFmeQM+Xm0B+PY/BziaEQFI9dEBxtJXBoNS6QPdi
AUG+27LBlJPpQEevIEGRQLfBaEKuQPjWJUHSGarBpNCEQFPg0D8paKDBcPeVQAN45ED32IbBpuDy
QMXSD0ExcKXBxnK5QBrgT8A8xJLB2JLQQOahFUGcH67B+NCZQFlli8BaVo/BquPpQOThZMC+KJDB
sL/kQGg18kDUGIrByp30QN7mKMAseazBmpGBQFNxwECFu4zBMAj1QMbEVUASoo7BeP7aQM0PDUBh
EXvB2FD9QIESAUH8tZLBKZlnQIdhj0DW+p7B0s2yQNb6RsD4Np7BQUsAQWAvkb2LcbTB35BjQPY3
gcDd2ZLB0oeYQN/tjsCyhITBxJqlQMZlscCqv5PBBrX/QDioG8AY7Y3BBnP9QPnxhcD5jZjB2ALu
QPvQjMCjk4fB3PHRQGiLOECGsYfBvvaAQNlgf79jHZrBa1/HQBkr2j9BeK7BKnSdQJjHA0FKipzB
KqeVQPdYuz+xgorBcl7DQEHrcD8uJ5LBxFrEQBj4oUBbv4DBH8qWQF+gfkDI5n7BKfC6QD4jPUDb
753ByfG4QI3XpkCoRZTBDVhTQAk0XUAlrJDBa7eoQEFC8kDxiqzBZOqkQNkeBkFFU7nBznbTQIck
7UA5ELbBlGb5QF4hL0GKJrTB1OoAQUueFUHya7rBPknTQOAqJUH+rr3BEj++QJ8LNEEoyKbB366Z
QHGlKkH80rDBVJ2aQB5EHkGD26PBr/FxQNeMC0Cnb6fBdQlTQDtHnz+6y5vBDeqfQHWC2UD7uX3B
wOF9QCPj/kBsBYbBWEACQdaQHkFzhKPBunEEQQkcBEEbBqnBRc2wQCsPFMAGqY7BMS8FQen7EsBy
qbHB9rcBQZ1kP8Dc9qXBrWBsQI7jy0Dqo5PBgzxGQMFQp0DY15zBfIaZQCqLPr9p4qDBXvLGQJi6
Oz+sfKvBtrWkQK4SBUH0mZfBjmCiQHBGCT+gDqXB8fPZQA8kz79AdKnB8ni1QINw6b/qDqPBEqni
QHTvrr4Irq3BiYW2QE2/9kAtI47BhinFQL1HD0GHqJzBCYmxQBv94j8FPZDBbz2yQKlRhUAhk4TB
sYWhQPDXJ0C52pnBjSagQMAomkBg0Y7B+AmGQEQAdUDC4JXB1lvCQHvJKUGQa7jBdB68QBWVAkFv
ELTBo0sAQXjlFkHa2K/Bi4mHQJLw3D/Jo6HBisGZQALn4UB3IobBCOe8QLoZH0FfdaXBCZKiQLJZ
UMBdT5TBWDPPQItCGEHCWrDBLD9tQLLZfsChCZTBoITHQCEOgcCMr47B0EDgQGfB+0D9O47Be7b1
QOhgK8AmdqvBFpqDQOW2vUBufIvBjDT2QIoCUkDFlI7BruXaQNK2AkArHHzBNETqQJsqCkFzc5fB
rFJsQOXlkUDd4p7BcYGtQHqTRsA4fZ/BxPQCQahMEL7uwLPB6EkwQMKIScC+AZjBRwBXQB5wisDX
6YnBk+1uQH4wo8AnQZrBT5jLQAgSqcCd0JLB7Pe/QB/5g8AnA4TBy1TtQDQkWMDlF5DB6arSQD4w
MkAu+YfB6sh6QH22Zr+RBpzBhrDNQIgY2z8NvK7BzL+DQLxXBEFwLJrBa/WVQH3vtD+HlovBY/7D
QGTQaT/aNJPBaIPFQPbznEAWLoDBs5yXQGDrdEDp/37Bu4e9QF4dQUDXJZ7Bqty6QO7opkCtlJPB
rYVWQKnwW0AVGpHBesHPQIw7OUHV2rXBveLOQK+tJUEiYsDB8kOfQOfzKkGAx7jB+B3FQG3v60DW
Wq7BRAqZQBzXA0EEb7TBDqnIQMch/UCmCbzBFgYFQe9rCkFzG6rBq5sGQSDmEkGP0LfBStEGQTNn
JkGsQq3Box59QIL5E0CmvajBX+RUQNQzrz/dl53BW8OsQJbo1UBLuX7Bzw+CQLoq+UANN4PBVhma
QA0jIUFCS6bBsn/LQGx3LkF9M6PBZymfQEhMEcBbfZDBeOIGQaJEF8B7GbDBE7oAQdhIQcChiqTB
5M9pQO0GyUBqAZLB5ONKQMVcqUDgdZzBzaKbQIHmQr+FHqDBhA3EQK0QOj+v26vBioqxQKo0CEGE
RZfBFdGhQLVmBD89r6TBQSnZQEoNzr8NG6rBzLy3QAOp6L8ewaLB8nvfQOYArL47m67BVrm8QMeW
90DK6I3BPMrWQAPQDkHu45vBn0WvQMS94j+YkY/BnAOwQAukhkA8P4TBq7qgQLzSJkCkYpnBl02g
QKMQm0COzY7BgtiFQA85dkDlvpXBZJ3RQKtnJUHusbjBKwGaQECCDkFI3K/BtnzkQFsJAEFt4bLB
97WGQG0s2T/VFaHBBWWbQFCB5EAkqYbBhu3ZQIv4HUFkPaXBOKi8QGVWSsBD+ZLBz1HKQM47FEFQ
A7DBE62lQMxTjsA4OI/B0mruQKmqS8DHsZDBeJvmQCcG9kDiL43B85H0QIUOKsBPtqzBBwiFQKfJ
wEDQOIzB1dD0QP1zTkAHbY3ByMbVQKlFA0BJDXrBx5j3QB23BkEb8JXBnJxtQBbVkUB58J7B8Bmz
QGcURMD6Up7BuiYAQci3AL5FdbXB7rF4QJidjcDfs5LB9HilQC+ikMAdYoTBf0e5QL6LscBZU5PB
U9P2QEodYsDDZobBJ6X/QEt0+b+4O5LBPoYBQQLrgcA4OJfBMcfPQNvdMUBoHIfBgn+BQMgkbr9z
oZrBFTrJQMp02j/WQK/BJpSRQO+bC0E7FZrBpv6SQN7ctj9UGovBxcPBQOmAZj87T5LB30HDQB4T
nkAyjn/Bqz+UQMQOekBWzX7BoVa9QL3kPUDMn53Bx0q8QF6OpUBSc5PBPT9VQFBIX0DL9ZDB0bnz
QCu4KUGN8rjBV83HQGALH0FlhsDBloG+QIaxM0GnzbbBZwqUQE5EAkFit6nBizWHQDvtHEHNBK7B
TIGQQBVHCEGLvbfBk3PfQE5t50CcuazB1/TZQBXC80BZsbrB3FYDQbwlBEFYRLPBB9l5QKb6EUDl
IKjBVjRUQN1zqT8+6pzBzOiqQDY52ED7w37BX/mDQLBI/UBCeYTB2FvGQLcqLEHleKPBNpj7QAzD
IkHqKqbBtb6uQF9jE8Awto7B6CYFQRe5FcBZAbLB+rQBQQqPPsC/GqbBaR5yQDUmzEBhE5PB/wNN
QETmqUCGtpzB

>  <OMEGA_E>  (4) 
OGOCPkAngz5oBJg+UPOAPiC7pz5kubA+SCLJPg==

>  <OMEGA_NBR>  (4) 
    112330

$$$$
