50216783
     RDKit          3D

 78 82  0  0  1  0  0  0  0  0999 V2000
    8.3317    8.3003  -18.5664 C   0  0  0  0  0  0  0  0  0  0  0  0
    7.3295    7.8032  -17.7157 C   0  0  0  0  0  0  0  0  0  0  0  0
    7.9922    8.8473  -19.8183 C   0  0  0  0  0  0  0  0  0  0  0  0
    5.3870   -0.6426  -20.3816 C   0  0  0  0  0  0  0  0  0  0  0  0
    5.6386    8.3868  -19.3755 C   0  0  0  0  0  0  0  0  0  0  0  0
    6.7203    0.9434  -21.6929 C   0  0  0  0  0  0  0  0  0  0  0  0
    6.3191   -1.6498  -20.7139 C   0  0  0  0  0  0  0  0  0  0  0  0
    5.9791    7.8548  -18.1149 C   0  0  0  0  0  0  0  0  0  0  0  0
    6.6370    8.8999  -20.2404 C   0  0  0  0  0  0  0  0  0  0  0  0
    5.5910    0.6647  -20.8861 C   0  0  0  0  0  0  0  0  0  0  0  0
    7.4646   -1.3627  -21.4804 C   0  0  0  0  0  0  0  0  0  0  0  0
    7.6586   -0.0670  -21.9840 C   0  0  0  0  0  0  0  0  0  0  0  0
    5.0105   -3.8699  -20.5249 C   0  0  0  0  0  0  0  0  0  0  0  0
    6.8480   -3.2551  -18.8189 C   0  0  0  0  0  0  0  0  0  0  0  0
    3.9393   -3.6291  -19.4417 C   0  0  0  0  0  0  0  0  0  0  0  0
    5.7563   -2.9199  -17.7913 C   0  0  0  0  0  0  0  0  0  0  0  0
    7.4155   -3.6686  -21.2406 C   0  0  0  0  0  0  0  0  0  0  0  0
    5.9424    1.9367  -18.2612 C   0  0  0  0  0  0  0  0  0  0  0  0
    5.7411    4.3433  -16.7901 C   0  0  0  0  0  0  0  0  0  0  0  0
    5.4268    2.7532  -19.4759 C   0  0  2  0  0  0  0  0  0  0  0  0
    5.2293    4.9574  -18.1114 C   0  0  1  0  0  0  0  0  0  0  0  0
    4.4943    3.9179  -19.0058 C   0  0  1  0  0  0  0  0  0  0  0  0
    6.3520   -3.1141  -20.2863 C   0  0  0  0  0  0  0  0  0  0  0  0
    4.4994   -3.7861  -18.0115 C   0  0  0  0  0  0  0  0  0  0  0  0
    7.4302   10.0613  -22.4102 C   0  0  0  0  0  0  0  0  0  0  0  0
    5.2402   10.6799  -21.3641 C   0  0  0  0  0  0  0  0  0  0  0  0
    5.5346    8.4233  -22.4679 C   0  0  0  0  0  0  0  0  0  0  0  0
    4.6811    1.8038  -20.4561 C   0  0  0  0  0  0  0  0  0  0  0  0
    4.8973    7.2873  -17.2164 C   0  0  0  0  0  0  0  0  0  0  0  0
    6.2255    9.5067  -21.6016 C   0  0  0  0  0  0  0  0  0  0  0  0
    8.2492   -2.5095  -21.5779 N   0  0  0  0  0  0  0  0  0  0  0  0
    4.2850    6.0753  -17.8223 N   0  0  0  0  0  0  0  0  0  0  0  0
    7.9784    3.5733  -17.9560 O   0  0  0  0  0  0  0  0  0  0  0  0
    7.1211    2.2662  -15.9376 O   0  0  0  0  0  0  0  0  0  0  0  0
    3.9980    4.6197  -20.1485 O   0  0  0  0  0  0  0  0  0  0  0  0
    8.7487    0.2103  -22.7336 F   0  0  0  0  0  0  0  0  0  0  0  0
    3.5457   -3.3947  -17.1293 F   0  0  0  0  0  0  0  0  0  0  0  0
    4.8019   -5.0941  -17.7823 F   0  0  0  0  0  0  0  0  0  0  0  0
    6.8655    3.0094  -17.1772 S   0  0  0  0  0  0  0  0  0  0  0  0
    9.3661    8.2626  -18.2584 H   0  0  0  0  0  0  0  0  0  0  0  0
    7.5941    7.3821  -16.7570 H   0  0  0  0  0  0  0  0  0  0  0  0
    8.7691    9.2302  -20.4635 H   0  0  0  0  0  0  0  0  0  0  0  0
    4.5357   -0.8648  -19.7552 H   0  0  0  0  0  0  0  0  0  0  0  0
    4.6043    8.4034  -19.6857 H   0  0  0  0  0  0  0  0  0  0  0  0
    6.8640    1.9380  -22.0885 H   0  0  0  0  0  0  0  0  0  0  0  0
    5.2254   -4.9480  -20.5619 H   0  0  0  0  0  0  0  0  0  0  0  0
    4.6002   -3.5444  -21.4922 H   0  0  0  0  0  0  0  0  0  0  0  0
    7.6966   -2.5719  -18.6667 H   0  0  0  0  0  0  0  0  0  0  0  0
    7.1781   -4.2917  -18.6567 H   0  0  0  0  0  0  0  0  0  0  0  0
    3.5450   -2.6086  -19.5562 H   0  0  0  0  0  0  0  0  0  0  0  0
    3.1250   -4.3548  -19.5834 H   0  0  0  0  0  0  0  0  0  0  0  0
    6.1467   -3.1046  -16.7796 H   0  0  0  0  0  0  0  0  0  0  0  0
    5.4831   -1.8591  -17.8909 H   0  0  0  0  0  0  0  0  0  0  0  0
    8.0144   -4.4468  -20.7449 H   0  0  0  0  0  0  0  0  0  0  0  0
    6.9470   -4.0862  -22.1439 H   0  0  0  0  0  0  0  0  0  0  0  0
    5.0875    1.5108  -17.7155 H   0  0  0  0  0  0  0  0  0  0  0  0
    6.5934    1.1237  -18.6149 H   0  0  0  0  0  0  0  0  0  0  0  0
    6.2660    5.1116  -16.2034 H   0  0  0  0  0  0  0  0  0  0  0  0
    4.8918    3.9548  -16.2089 H   0  0  0  0  0  0  0  0  0  0  0  0
    6.2911    3.1883  -19.9989 H   0  0  0  0  0  0  0  0  0  0  0  0
    6.0915    5.3483  -18.6717 H   0  0  0  0  0  0  0  0  0  0  0  0
    3.6612    3.4873  -18.4308 H   0  0  0  0  0  0  0  0  0  0  0  0
    7.0723   10.4770  -23.3636 H   0  0  0  0  0  0  0  0  0  0  0  0
    7.9285   10.8517  -21.8297 H   0  0  0  0  0  0  0  0  0  0  0  0
    8.1433    9.2479  -22.6096 H   0  0  0  0  0  0  0  0  0  0  0  0
    4.9457   11.1136  -22.3311 H   0  0  0  0  0  0  0  0  0  0  0  0
    4.3464   10.3080  -20.8418 H   0  0  0  0  0  0  0  0  0  0  0  0
    5.7293   11.4508  -20.7504 H   0  0  0  0  0  0  0  0  0  0  0  0
    5.2430    8.8578  -23.4355 H   0  0  0  0  0  0  0  0  0  0  0  0
    6.2315    7.5890  -22.6359 H   0  0  0  0  0  0  0  0  0  0  0  0
    4.6389    8.0538  -21.9472 H   0  0  0  0  0  0  0  0  0  0  0  0
    4.3682    2.3727  -21.3440 H   0  0  0  0  0  0  0  0  0  0  0  0
    3.7940    1.3894  -19.9547 H   0  0  0  0  0  0  0  0  0  0  0  0
    5.3394    7.0201  -16.2452 H   0  0  0  0  0  0  0  0  0  0  0  0
    4.1173    8.0484  -17.0672 H   0  0  0  0  0  0  0  0  0  0  0  0
    8.5966   -2.6031  -22.5109 H   0  0  0  0  0  0  0  0  0  0  0  0
    3.8537    6.3452  -18.6832 H   0  0  0  0  0  0  0  0  0  0  0  0
    3.4314    5.3274  -19.8646 H   0  0  0  0  0  0  0  0  0  0  0  0
  1  2  2  0
  1  3  1  0
  2  8  1  0
  3  9  2  0
  4  7  2  0
  4 10  1  0
  5  8  2  0
  5  9  1  0
  6 10  2  0
  6 12  1  0
  7 11  1  0
  7 23  1  0
  8 29  1  0
  9 30  1  0
 10 28  1  0
 11 12  2  0
 11 31  1  0
 12 36  1  0
 13 15  1  0
 13 23  1  0
 14 16  1  0
 14 23  1  0
 15 24  1  0
 16 24  1  0
 17 23  1  0
 17 31  1  0
 18 20  1  0
 18 39  1  0
 19 21  1  0
 19 39  1  0
 20 22  1  0
 20 28  1  0
 21 22  1  0
 21 32  1  0
 22 35  1  0
 24 37  1  0
 24 38  1  0
 25 30  1  0
 26 30  1  0
 27 30  1  0
 29 32  1  0
 33 39  2  0
 34 39  2  0
  1 40  1  0
  2 41  1  0
  3 42  1  0
  4 43  1  0
  5 44  1  0
  6 45  1  0
 13 46  1  0
 13 47  1  0
 14 48  1  0
 14 49  1  0
 15 50  1  0
 15 51  1  0
 16 52  1  0
 16 53  1  0
 17 54  1  0
 17 55  1  0
 18 56  1  0
 18 57  1  0
 19 58  1  0
 19 59  1  0
 20 60  1  6
 21 61  1  6
 22 62  1  1
 25 63  1  0
 25 64  1  0
 25 65  1  0
 26 66  1  0
 26 67  1  0
 26 68  1  0
 27 69  1  0
 27 70  1  0
 27 71  1  0
 28 72  1  0
 28 73  1  0
 29 74  1  0
 29 75  1  0
 31 76  1  0
 32 77  1  0
 35 78  1  0
M  END
>  <OMEGA_C>  (1) 
fE4FQSnOBEHkh5TBOYvqQOWz+UDAuY3BcMD/QIWODUHli57BpWKsQMCAJL95DaPBqm+0QD8wBkH/
AJvB/QzXQNiBcT8mi63BVTbKQMMs078XtqXBE1W/QK5a+0BL65DBf2LUQCxmDkFn7KHBpemyQLoq
Kj/MFqfBXd7uQItsrr/d16vBNRP1QAo+ib1K36/BFFagQKKrd8ACM6TBriLbQAxTUMAJjZbBHx58
QKNCaMCxiJvBTzO4QG7gOsCQVI7BnUvtQI/JasCs7KnBCyi+QI3m9z/qFpLBv7a3QAT8ikAUUobB
LqitQLszMECWzpvBhFanQAijnkA+5JDBFNGPQA6+ekDcC5jBykPLQKZNR8BdSqLBa/uPQKZPcsCn
F5DB5sPtQCv7IEEESLPBlq+nQAXhKkGm6arBXRuxQPjFBkFXvrPBXsuVQFPh5j/+paPBebacQIYx
6UAju4nB6zbHQIcbGEEa0KzBnfwDQfabIMCFn6zB8R6JQOhowkAclI7BSk//QKywZEDkpY/B7d/j
QNkIEUB0AH/Bi95/QF3Uk0AlMKHBffoLQedMVz533rXB/+xiQClDWcDNCInBV6mZQAoDo8AxQo7B
FbLbQNOZQED/aonBt9sVQZgzBEE7EZLBpALzQOg57EBnDobBMU4MQROvE0E5taPBvCSRQOlgXb+0
Cp7BMFaTQCx0BkFKfJ3BrqXbQKcR+D8ttbDBvDanQCZWnsC2fqTBozSTQE/XYsAT8KvBnkr2QIKa
JMBiVZXBQ7PlQPFVicDUQJXB+OFiQJzyJsADc5zBZ/9HQL9ai8DLqpzBrbHEQACyRsCsPIbBMXWv
QGP27b+KII/B3zoAQQlMjsCL9aXBtk3eQBXCgsDKJrHBzsyiQPhhwT9guY3Bgv3SQNLVjz9k65TB
qoLIQDaSo0CioIHBVYmcQPYafUDRq4HBmlDJQMUNTEDN/Z/Be+3CQHQlq0CLX5XBsFBqQCEwX0BU
cpPBJ1DiQOihJ0G66LrB3bX9QMSgLUE9o67BHksCQYj3E0F+4LTBy0KeQE3RMUErprLB5RWLQG/t
JEHqu6bBLVa3QHc2N0HkAKbBQcanQIO5DUHse7vBJGjHQOXY8kBgFrXB3HGUQFbcAEHak6/BLciL
QKrZF0CAwKrBadByQNzWsT9Eo5/BHNyqQKik4EAx9oHBiMCDQFTGAEGdiYjB1osJQUqZJsBTFrTB
XaN2QM8Ly0A4d5XB65tbQCF6qkCq6p7BQZwFQXAmBUGC0ZTB5nTrQA8v+kA19I3Bzfb/QFbLDUF5
1J7BG4usQGe6Ib8h/6LBYtu0QKwmBkHLJ5vBG8XWQFA5dT+SkK3BOXbKQIxJ0b9SrKXBBijAQCBv
+0AyFZHBxX/UQGNvDkG6I6LBqryyQKqgLD9iFqfBTeruQDQkrL/73qvBY+r0QMT6Rb0U6K/BUIWg
QDaXdsBiFaTBITDcQDtNUMCBpJbBk3t9QIgrZ8A0SpvBdN25QFK2OsA9SI7BDC7tQFimacAFFarB
Iyy9QPp59j+SApLBJ7O3QEvaikD/SYbB+D+tQLQBMEB6vZvBxpinQI6RnkBb4pDBHaaPQOjhekAV
/pfBAp7LQKB8RsB9TqLBrkuRQMVmccBD6Y/B/2uwQPnFBkHk3bPBEyLtQL3zIEFElLPB1HmnQPvj
KkHjAavBS3qVQKKM5z+WpaPBXdOdQCla6UDVzInBbd7GQEkbGEHn/6zBT/wDQet5H8CLuqzBa8uJ
QNq0wkD+mY7BbiX/QOl4YUDIco/BskjiQFAMD0BDtX7BiE1/QJXck0BJIKHBDs0LQefqbT6p9rXB
3rVmQDWYV8AuvojBIJiaQL6oosDXGo7BWvbaQMPgPkDvSonBIDIWQYy1BEFLZ5LBwzn0QC/b7EAj
SobBiUsMQSL+E0EtCqTBonqRQEEXW79w7p3BHK+TQLdMBkHXk53BjDDbQAr8+T9SvLDBikmnQMbP
ncAmbaTBDP2SQLOFYcC+xKvBmJX3QO4NJcDtf5XBOJPmQAZvicDobpXBgT9kQAjPJcA2JpzBAStJ
QFrDisDEVpzBLtLGQJQPR8AzP4bBglixQOFL7b9zAI/B3CwAQcEMjsBwP6bBnszdQOG4gcClT7HB
kIihQK9jwT/ur43B4bTRQEdTjT/x0ZTBtOzIQFVFo0Bao4HBd1GcQIEIfkALnoHBHSzJQFCDS0CM
2Z/BFFbDQPCpqkANYZXBBRBqQJS4X0BtV5PBZcemQFi4DUGklbvBgaHGQPfQ8kDeQ7XBZ+yTQEfi
AEGDn6/BLlrhQAmUJ0FcLrvB2kj9QP+cLUF5/a7BePABQQ3uE0G6ObXBEa+dQJbTMUFBt7LBhhKL
QLD0JEFjvabBnWO3QLo4N0FCJqbBKZqLQLWCGEBzvKrBMQdyQCsesj/LsJ/BUFSsQPCp4EDoFILB
rAqFQPLnAEFQg4jBrYQJQeMXJcDHM7TB+h54QNVgy0COfpXB8VRbQKabqkA42J7B

>  <OMEGA_E>  (1) 
oMxIPQD0Tj0=

>  <OMEGA_NBR>  (1) 
      5404

$$$$
50216760
     RDKit          3D

 61 63  0  0  1  0  0  0  0  0999 V2000
    8.2678    7.9980  -18.5679 C   0  0  0  0  0  0  0  0  0  0  0  0
    7.2854    7.4639  -17.7159 C   0  0  0  0  0  0  0  0  0  0  0  0
    7.8915    8.6606  -19.7516 C   0  0  0  0  0  0  0  0  0  0  0  0
    5.5451    8.2385  -19.2414 C   0  0  0  0  0  0  0  0  0  0  0  0
    6.3651    0.5978  -21.7104 C   0  0  0  0  0  0  0  0  0  0  0  0
    4.7051   -0.7887  -20.5754 C   0  0  0  0  0  0  0  0  0  0  0  0
    5.9216    7.5976  -18.0457 C   0  0  0  0  0  0  0  0  0  0  0  0
    6.5251    8.7881  -20.1074 C   0  0  0  0  0  0  0  0  0  0  0  0
    5.1498    0.4781  -21.0033 C   0  0  0  0  0  0  0  0  0  0  0  0
    6.7101   -1.8113  -21.5180 C   0  0  0  0  0  0  0  0  0  0  0  0
    7.1453   -0.5447  -21.9669 C   0  0  0  0  0  0  0  0  0  0  0  0
    5.4768   -1.9334  -20.8390 C   0  0  0  0  0  0  0  0  0  0  0  0
    5.7300    1.6826  -18.4223 C   0  0  0  0  0  0  0  0  0  0  0  0
    5.6557    4.0525  -16.8701 C   0  0  0  0  0  0  0  0  0  0  0  0
    5.2016    2.5663  -19.5881 C   0  0  2  0  0  0  0  0  0  0  0  0
    5.1109    4.7165  -18.1547 C   0  0  1  0  0  0  0  0  0  0  0  0
    4.3129    3.7215  -19.0371 C   0  0  1  0  0  0  0  0  0  0  0  0
    6.7863    8.7039  -22.6079 C   0  0  0  0  0  0  0  0  0  0  0  0
    6.6521   10.9428  -21.4540 C   0  0  0  0  0  0  0  0  0  0  0  0
    4.6090    9.5133  -21.6771 C   0  0  0  0  0  0  0  0  0  0  0  0
    4.3833    1.7152  -20.5961 C   0  0  0  0  0  0  0  0  0  0  0  0
    4.8540    7.0059  -17.1485 C   0  0  0  0  0  0  0  0  0  0  0  0
    6.1416    9.4793  -21.4352 C   0  0  0  0  0  0  0  0  0  0  0  0
    7.5011   -2.9329  -21.7373 N   0  0  0  0  0  0  0  0  0  0  0  0
    4.2017    5.8416  -17.7995 N   0  0  0  0  0  0  0  0  0  0  0  0
    7.8374    3.2314  -18.1008 O   0  0  0  0  0  0  0  0  0  0  0  0
    6.9633    1.8989  -16.1067 O   0  0  0  0  0  0  0  0  0  0  0  0
    3.7552    4.4565  -20.1297 O   0  0  0  0  0  0  0  0  0  0  0  0
    8.3187   -0.4176  -22.6304 F   0  0  0  0  0  0  0  0  0  0  0  0
    6.7160    2.6868  -17.3205 S   0  0  0  0  0  0  0  0  0  0  0  0
    4.8383   -3.6397  -20.2598 Br  0  0  0  0  0  0  0  0  0  0  0  0
    9.3129    7.8997  -18.3140 H   0  0  0  0  0  0  0  0  0  0  0  0
    7.5752    6.9521  -16.8101 H   0  0  0  0  0  0  0  0  0  0  0  0
    8.6521    9.0765  -20.3958 H   0  0  0  0  0  0  0  0  0  0  0  0
    4.4996    8.3124  -19.5019 H   0  0  0  0  0  0  0  0  0  0  0  0
    6.6964    1.5664  -22.0546 H   0  0  0  0  0  0  0  0  0  0  0  0
    3.7694   -0.8801  -20.0439 H   0  0  0  0  0  0  0  0  0  0  0  0
    4.8797    1.2568  -17.8695 H   0  0  0  0  0  0  0  0  0  0  0  0
    6.3476    0.8684  -18.8292 H   0  0  0  0  0  0  0  0  0  0  0  0
    6.2308    4.7894  -16.2903 H   0  0  0  0  0  0  0  0  0  0  0  0
    4.8165    3.6824  -16.2628 H   0  0  0  0  0  0  0  0  0  0  0  0
    6.0619    3.0054  -20.1145 H   0  0  0  0  0  0  0  0  0  0  0  0
    5.9592    5.1022  -18.7392 H   0  0  0  0  0  0  0  0  0  0  0  0
    3.5097    3.2815  -18.4278 H   0  0  0  0  0  0  0  0  0  0  0  0
    6.5195    9.1880  -23.5590 H   0  0  0  0  0  0  0  0  0  0  0  0
    7.8800    8.7046  -22.4905 H   0  0  0  0  0  0  0  0  0  0  0  0
    6.4182    7.6673  -22.6083 H   0  0  0  0  0  0  0  0  0  0  0  0
    6.3703   11.4179  -22.4053 H   0  0  0  0  0  0  0  0  0  0  0  0
    6.2014   11.4990  -20.6188 H   0  0  0  0  0  0  0  0  0  0  0  0
    7.7473   10.9503  -21.3509 H   0  0  0  0  0  0  0  0  0  0  0  0
    4.3992   10.0151  -22.6332 H   0  0  0  0  0  0  0  0  0  0  0  0
    4.2203    8.4848  -21.7099 H   0  0  0  0  0  0  0  0  0  0  0  0
    4.1210   10.0637  -20.8593 H   0  0  0  0  0  0  0  0  0  0  0  0
    4.1733    2.3196  -21.4908 H   0  0  0  0  0  0  0  0  0  0  0  0
    3.4354    1.4134  -20.1267 H   0  0  0  0  0  0  0  0  0  0  0  0
    5.3165    6.6791  -16.2054 H   0  0  0  0  0  0  0  0  0  0  0  0
    4.0945    7.7732  -16.9378 H   0  0  0  0  0  0  0  0  0  0  0  0
    7.0479   -3.7401  -21.3590 H   0  0  0  0  0  0  0  0  0  0  0  0
    7.6376   -3.0573  -22.7201 H   0  0  0  0  0  0  0  0  0  0  0  0
    3.7651    6.1626  -18.6399 H   0  0  0  0  0  0  0  0  0  0  0  0
    3.2133    5.1610  -19.7942 H   0  0  0  0  0  0  0  0  0  0  0  0
  1  2  2  0
  1  3  1  0
  2  7  1  0
  3  8  2  0
  4  7  2  0
  4  8  1  0
  5  9  2  0
  5 11  1  0
  6  9  1  0
  6 12  2  0
  7 22  1  0
  8 23  1  0
  9 21  1  0
 10 11  2  0
 10 12  1  0
 10 24  1  0
 11 29  1  0
 12 31  1  0
 13 15  1  0
 13 30  1  0
 14 16  1  0
 14 30  1  0
 15 17  1  0
 15 21  1  0
 16 17  1  0
 16 25  1  0
 17 28  1  0
 18 23  1  0
 19 23  1  0
 20 23  1  0
 22 25  1  0
 26 30  2  0
 27 30  2  0
  1 32  1  0
  2 33  1  0
  3 34  1  0
  4 35  1  0
  5 36  1  0
  6 37  1  0
 13 38  1  0
 13 39  1  0
 14 40  1  0
 14 41  1  0
 15 42  1  6
 16 43  1  6
 17 44  1  1
 18 45  1  0
 18 46  1  0
 18 47  1  0
 19 48  1  0
 19 49  1  0
 19 50  1  0
 20 51  1  0
 20 52  1  0
 20 53  1  0
 21 54  1  0
 21 55  1  0
 22 56  1  0
 22 57  1  0
 24 58  1  0
 24 59  1  0
 25 60  1  0
 28 61  1  0
M  END
>  <OMEGA_C>  (2) 
4UgEQULv/0Adi5TBACLpQI3Y7kASuo3BT4f8QOyRCkFJA57BS3GxQLnQA0FQ7pnBAq/LQK4KGT/f
rq3BUZCWQMrmSb9+mqTBu329QCgf80CFXZDBV83QQPCbDEHk26DB68qkQE/F9D7GBqjBbrnWQJ3X
57/HJKzBpabkQKhzC79CvK/BuUGvQCl6979EtqbB4Fu3QINg1z/1YJPBL/u0QFaugUDq9YbBvnOm
QN49JEBjtJzBnIyjQGftlkDePJHBrAOKQM4tbkD6S5jBbynZQDhDC0EC3bTBSd7UQM0VL0HNoavB
M32TQE02GEGpaq3B0UOMQNuK2z/axKTBU1SbQDYw4EALMInB14fEQEyrF0FTe6vBwAjwQFi0O8AI
5q3BkXSGQAjuukBWZY7B4Mv6QMbOTkBbzpDBINPeQCsP8z+H2oDBElVwQA2cjkCZCaHBiBkFQWDM
1b4bC7XBSunWQMjzK0BmkIrBB9OaQIDxaMARFKLBrQEVQRbK/EAbg5LBLGjyQPh33kD9eobBH28K
QU45EUGAKqPBpvyPQKH/BEHpA5zB8kjWQKN/yD/kb7DBlD5xQNtQYb/dWaDBXyacQJbdoD+y9I7B
qx/LQIxOXj8lopbBDWPHQCZDmUCPUoLBAyGaQNyra0AhGoLBEPvBQC5ZQEBn6qDBoLG+QEhFo0Dz
6ZXBmJ9gQCoEUkAsbJPBjZ/QQOsBE0HAeLzBIyn8QAJGC0GC7LPBDmLNQLla9UDI3bTBJNnLQJKv
NkH3PbPB8XHGQPP7N0Fi86TBnun3QI00L0GtzqrBWMaMQAQ+IEG2ELXBkQyHQJrBB0H5ra3BO9+D
QB4FIUHT36bBUYuFQPR0FEA67avBzdxbQGjrtD9pA6HBYSCqQOm61UCnpIHBQQaDQOm9+ECngIfB
mYjhQB5db8A636rB5Wb0QD2rQ8DLwrXBrvZwQLAzxUB6HpXBc6ZNQBwnpUCGWp7Bfp4EQeTJ/kC9
AZTBADLpQN/57UBVVI3BRwP+QDFECkE5dZ3B3n6yQGIzBEEkm5nBocrKQD7IFz+UB67BXSeXQJzj
SL9TWaTBwsK9QNQJ80C/F5DBqH7SQAPsDEG5X6DBNIOkQFjd8z7RHajBeIbWQG7O57++Q6zB2sbj
QBp9DL9TG7DBuu2vQCzI9r9ncqbBl/y2QMHj1j8bfZPBwJS0QKNugUAQBofBODmmQH4tJEAG0JzB
QmGjQHLjlkDjTJHBNt+JQBRabkCaaZjB4mDbQLflLkFeXKvBcUaWQKXfGkEGrazBoOXYQMfFCkEA
YLTBpgGMQLKB2z/P4KTBiQSbQCH+30ApHInBSDHHQAY9GEHJ/arBg57vQIq+O8BBLK7Be0+GQIH3
ukCXeY7BH3z6QDsITkAj1ZDBxCfeQH8m8T9L74DBiIhwQDvVjkByKaHBglcEQXWl2b70sbXBbXXW
QFBRK0BAoYrBPuScQFrwZ8DOO6HB+kIVQd4D+0Cy4ZHBe9fxQKMz3UBdF4bBIGsLQSmpEEFhjKLB
6i6RQGHEBUHpxJvBpurUQOB1xz8n9rDBzZ5zQFNrX7/Q1p/Bu7ObQKJcoD+GGI/B0MDKQFNcXT+W
vpbBMPrGQCjkmEA8WILBhpyZQFMxa0BaNILB+dDBQAYYQEBiBKHBI6S+QFMzo0Bk8JXBpQpgQDxR
UkByk5PBAwHTQGazNkEz97LBfBLPQIp/OEFkqKTBKGL+QOaQLUHrt6rB5VGQQEUAI0GNVrTB8ACH
QHUEC0FkxazBY9GIQNN3JEE2HKbBNxLRQAenEkEj/7vB69f7QOBVCUF9mrPBV2HKQEp89UB0M7TB
QliFQKFnFEDOCqzBBElbQAkftT/WIKHBLT+pQD071UAihoHBH7SCQPuY+EAde4fBkK3hQIkvb8CA
7qrB1LryQOhkRMCsD7bBnoRxQL2IxUA5OZXB9PhNQCFwpUBxfJ7B

>  <OMEGA_E>  (2) 
wO/+PRD/Cj4=

>  <OMEGA_NBR>  (2) 
      6582

$$$$
50216762
     RDKit          3D

 55 57  0  0  1  0  0  0  0  0999 V2000
    8.2174    7.9920  -18.7239 C   0  0  0  0  0  0  0  0  0  0  0  0
    7.2647    7.4887  -17.8202 C   0  0  0  0  0  0  0  0  0  0  0  0
    7.7991    8.6120  -19.9163 C   0  0  0  0  0  0  0  0  0  0  0  0
    5.4686    8.2214  -19.3050 C   0  0  0  0  0  0  0  0  0  0  0  0
    6.4029    0.6092  -21.7390 C   0  0  0  0  0  0  0  0  0  0  0  0
    4.7450   -0.7514  -20.5700 C   0  0  0  0  0  0  0  0  0  0  0  0
    5.8888    7.6084  -18.1072 C   0  0  0  0  0  0  0  0  0  0  0  0
    6.4208    8.7445  -20.2121 C   0  0  0  0  0  0  0  0  0  0  0  0
    5.1927    0.5061  -21.0203 C   0  0  0  0  0  0  0  0  0  0  0  0
    6.7204   -1.8041  -21.5401 C   0  0  0  0  0  0  0  0  0  0  0  0
    7.1656   -0.5449  -22.0006 C   0  0  0  0  0  0  0  0  0  0  0  0
    5.5008   -1.9059  -20.8337 C   0  0  0  0  0  0  0  0  0  0  0  0
    5.7383    1.6794  -18.4202 C   0  0  0  0  0  0  0  0  0  0  0  0
    5.6345    4.0326  -16.8356 C   0  0  0  0  0  0  0  0  0  0  0  0
    5.2358    2.5811  -19.5838 C   0  0  2  0  0  0  0  0  0  0  0  0
    5.1195    4.7108  -18.1244 C   0  0  1  0  0  0  0  0  0  0  0  0
    4.3374    3.7293  -19.0338 C   0  0  1  0  0  0  0  0  0  0  0  0
    6.5854   10.8066  -21.6729 C   0  0  0  0  0  0  0  0  0  0  0  0
    4.4347    1.7504  -20.6217 C   0  0  0  0  0  0  0  0  0  0  0  0
    4.8605    7.0188  -17.1646 C   0  0  0  0  0  0  0  0  0  0  0  0
    5.9816    9.3941  -21.5252 C   0  0  0  0  0  0  0  0  0  0  0  0
    7.4849   -2.9396  -21.7806 N   0  0  0  0  0  0  0  0  0  0  0  0
    4.2062    5.8353  -17.7767 N   0  0  0  0  0  0  0  0  0  0  0  0
    7.8432    3.2136  -18.0234 O   0  0  0  0  0  0  0  0  0  0  0  0
    6.9140    1.8591  -16.0705 O   0  0  0  0  0  0  0  0  0  0  0  0
    3.8005    4.4793  -20.1270 O   0  0  0  0  0  0  0  0  0  0  0  0
    8.3286   -0.4373  -22.6860 F   0  0  0  0  0  0  0  0  0  0  0  0
    4.6266    9.5089  -21.5947 F   0  0  0  0  0  0  0  0  0  0  0  0
    6.3984    8.6150  -22.5581 F   0  0  0  0  0  0  0  0  0  0  0  0
    6.6998    2.6651  -17.2788 S   0  0  0  0  0  0  0  0  0  0  0  0
    4.8545   -3.5979  -20.2229 Br  0  0  0  0  0  0  0  0  0  0  0  0
    9.2708    7.9028  -18.5028 H   0  0  0  0  0  0  0  0  0  0  0  0
    7.5864    7.0107  -16.9067 H   0  0  0  0  0  0  0  0  0  0  0  0
    8.5349    8.9894  -20.6109 H   0  0  0  0  0  0  0  0  0  0  0  0
    4.4151    8.2922  -19.5317 H   0  0  0  0  0  0  0  0  0  0  0  0
    6.7437    1.5728  -22.0880 H   0  0  0  0  0  0  0  0  0  0  0  0
    3.8183   -0.8282  -20.0208 H   0  0  0  0  0  0  0  0  0  0  0  0
    4.8758    1.2448  -17.8937 H   0  0  0  0  0  0  0  0  0  0  0  0
    6.3651    0.8716  -18.8260 H   0  0  0  0  0  0  0  0  0  0  0  0
    6.2006    4.7614  -16.2369 H   0  0  0  0  0  0  0  0  0  0  0  0
    4.7816    3.6601  -16.2493 H   0  0  0  0  0  0  0  0  0  0  0  0
    6.1074    3.0266  -20.0856 H   0  0  0  0  0  0  0  0  0  0  0  0
    5.9811    5.1001  -18.6866 H   0  0  0  0  0  0  0  0  0  0  0  0
    3.5228    3.2817  -18.4455 H   0  0  0  0  0  0  0  0  0  0  0  0
    6.2542   11.2499  -22.6237 H   0  0  0  0  0  0  0  0  0  0  0  0
    6.2493   11.4381  -20.8373 H   0  0  0  0  0  0  0  0  0  0  0  0
    7.6832   10.7389  -21.6629 H   0  0  0  0  0  0  0  0  0  0  0  0
    4.2581    2.3660  -21.5160 H   0  0  0  0  0  0  0  0  0  0  0  0
    3.4700    1.4583  -20.1813 H   0  0  0  0  0  0  0  0  0  0  0  0
    5.3580    6.7145  -16.2319 H   0  0  0  0  0  0  0  0  0  0  0  0
    4.0970    7.7788  -16.9419 H   0  0  0  0  0  0  0  0  0  0  0  0
    7.0277   -3.7387  -21.3902 H   0  0  0  0  0  0  0  0  0  0  0  0
    7.5925   -3.0661  -22.7668 H   0  0  0  0  0  0  0  0  0  0  0  0
    3.7505    6.1337  -18.6153 H   0  0  0  0  0  0  0  0  0  0  0  0
    3.2526    5.1795  -19.7924 H   0  0  0  0  0  0  0  0  0  0  0  0
  1  2  2  0
  1  3  1  0
  2  7  1  0
  3  8  2  0
  4  7  2  0
  4  8  1  0
  5  9  2  0
  5 11  1  0
  6  9  1  0
  6 12  2  0
  7 20  1  0
  8 21  1  0
  9 19  1  0
 10 11  2  0
 10 12  1  0
 10 22  1  0
 11 27  1  0
 12 31  1  0
 13 15  1  0
 13 30  1  0
 14 16  1  0
 14 30  1  0
 15 17  1  0
 15 19  1  0
 16 17  1  0
 16 23  1  0
 17 26  1  0
 18 21  1  0
 20 23  1  0
 21 28  1  0
 21 29  1  0
 24 30  2  0
 25 30  2  0
  1 32  1  0
  2 33  1  0
  3 34  1  0
  4 35  1  0
  5 36  1  0
  6 37  1  0
 13 38  1  0
 13 39  1  0
 14 40  1  0
 14 41  1  0
 15 42  1  6
 16 43  1  6
 17 44  1  1
 18 45  1  0
 18 46  1  0
 18 47  1  0
 19 48  1  0
 19 49  1  0
 20 50  1  0
 20 51  1  0
 22 52  1  0
 22 53  1  0
 23 54  1  0
 26 55  1  0
M  END
>  <OMEGA_C>  (3) 
n3oDQYy+/0B/ypXBkXjoQJ6j70DBj47B0pH5QJ7KCUGtVJ/BEP+uQNSKA0G3cJrBfOTMQODzGz9f
6a3BzNaXQDtdQL9uj6TBHHG8QOp380B125DBE3fNQIXpC0FcsqHB3CqmQN2PAT+BKajBuw3XQI7s
5r8gUqzB3UzlQJp7C79HAbDBJwawQJ/z879kq6bB9p+3QIH11j+NXJPBI060QBMLgUBFr4bBc4un
QGcwJUCmq5zBydKjQBS/lkDf/pDBycuKQE2sbkBBRZjBUrvSQNPnLEExYq3B2+iNQIwM4D8/+aTB
cYmbQEKa4EAoUYnBjGm/QEdOFkGSM6zB74PvQL8iPMDBPq7BUpmGQN66ukCiNo7BFvv6QF6rTUD0
L5DBgD/dQIr27T9ykIDB6TtzQDVWj0ALBKHBzEEFQRnq3770fLXB5AyUQFAkGEH3wazBWr/MQP7W
CUEFd7TBpWTWQMCQKkD7OorBu1ebQG9EZsB1yKHBM1UUQcbj/EDFBZTBvsPyQMtX4ED2QIfBDo8I
QX/UD0Ew46TBKkiNQMSsBEHgQJzBGszXQOJPyT8xtLDBUV50QC8CVL9/KqDBPgacQG1Wnz80Jo/B
7q7LQG8kXz+lm5bBXWvGQCtdmEAa5YHBzAKZQEc+akCi/oHBAXDDQDazQUBFr6DBhWW/QK4zo0Ay
fpXBHHVhQPMGUkBxkJPBdSLIQGX/M0FB/bTBEvrHQIoCN0HjsqbBCd31QFfSK0GHTa3B/EGIQBps
F0DeIKzBtxNeQPmouj84c6HBpnSrQCPd1kAC24HBBhuDQJXr+ED/iIfBoeLgQIpGb8AJH6vBzPXy
QAA7RMBPIrbBmwdwQN9GxEAg7JTBTytQQL6+pUDLVp7Bo20EQUXD/UAlpZXBf5LpQO6E60DY9Y7B
s5P8QKKEDEEzEJ7B2WixQBCvBkGJlZnBtXvLQLqqFz9ez63BajiXQJtfSr9kY6TBi8q9QFFh80AJ
6JDBqNLQQGMPEUEc4Z/BPf6kQF4/8j5G/KfBJKTWQIZ86L/FRazBGU7kQKT9DL/y86/Bjc2vQEat
978uj6bBof22QF5B1T9gPJPBRpa0QJhtgUDH3IbBfIamQFxYI0C1mJzBmrijQD6GlkBMOpHBABqK
QFBvbUAZQJjB8QvNQNQyGkHLfbPBy3eMQLKe2j8fuKTBbgOcQLJq4EB/m4nBJVLEQKUWIkELE6jB
0o/vQEc2PMDFO67BmumGQITzukCqmI7BlbH6QJulTEB9eZDB4ZPdQAtx8D+wlYDBOMZwQFYijkAZ
B6HBarUEQS4V2r5fdLXBd77bQGcZNEHrQqbBoiuaQNVWJ0GHPKfB9VfWQCucKkDtVIrBCSCcQJ2i
aMDBlqHBCCYVQSfX9kBEUZTB0hHzQAt710BdVYjBR1YKQcSME0F0KaPBT+aPQGK6CEEnb5vBAOPV
QFq/xz8sn7DBHGdzQKc1Yb+785/Bt5GbQEwPnz9e4Y7BL8nKQJibWT8/c5bBdwHHQD78mEBLOILB
4nWZQFPZa0BJDILBSULCQDk8P0DYvqDBSC6/QFdUokAo4JXBZqxgQDOOUUAJX5PBCdTDQAywJkFk
P7nB5FHvQK6bFkHzYrTBwkC6QBCjC0GkBrXBK+uFQF5HFEDk3KvBTRdcQETksz9WA6HBVUCrQGJM
1kC+FoLB+LWDQGry+EAn5ofBfFLhQBLJb8CyG6vBpPPyQAYbRMCFILbBlw5yQKO4xECvYJXB5RVO
QD29pEDAYJ7B

>  <OMEGA_E>  (3) 
wCgaPfDQ2j0=

>  <OMEGA_NBR>  (3) 
      8719

$$$$
50216839
     RDKit          3D

 72 76  0  0  1  0  0  0  0  0999 V2000
    8.2854    8.3816  -18.5521 C   0  0  0  0  0  0  0  0  0  0  0  0
    7.2938    7.8559  -17.7067 C   0  0  0  0  0  0  0  0  0  0  0  0
    7.9356    8.9280  -19.8014 C   0  0  0  0  0  0  0  0  0  0  0  0
    5.3850   -0.5851  -20.3421 C   0  0  0  0  0  0  0  0  0  0  0  0
    5.5933    8.4042  -19.3692 C   0  0  0  0  0  0  0  0  0  0  0  0
    6.7478    0.8997  -21.7408 C   0  0  0  0  0  0  0  0  0  0  0  0
    6.2869   -1.6273  -20.6280 C   0  0  0  0  0  0  0  0  0  0  0  0
    5.9440    7.8747  -18.1099 C   0  0  0  0  0  0  0  0  0  0  0  0
    6.5803    8.9525  -20.2261 C   0  0  0  0  0  0  0  0  0  0  0  0
    5.6172    0.6892  -20.9150 C   0  0  0  0  0  0  0  0  0  0  0  0
    7.3900   -1.4300  -21.4554 C   0  0  0  0  0  0  0  0  0  0  0  0
    7.6345   -0.1615  -22.0128 C   0  0  0  0  0  0  0  0  0  0  0  0
    4.8335   -3.4866  -18.5524 C   0  0  0  0  0  0  0  0  0  0  0  0
    4.9363   -3.8085  -20.0587 C   0  0  0  0  0  0  0  0  0  0  0  0
    6.3436   -3.1759  -18.5385 C   0  0  0  0  0  0  0  0  0  0  0  0
    7.4314   -3.7408  -20.8334 C   0  0  0  0  0  0  0  0  0  0  0  0
    5.9818    1.9453  -18.3038 C   0  0  0  0  0  0  0  0  0  0  0  0
    5.7382    4.3265  -16.7941 C   0  0  0  0  0  0  0  0  0  0  0  0
    5.4895    2.7838  -19.5145 C   0  0  2  0  0  0  0  0  0  0  0  0
    5.2550    4.9603  -18.1169 C   0  0  1  0  0  0  0  0  0  0  0  0
    4.5459    3.9354  -19.0431 C   0  0  1  0  0  0  0  0  0  0  0  0
    6.2686   -3.0399  -20.0716 C   0  0  0  0  0  0  0  0  0  0  0  0
    5.5432    8.4507  -22.4786 C   0  0  0  0  0  0  0  0  0  0  0  0
    7.3449   10.1899  -22.3640 C   0  0  0  0  0  0  0  0  0  0  0  0
    5.1070   10.6725  -21.3524 C   0  0  0  0  0  0  0  0  0  0  0  0
    4.7465    1.8652  -20.5230 C   0  0  0  0  0  0  0  0  0  0  0  0
    4.8761    7.2774  -17.2147 C   0  0  0  0  0  0  0  0  0  0  0  0
    6.1588    9.5571  -21.5859 C   0  0  0  0  0  0  0  0  0  0  0  0
    8.0846   -2.6186  -21.5547 N   0  0  0  0  0  0  0  0  0  0  0  0
    4.2900    6.0599  -17.8304 N   0  0  0  0  0  0  0  0  0  0  0  0
    8.0092    3.5696  -17.9040 O   0  0  0  0  0  0  0  0  0  0  0  0
    7.0846    2.2273  -15.9390 O   0  0  0  0  0  0  0  0  0  0  0  0
    4.0651    4.6517  -20.1839 O   0  0  0  0  0  0  0  0  0  0  0  0
    8.7251    0.0437  -22.7865 F   0  0  0  0  0  0  0  0  0  0  0  0
    6.8706    2.9955  -17.1715 S   0  0  0  0  0  0  0  0  0  0  0  0
    9.3198    8.3665  -18.2422 H   0  0  0  0  0  0  0  0  0  0  0  0
    7.5660    7.4379  -16.7488 H   0  0  0  0  0  0  0  0  0  0  0  0
    8.7047    9.3322  -20.4429 H   0  0  0  0  0  0  0  0  0  0  0  0
    4.5336   -0.7537  -19.6994 H   0  0  0  0  0  0  0  0  0  0  0  0
    4.5603    8.3919  -19.6843 H   0  0  0  0  0  0  0  0  0  0  0  0
    6.9313    1.8765  -22.1635 H   0  0  0  0  0  0  0  0  0  0  0  0
    4.1922   -2.6244  -18.3169 H   0  0  0  0  0  0  0  0  0  0  0  0
    4.5421   -4.3424  -17.9258 H   0  0  0  0  0  0  0  0  0  0  0  0
    5.0238   -4.8798  -20.2928 H   0  0  0  0  0  0  0  0  0  0  0  0
    4.1441   -3.3616  -20.6773 H   0  0  0  0  0  0  0  0  0  0  0  0
    6.6157   -2.2505  -18.0096 H   0  0  0  0  0  0  0  0  0  0  0  0
    6.9775   -4.0015  -18.1827 H   0  0  0  0  0  0  0  0  0  0  0  0
    8.1306   -4.2202  -20.1325 H   0  0  0  0  0  0  0  0  0  0  0  0
    7.0458   -4.4922  -21.5382 H   0  0  0  0  0  0  0  0  0  0  0  0
    5.1165    1.5018  -17.7895 H   0  0  0  0  0  0  0  0  0  0  0  0
    6.6470    1.1446  -18.6594 H   0  0  0  0  0  0  0  0  0  0  0  0
    6.2506    5.0863  -16.1858 H   0  0  0  0  0  0  0  0  0  0  0  0
    4.8759    3.9312  -16.2371 H   0  0  0  0  0  0  0  0  0  0  0  0
    6.3622    3.2271  -20.0163 H   0  0  0  0  0  0  0  0  0  0  0  0
    6.1260    5.3694  -18.6497 H   0  0  0  0  0  0  0  0  0  0  0  0
    3.7041    3.4908  -18.4921 H   0  0  0  0  0  0  0  0  0  0  0  0
    5.2442    8.8827  -23.4450 H   0  0  0  0  0  0  0  0  0  0  0  0
    6.2876    7.6583  -22.6459 H   0  0  0  0  0  0  0  0  0  0  0  0
    4.6607    8.0251  -21.9785 H   0  0  0  0  0  0  0  0  0  0  0  0
    6.9812   10.6003  -23.3176 H   0  0  0  0  0  0  0  0  0  0  0  0
    7.7884   10.9974  -21.7629 H   0  0  0  0  0  0  0  0  0  0  0  0
    8.1054    9.4204  -22.5624 H   0  0  0  0  0  0  0  0  0  0  0  0
    4.8071   11.1026  -22.3193 H   0  0  0  0  0  0  0  0  0  0  0  0
    4.2253   10.2458  -20.8517 H   0  0  0  0  0  0  0  0  0  0  0  0
    5.5423   11.4602  -20.7200 H   0  0  0  0  0  0  0  0  0  0  0  0
    4.4958    2.4452  -21.4234 H   0  0  0  0  0  0  0  0  0  0  0  0
    3.8222    1.4914  -20.0583 H   0  0  0  0  0  0  0  0  0  0  0  0
    5.3252    7.0111  -16.2465 H   0  0  0  0  0  0  0  0  0  0  0  0
    4.0805    8.0206  -17.0578 H   0  0  0  0  0  0  0  0  0  0  0  0
    8.1595   -2.8630  -22.5215 H   0  0  0  0  0  0  0  0  0  0  0  0
    3.8610    6.3265  -18.6935 H   0  0  0  0  0  0  0  0  0  0  0  0
    3.4908    5.3528  -19.8991 H   0  0  0  0  0  0  0  0  0  0  0  0
  1  2  2  0
  1  3  1  0
  2  8  1  0
  3  9  2  0
  4  7  2  0
  4 10  1  0
  5  8  2  0
  5  9  1  0
  6 10  2  0
  6 12  1  0
  7 11  1  0
  7 22  1  0
  8 27  1  0
  9 28  1  0
 10 26  1  0
 11 12  2  0
 11 29  1  0
 12 34  1  0
 13 14  1  0
 13 15  1  0
 14 22  1  0
 15 22  1  0
 16 22  1  0
 16 29  1  0
 17 19  1  0
 17 35  1  0
 18 20  1  0
 18 35  1  0
 19 21  1  0
 19 26  1  0
 20 21  1  0
 20 30  1  0
 21 33  1  0
 23 28  1  0
 24 28  1  0
 25 28  1  0
 27 30  1  0
 31 35  2  0
 32 35  2  0
  1 36  1  0
  2 37  1  0
  3 38  1  0
  4 39  1  0
  5 40  1  0
  6 41  1  0
 13 42  1  0
 13 43  1  0
 14 44  1  0
 14 45  1  0
 15 46  1  0
 15 47  1  0
 16 48  1  0
 16 49  1  0
 17 50  1  0
 17 51  1  0
 18 52  1  0
 18 53  1  0
 19 54  1  6
 20 55  1  6
 21 56  1  1
 23 57  1  0
 23 58  1  0
 23 59  1  0
 24 60  1  0
 24 61  1  0
 24 62  1  0
 25 63  1  0
 25 64  1  0
 25 65  1  0
 26 66  1  0
 26 67  1  0
 27 68  1  0
 27 69  1  0
 29 70  1  0
 30 71  1  0
 33 72  1  0
M  END
>  <OMEGA_C>  (4) 
1ZAEQSAbBkG9apTBnmbpQNhj+0BYp43BX/D9QOfYDkFUaZ7BslGsQCHLFb+2vKLBH/yyQM13BkEs
9JrBt+3XQJ5VZj8h7a3BnS7JQClL0L8lBqXBhTW+QKb9+0Af4ZDB55HSQEw9D0Edz6HBJ8CzQBBv
MD8DUqfBwXrsQLMIt7+WpKvB6U30QDFkJb5OGrDBXqyaQLcjX8BEa5TBG/adQC+/c8BKeKDBv/7K
QPdBS8DDTpTBMs7tQIdob8DZqqbBTGu/QNj/+D9BbpLBF5+3QIpyikBYWobBoKmvQF0qMkCwHZzB
QimoQIO6nkBR75DBV3iRQO3ce0BNWJjB95fIQBaNQsCpkqDBCmKxQPQ1B0Eb1LPBSAnrQAMKI0GA
6bLBZWyjQHXCKkGi0arBueOXQFK97j8YL6TBMAmcQLrg6EC/t4nBTBXFQMrpGEHlr6zBsloBQdSW
J8D6b6zBSUeJQFnqwUCvpI7B2yUAQe9zZEBxO4/B4LTiQOGMDkD2BX/BPxWCQGXalECOeKHB0ZkL
QTgUMz3QSrbBG9zbQFW2P0ApX4nBEB4VQQ3dBUEf8JHBCh3yQJED7kCY/YXBgEYLQZJQFUEHi6PB
SBORQAHzQL9SmJ3BVe6RQBdFBkGFeZ3BOM3dQKcw8D/cTrHByiaGQJr2J8D1iJLBf1iRQL/0isAH
aI/BvMKgQD8nnMCdV6LBVZyEQC4kV8Aga6XBrbPTQPgIEMCqE5DBlUffQDoMgMAfdpHB7BYCQcUL
h8BZD6HBIXfhQO6/j8AlTqzBp7qjQPw7wD/bUI7BNLTUQJaBkj9oRpXBrQTIQEfDokB8fIHBJQec
QI2Ze0Ck5YHBEZfLQE+JTkBrIaDBhQjEQBzSq0CqMpXBTQ9tQL1pX0DN75PBXdCnQF8fDkFVj7vB
8DPJQIAQ9UDMKrXBeiSVQKlmAEEO1K/B22XfQLKaKUF6irrBsTr5QFb1L0F7Gq7Buq8BQdG5FkHO
f7TBnNOZQGakMUH6jbLBsTWHQOruI0Fe0KbBo1qxQCFdN0GAwqXBVd2PQFl+HEAGY6vB6J50QEbn
vj93d6DB0GeqQOta4EDd+IHBDpOCQF9UAEF0dojBYI0CQW87N8DuK7TB6Rp3QMxyykBGjJXB8Whf
QA9Kq0BmMZ/BerYEQY6eBUEWRZTBp1fpQOKr+kDikY3Btq/+QB1oDkEbSZ7B0zCsQGLjGb/nsqLB
cHizQDRrBkHZ8prBMfHXQMgYZj9Ota3BNybJQATH0b9wCaXBlD2+QBTD+0Ai3ZDBam7TQAXxDkFR
xKHByaKzQAq3LT+DKqfBVKzsQE49t7/VjqvBmX30QKwpIb7e6a/B8webQMidXsBLcJTBe4CdQDr9
c8DKfKDByqLLQFGCTcCXhJTBof3sQCV5cMAfFKfBzoa/QPLn+T/WVJLBvpS3QGHqikCBXYbBC0Sv
QDnZMUCmB5zBgLCnQNzSnkCp85DBHPWQQGdpe0DXQ5jBlmHIQIe5Q8BDwaDBouHsQHq+IUGHDrPB
5fymQP2nK0FXlqrBdeuvQAW3B0HHm7PBEIGXQNCG7D8zAqTBP6SbQCQJ6UBwxInBzEzGQEzaGEG7
m6zBA3ABQbW2J8DFbqzBHdSIQPEOwkAyro7B9AgAQYFeZkDiaI/B8qfjQBDKEEAJDn/BsUqBQGNV
lEC+Z6HBb7YLQVAsaj2WEbbBFBncQLc2QUBOaYnB7zgVQSg+BUHMuZHBibfxQJ4d7UAo54XBIsYL
QdzLFEG4XaPBOdyQQHcRR79Fmp3BbnaSQN12BkE9gp3BksndQIaQ8D9bBbHBBWWHQJM0JsBNiZLB
rTCRQMFKisD6WY/BC9OfQLlZnMAdUKLBQgyEQN4TV8DtX6XBhoDVQKokE8CaQpDBhV3fQN7ZgcCS
1JHBa3IBQeEqicC/pKHBrgzgQBPojsBx+6zB8BOkQIcDwT+YH47B79zUQH2Pkz8dLJXBoeTHQEF3
o0ALjoHBjTicQDw4fEAc2YHByvnKQGRiTkCkHqDBZ2fDQH7aq0BWSpXBS2JsQNDuXkAty5PB22/h
QBCLKEEQp7rBQPj8QMhHLkGGXq7B0MkBQae0FEHntrTBsYedQFXGMkG6R7LBYWKKQH6wJUFbaqbB
qtK2QO3ZN0HsoKXB0aGmQOzVDkFaULvB+AjGQD6i9EBkBbXBpjSTQHHSAUE7da/BXQePQJLyGkDi
NqvBnF50QC/Huz+4NaDBRKCpQJed4ECG+IHBL0iCQEOBAEH3nYjBWiIDQbu1NcBcMbTBk0F2QLyP
ykAvl5XBsq9dQA+7qkCTI5/B

>  <OMEGA_E>  (4) 
UKoSPlhoDj4=

>  <OMEGA_NBR>  (4) 
      2618

$$$$
