50249261
     RDKit          3D

 47 51  0  0  1  0  0  0  0  0999 V2000
    5.9646   -1.6120  -21.5134 C   0  0  0  0  0  0  0  0  0  0  0  0
    6.4664   -0.6115  -22.3587 C   0  0  0  0  0  0  0  0  0  0  0  0
    5.0184    0.0919  -20.0517 C   0  0  0  0  0  0  0  0  0  0  0  0
    5.6760   -3.3360  -19.0398 C   0  0  0  0  0  0  0  0  0  0  0  0
    3.4934   -2.3037  -18.8849 C   0  0  0  0  0  0  0  0  0  0  0  0
    4.0134   -4.2318  -17.6671 C   0  0  0  0  0  0  0  0  0  0  0  0
    5.2389   -1.2635  -20.3577 C   0  0  0  0  0  0  0  0  0  0  0  0
    4.7927   -2.3101  -19.4286 C   0  0  0  0  0  0  0  0  0  0  0  0
    5.5699    1.1084  -20.8644 C   0  0  0  0  0  0  0  0  0  0  0  0
    6.3014    0.7461  -22.0329 C   0  0  0  0  0  0  0  0  0  0  0  0
    3.9820    3.3562  -18.7748 C   0  0  0  0  0  0  0  0  0  0  0  0
    7.4943    5.4032  -23.0689 C   0  0  0  0  0  0  0  0  0  0  0  0
    7.3806    3.9361  -23.5358 C   0  0  0  0  0  0  0  0  0  0  0  0
    6.2667    5.7916  -22.2201 C   0  0  0  0  0  0  0  0  0  0  0  0
    6.3843    2.7557  -19.1436 C   0  0  0  0  0  0  0  0  0  0  0  0
    5.8875    3.4917  -21.5701 C   0  0  2  0  0  0  0  0  0  0  0  0
    5.4901    2.5589  -20.3934 C   0  0  1  0  0  0  0  0  0  0  0  0
    7.1455    2.9832  -22.3361 C   0  0  2  0  0  0  0  0  0  0  0  0
    8.4428    2.9281  -21.4741 C   0  0  0  0  0  0  0  0  0  0  0  0
    5.2767   -4.2763  -18.1592 N   0  0  0  0  0  0  0  0  0  0  0  0
    3.1199   -3.2731  -18.0214 N   0  0  0  0  0  0  0  0  0  0  0  0
    4.0928    2.8750  -19.9931 N   0  0  0  0  0  0  0  0  0  0  0  0
    2.8948    4.0890  -18.3357 N   0  0  0  0  0  0  0  0  0  0  0  0
    6.8873    1.6708  -22.8810 O   0  0  0  0  0  0  0  0  0  0  0  0
    6.0800    4.8593  -21.1332 O   0  0  0  0  0  0  0  0  0  0  0  0
    5.2742    2.7847  -17.7333 S   0  0  0  0  0  0  0  0  0  0  0  0
    6.1351   -2.6521  -21.7493 H   0  0  0  0  0  0  0  0  0  0  0  0
    6.9832   -0.8860  -23.2664 H   0  0  0  0  0  0  0  0  0  0  0  0
    4.4237    0.3575  -19.1901 H   0  0  0  0  0  0  0  0  0  0  0  0
    6.6755   -3.3697  -19.4477 H   0  0  0  0  0  0  0  0  0  0  0  0
    2.7968   -1.5249  -19.1579 H   0  0  0  0  0  0  0  0  0  0  0  0
    3.7055   -4.9912  -16.9636 H   0  0  0  0  0  0  0  0  0  0  0  0
    8.4057    5.5220  -22.4645 H   0  0  0  0  0  0  0  0  0  0  0  0
    7.5496    6.0608  -23.9490 H   0  0  0  0  0  0  0  0  0  0  0  0
    6.5368    3.8466  -24.2358 H   0  0  0  0  0  0  0  0  0  0  0  0
    8.3119    3.6484  -24.0454 H   0  0  0  0  0  0  0  0  0  0  0  0
    6.4175    6.8003  -21.8082 H   0  0  0  0  0  0  0  0  0  0  0  0
    5.3706    5.7861  -22.8580 H   0  0  0  0  0  0  0  0  0  0  0  0
    7.0977    1.9236  -19.0503 H   0  0  0  0  0  0  0  0  0  0  0  0
    6.9355    3.7050  -19.2147 H   0  0  0  0  0  0  0  0  0  0  0  0
    5.0520    3.4759  -22.2855 H   0  0  0  0  0  0  0  0  0  0  0  0
    8.2871    2.2540  -20.6190 H   0  0  0  0  0  0  0  0  0  0  0  0
    9.2754    2.5547  -22.0884 H   0  0  0  0  0  0  0  0  0  0  0  0
    8.6819    3.9370  -21.1068 H   0  0  0  0  0  0  0  0  0  0  0  0
    3.3081    2.7341  -20.5967 H   0  0  0  0  0  0  0  0  0  0  0  0
    2.8092    4.3255  -17.3679 H   0  0  0  0  0  0  0  0  0  0  0  0
    2.1941    4.3825  -18.9860 H   0  0  0  0  0  0  0  0  0  0  0  0
  1  2  2  0
  1  7  1  0
  2 10  1  0
  3  7  2  0
  3  9  1  0
  4  8  2  0
  4 20  1  0
  5  8  1  0
  5 21  2  0
  6 20  2  0
  6 21  1  0
  7  8  1  0
  9 10  2  0
  9 17  1  0
 10 24  1  0
 11 22  2  0
 11 23  1  0
 11 26  1  0
 12 13  1  0
 12 14  1  0
 13 18  1  0
 14 25  1  0
 17 15  1  1
 15 26  1  0
 16 17  1  0
 16 18  1  0
 16 25  1  0
 17 22  1  0
 18 19  1  1
 18 24  1  0
  1 27  1  0
  2 28  1  0
  3 29  1  0
  4 30  1  0
  5 31  1  0
  6 32  1  0
 12 33  1  0
 12 34  1  0
 13 35  1  0
 13 36  1  0
 14 37  1  0
 14 38  1  0
 15 39  1  0
 15 40  1  0
 16 41  1  6
 19 42  1  0
 19 43  1  0
 19 44  1  0
 22 45  1  0
 23 46  1  0
 23 47  1  0
M  CHG  1  22   1
M  END
>  <OMEGA_C>  (1) 
Ad6+QDRXzr9uG6zBduzOQGCMHL+t3rLBlJagQJJCvD3WaaDBKaK1QNWAVcB0UZjBcJRfQNpvE8A4
FJfBLm6AQMlqh8AhVo3BZ6WnQPC5ob963KLBlV2ZQB/ZE8DHbZvB4jyyQBvfjT9b6qbB2qTJQFwD
Pz9UQ7DB3dh+QPfLVkDLMpbBR9HvQObmrEAWjbjBeS3sQJPoe0A4SbzBEYnIQHpUuUCuwrHBcUzM
QCBdMEAkJpnBQ2a8QLN4X0CZj6zBOq+vQBvFI0CeJaPBI6jkQBbtPkBCsLLBmRUHQS5mO0AHy6vB
ZNqoQBnXiMAWRpHB16tHQEB6UcDAK5DBXfiCQGcAOEDg8Z/BSUQ5QA/ZgkCNr5LB02TcQKHc1T81
DLfBOY/CQAZ/m0DJEKnB98WoQDY5MkDL3Y3Bh1LEQM27KcB7/q3BGnbfQPjSYr+wIbrBPo+NQEoK
tz5jhZnBiZ3VQG2pV8DblJvB9v4yQCQvw79jQ5nB3CZtQKa3n8BgtYfBln0GQV20sEBIt7PBo5bx
QM/xwUB4l7/BTi3RQMIudkDj4sHBqf0EQXp/aUAQXcDB8VvNQFuc2UAjd67BWdyrQO8nuUA93bbB
kiDjQJs49j8FZ5jBjO/dQHEebUC7t5nBJKqhQA11XkCrSLLB05cEQTBBEECo86TB92cUQeZ/I0AH
tbDB+ugKQdz3e0Cj2qjBhLdTQAv8LkALxqTBzckzQGhqikBi8YrBB2wMQF49jEBa45fB

>  <OMEGA_E>  (1) 
WBKpPg==

>  <OMEGA_NBR>  (1) 
    180905

$$$$
50249210
     RDKit          3D

 48 52  0  0  1  0  0  0  0  0999 V2000
    6.0015   -1.5817  -21.4709 C   0  0  0  0  0  0  0  0  0  0  0  0
    6.5006   -0.5998  -22.3375 C   0  0  0  0  0  0  0  0  0  0  0  0
    5.0478    0.1546  -20.0493 C   0  0  0  0  0  0  0  0  0  0  0  0
    5.6710   -3.2097  -18.9293 C   0  0  0  0  0  0  0  0  0  0  0  0
    3.4559   -2.2034  -18.9210 C   0  0  0  0  0  0  0  0  0  0  0  0
    3.8673   -4.0587  -17.5457 C   0  0  0  0  0  0  0  0  0  0  0  0
    5.2617   -1.2055  -20.3339 C   0  0  0  0  0  0  0  0  0  0  0  0
    4.7852   -2.2253  -19.3992 C   0  0  0  0  0  0  0  0  0  0  0  0
    5.6045    1.1527  -20.8770 C   0  0  0  0  0  0  0  0  0  0  0  0
    6.3216    0.7640  -22.0463 C   0  0  0  0  0  0  0  0  0  0  0  0
    5.2087   -4.1259  -17.9769 C   0  0  0  0  0  0  0  0  0  0  0  0
    3.9841    3.2687  -18.7621 C   0  0  0  0  0  0  0  0  0  0  0  0
    7.5178    5.3902  -23.1792 C   0  0  0  0  0  0  0  0  0  0  0  0
    7.3720    3.9192  -23.6280 C   0  0  0  0  0  0  0  0  0  0  0  0
    6.3318    5.8032  -22.2827 C   0  0  0  0  0  0  0  0  0  0  0  0
    6.4289    2.8138  -19.1711 C   0  0  0  0  0  0  0  0  0  0  0  0
    5.9401    3.5206  -21.6103 C   0  0  2  0  0  0  0  0  0  0  0  0
    5.5370    2.6106  -20.4214 C   0  0  1  0  0  0  0  0  0  0  0  0
    7.1660    2.9808  -22.4127 C   0  0  2  0  0  0  0  0  0  0  0  0
    8.4962    2.9005  -21.6071 C   0  0  0  0  0  0  0  0  0  0  0  0
    3.0171   -3.1162  -18.0222 N   0  0  0  0  0  0  0  0  0  0  0  0
    4.1432    2.9495  -20.0282 N   0  0  0  0  0  0  0  0  0  0  0  0
    2.7445    3.3768  -18.1603 N   0  0  0  0  0  0  0  0  0  0  0  0
    6.8730    1.6698  -22.9322 O   0  0  0  0  0  0  0  0  0  0  0  0
    6.1788    4.8797  -21.1830 O   0  0  0  0  0  0  0  0  0  0  0  0
    5.4787    3.7840  -18.0014 S   0  0  0  0  0  0  0  0  0  0  0  0
    6.2955   -5.3171  -17.3149 Cl  0  0  0  0  0  0  0  0  0  0  0  0
    6.1844   -2.6263  -21.6753 H   0  0  0  0  0  0  0  0  0  0  0  0
    7.0260   -0.8925  -23.2346 H   0  0  0  0  0  0  0  0  0  0  0  0
    4.4541    0.4371  -19.1925 H   0  0  0  0  0  0  0  0  0  0  0  0
    6.6862   -3.2584  -19.2946 H   0  0  0  0  0  0  0  0  0  0  0  0
    2.7766   -1.4440  -19.2791 H   0  0  0  0  0  0  0  0  0  0  0  0
    3.5096   -4.7739  -16.8197 H   0  0  0  0  0  0  0  0  0  0  0  0
    8.4550    5.5051  -22.6148 H   0  0  0  0  0  0  0  0  0  0  0  0
    7.5429    6.0387  -24.0674 H   0  0  0  0  0  0  0  0  0  0  0  0
    6.5046    3.8331  -24.2990 H   0  0  0  0  0  0  0  0  0  0  0  0
    8.2827    3.6160  -24.1652 H   0  0  0  0  0  0  0  0  0  0  0  0
    6.5141    6.8123  -21.8844 H   0  0  0  0  0  0  0  0  0  0  0  0
    5.4096    5.8068  -22.8824 H   0  0  0  0  0  0  0  0  0  0  0  0
    6.6894    1.8401  -18.7306 H   0  0  0  0  0  0  0  0  0  0  0  0
    7.3492    3.3496  -19.4466 H   0  0  0  0  0  0  0  0  0  0  0  0
    5.0881    3.5281  -22.3060 H   0  0  0  0  0  0  0  0  0  0  0  0
    8.3613    2.2361  -20.7409 H   0  0  0  0  0  0  0  0  0  0  0  0
    9.2927    2.5032  -22.2534 H   0  0  0  0  0  0  0  0  0  0  0  0
    8.7745    3.9059  -21.2581 H   0  0  0  0  0  0  0  0  0  0  0  0
    3.3834    2.9358  -20.6782 H   0  0  0  0  0  0  0  0  0  0  0  0
    2.6664    3.7659  -17.2425 H   0  0  0  0  0  0  0  0  0  0  0  0
    1.9256    3.0659  -18.6429 H   0  0  0  0  0  0  0  0  0  0  0  0
  1  2  2  0
  1  7  1  0
  2 10  1  0
  3  7  2  0
  3  9  1  0
  4  8  2  0
  4 11  1  0
  5  8  1  0
  5 21  2  0
  6 11  2  0
  6 21  1  0
  7  8  1  0
  9 10  2  0
  9 18  1  0
 10 24  1  0
 11 27  1  0
 12 22  2  0
 12 23  1  0
 12 26  1  0
 13 14  1  0
 13 15  1  0
 14 19  1  0
 15 25  1  0
 18 16  1  1
 16 26  1  0
 17 18  1  0
 17 19  1  0
 17 25  1  0
 18 22  1  0
 19 20  1  1
 19 24  1  0
  1 28  1  0
  2 29  1  0
  3 30  1  0
  4 31  1  0
  5 32  1  0
  6 33  1  0
 13 34  1  0
 13 35  1  0
 14 36  1  0
 14 37  1  0
 15 38  1  0
 15 39  1  0
 16 40  1  0
 16 41  1  0
 17 42  1  6
 20 43  1  0
 20 44  1  0
 20 45  1  0
 22 46  1  0
 23 47  1  0
 23 48  1  0
M  CHG  1  22   1
M  END
>  <OMEGA_C>  (2) 
kwzAQHB1yr9hxKvBDgXQQO6KGb88s7LBdIehQMJUHj7+ZKDBKXm1QDlrTcAcb5fB1yxdQJUEDcAc
XpfB0YF3QOPggcB/XYzB7F+oQNdMmr/Kq6LBTSCZQMtqDsCVMZvBslezQECKkz8nBKfBkUrKQFuW
Qz/IXrDB5a2mQKsHhMC50I/Bkft+QDgyUUC6GJbB9ZHwQOJ8rEDtbrnBdefrQMbUekAhBr3B4p3K
QAG0uUDkQrLBpLnNQAIVNEBcXpnBmBW+QHlRYUD54azBTy+xQNYTJ0ALX6PB8E/lQE/FPkBKTbPB
XfAHQWKiOUBs26zB4xdBQGFwR8BqLZDBZpWEQA/FPEDTOaDBF6UvQAgdWEBiSJHBRu/bQAe91T8k
dbfBzrjFQHomnEDBdqnBQ1GvQKwsckDWApDBq3TJQMklqsDZhIrBxubFQHEVKMDqZq3BodTgQAN8
ZL9r4LnBIoiOQH3K3z4xipnBNfXVQFOJUMBwW5rB67MxQJTUuL+tO5rBTJ1gQLnDmMDRjobBtkcH
QXkpsEAk67TBIV/xQNk8wUD4icDB+yXQQEZRdUBaZMLBGoYEQcdsZ0BhUsHBdXPQQPr92UA9E6/B
1hutQJPRuUAiD7fBiQ/WQAWH6z9K2JXBCC3rQEJfVkCokpvBXtGiQL3MYUChcrLBDsgFQb0bD0By
7aXB664UQWU0IEAAB7LBd2QMQa75eUCPEKrBHIpYQDLkO0AIbaXBq6YqQNMDcUCL8InBlnr2P2M3
RECmJJXBtEu9QFkQyr/8o6vBMN3MQGDCGr8Ar7LBS+ugQNgpLj5CCKDB0jxfQExyC8CuW5bByQS1
QBAlUcAAxpfB9+aAQDLThsAfo4zB+0mnQFvimL/TTqLBNw6ZQLoBDsBNuJrBw2WyQMCelD+9y6bB
50XIQFSfQj9CR7DB7oxGQAQVTcAWW4/B/lR+QCh2WUDlW5bBFTnzQPgKq0AXRbnBbxXtQIBmeEBX
4rzBnnHNQLNwuUAWMbLB2WPMQHJ7NUBoJJnBGHK+QDayYUCCyqzBRp6wQKgUKEC2RaPBFCvlQK7C
PED3L7PB2rwHQURWNEDUrqzB/OeoQNNch8B4zJDBvPGDQCzePkCgR6DBFrovQEC4YEBFXZHBWC7a
QOfZ0z/1ZbfBAmzHQP8enEAxZKnBPFOvQF5AfkCyzJDBK9C9P/anT8D3N4rBOy3CQKULKMDFXq3B
933cQIl1Z7/tAbrB9ZaOQAWp6z7OFZnBQakzQP1ssL92WZjB18bUQJRLU8C1K5vB3u1uQJqqn8D8
HIfBbZEIQTeurUC1rbTBNwL1QAvLv0A+XcDBc2zRQDzRdEDvTsLBYgIFQccQY0B9IMHBURvUQBOU
2UALA6/BlhywQO5cukAVDbfBJUTRQJt88D/d+ZTB/pzrQGnoUEC/UpvBlzqjQALGY0CXXbLB0xoF
QYARCkAUxaXByUoUQSsVGUDw0rHBwMIMQZvsc0DK3KnBevRWQFdUOkCXZ6XBMYsrQA8+fEArKYrB
wRn2P4NySkB39JTB

>  <OMEGA_E>  (2) 
wNiePsgB2T4=

>  <OMEGA_NBR>  (2) 
    156803

$$$$
50249256
     RDKit          3D

 49 53  0  0  1  0  0  0  0  0999 V2000
    5.9447   -1.5756  -21.5017 C   0  0  0  0  0  0  0  0  0  0  0  0
    6.4298   -0.5940  -22.3778 C   0  0  0  0  0  0  0  0  0  0  0  0
    5.0978    0.1655  -20.0200 C   0  0  0  0  0  0  0  0  0  0  0  0
    5.6584   -3.1924  -18.9100 C   0  0  0  0  0  0  0  0  0  0  0  0
    3.4549   -2.1346  -18.9261 C   0  0  0  0  0  0  0  0  0  0  0  0
    3.8726   -4.0635  -17.4962 C   0  0  0  0  0  0  0  0  0  0  0  0
    5.2703   -1.1922  -20.3277 C   0  0  0  0  0  0  0  0  0  0  0  0
    4.7842   -2.1965  -19.3900 C   0  0  0  0  0  0  0  0  0  0  0  0
    5.6260    1.1590  -20.8636 C   0  0  0  0  0  0  0  0  0  0  0  0
    6.2932    0.7702  -22.0619 C   0  0  0  0  0  0  0  0  0  0  0  0
    5.2078   -4.1115  -17.9465 C   0  0  0  0  0  0  0  0  0  0  0  0
    2.9945   -3.0805  -17.9958 C   0  0  0  0  0  0  0  0  0  0  0  0
    3.9896    3.2944  -18.7535 C   0  0  0  0  0  0  0  0  0  0  0  0
    7.5519    5.3823  -23.1576 C   0  0  0  0  0  0  0  0  0  0  0  0
    7.3966    3.9171  -23.6151 C   0  0  0  0  0  0  0  0  0  0  0  0
    6.3503    5.8018  -22.2868 C   0  0  0  0  0  0  0  0  0  0  0  0
    6.4630    2.8250  -19.1712 C   0  0  0  0  0  0  0  0  0  0  0  0
    5.9412    3.5238  -21.6031 C   0  0  2  0  0  0  0  0  0  0  0  0
    5.5547    2.6146  -20.4067 C   0  0  1  0  0  0  0  0  0  0  0  0
    7.1629    2.9754  -22.4090 C   0  0  2  0  0  0  0  0  0  0  0  0
    8.4869    2.8587  -21.5952 C   0  0  0  0  0  0  0  0  0  0  0  0
    4.1609    2.9332  -20.0067 N   0  0  0  0  0  0  0  0  0  0  0  0
    2.7428    3.5456  -18.2118 N   0  0  0  0  0  0  0  0  0  0  0  0
    6.8413    1.6780  -22.9458 O   0  0  0  0  0  0  0  0  0  0  0  0
    6.1781    4.8862  -21.1833 O   0  0  0  0  0  0  0  0  0  0  0  0
    6.0610   -5.0330  -17.4473 F   0  0  0  0  0  0  0  0  0  0  0  0
    5.4859    3.6144  -17.8886 S   0  0  0  0  0  0  0  0  0  0  0  0
    1.3342   -3.0311  -17.4662 Cl  0  0  0  0  0  0  0  0  0  0  0  0
    6.0882   -2.6221  -21.7271 H   0  0  0  0  0  0  0  0  0  0  0  0
    6.9107   -0.8866  -23.2995 H   0  0  0  0  0  0  0  0  0  0  0  0
    4.5562    0.4494  -19.1298 H   0  0  0  0  0  0  0  0  0  0  0  0
    6.6710   -3.2492  -19.2812 H   0  0  0  0  0  0  0  0  0  0  0  0
    2.7918   -1.3614  -19.2852 H   0  0  0  0  0  0  0  0  0  0  0  0
    3.5224   -4.7802  -16.7681 H   0  0  0  0  0  0  0  0  0  0  0  0
    8.4773    5.4833  -22.5717 H   0  0  0  0  0  0  0  0  0  0  0  0
    7.6045    6.0348  -24.0416 H   0  0  0  0  0  0  0  0  0  0  0  0
    6.5382    3.8438  -24.2990 H   0  0  0  0  0  0  0  0  0  0  0  0
    8.3117    3.6065  -24.1407 H   0  0  0  0  0  0  0  0  0  0  0  0
    6.5251    6.8139  -21.8929 H   0  0  0  0  0  0  0  0  0  0  0  0
    5.4392    5.8005  -22.9031 H   0  0  0  0  0  0  0  0  0  0  0  0
    6.8348    1.8540  -18.8122 H   0  0  0  0  0  0  0  0  0  0  0  0
    7.3146    3.4673  -19.4396 H   0  0  0  0  0  0  0  0  0  0  0  0
    5.0836    3.5236  -22.2919 H   0  0  0  0  0  0  0  0  0  0  0  0
    8.3315    2.1910  -20.7349 H   0  0  0  0  0  0  0  0  0  0  0  0
    9.2782    2.4481  -22.2395 H   0  0  0  0  0  0  0  0  0  0  0  0
    8.7859    3.8548  -21.2368 H   0  0  0  0  0  0  0  0  0  0  0  0
    3.3983    2.8766  -20.6511 H   0  0  0  0  0  0  0  0  0  0  0  0
    2.6654    3.9255  -17.2901 H   0  0  0  0  0  0  0  0  0  0  0  0
    1.9183    3.3473  -18.7418 H   0  0  0  0  0  0  0  0  0  0  0  0
  1  2  2  0
  1  7  1  0
  2 10  1  0
  3  7  2  0
  3  9  1  0
  4  8  2  0
  4 11  1  0
  5  8  1  0
  5 12  2  0
  6 11  2  0
  6 12  1  0
  7  8  1  0
  9 10  2  0
  9 19  1  0
 10 24  1  0
 11 26  1  0
 12 28  1  0
 13 22  2  0
 13 23  1  0
 13 27  1  0
 14 15  1  0
 14 16  1  0
 15 20  1  0
 16 25  1  0
 19 17  1  1
 17 27  1  0
 18 19  1  0
 18 20  1  0
 18 25  1  0
 19 22  1  0
 20 21  1  1
 20 24  1  0
  1 29  1  0
  2 30  1  0
  3 31  1  0
  4 32  1  0
  5 33  1  0
  6 34  1  0
 14 35  1  0
 14 36  1  0
 15 37  1  0
 15 38  1  0
 16 39  1  0
 16 40  1  0
 17 41  1  0
 17 42  1  0
 18 43  1  6
 21 44  1  0
 21 45  1  0
 21 46  1  0
 22 47  1  0
 23 48  1  0
 23 49  1  0
M  CHG  1  22   1
M  END
>  <OMEGA_C>  (3) 
7Tq+QGOuyb9yA6zBNsHNQOoQGL/BBbPBSSGjQHBsKT7iKKDBQBG1QDxQTMC2R5fBOx1dQPqcCMCt
aJfBSNh3QDEIgsA2+IvBAqaoQFmZmL8tn6LB4xeZQBSUDMCrHpvB2Ae0QLpblD+W6KbBNGLJQOQo
RT/IfrDBlKamQLSRg8Biko/BWKU/QHQmRcB+94/BEFZ/QGrXUkAZB5bB0qjxQDI8rEC6QrnB97Ds
QACxekC667zBgTXLQESouUBNS7LBgdDOQNrMNECXXpnBOx6+QD6FYUAd06zByr+xQI5VJ0ACQaPB
TzblQIJtPkCRRbPBcsoHQdD0NkDkwqzBeCaFQFK5O0CwDaDB7okvQGjqYkDcsZHBo+vaQBLK1j//
kLfBmrLFQIRbnEBcd6nBvvPBQDoOocANlIvBsYyvQB5SZ0DEG4/B0MaqPyj+QcDHuovBOtLCQLXP
J8Ao0a3BIiTdQOP5Yr90ZbrBQ8yRQH0b5j7TCZnBjXjVQNvyT8DyP5rBS60yQFVDrr8hSJrBzm5h
QH/3mMAdJYbBK6MHQZN3r0DJkrTBP1jzQBUdwUA/VcDBtzjRQBYBdkBhZMLBjfwEQT7QZkAOIMHB
j83QQBYL2kCQJK/B1w2uQAKeuUCgObfBELfaQM9Q7T9Mf5bBbhHqQAjpXUBJhJvBy6yiQAWDYUDm
VbLB4k0FQd45DEAL4aXBp3MUQYytHECZ6rHBH5MMQXa0dkDp5KnBg35ZQDgaOEBnNaXBgJUqQNA6
e0AOUorBIIr1P7M6VkBD75XBasi9QBS/yb+zAqzBaHrNQNc5GL8S/bLB6UaiQGhXJj59MqDBDwhe
QDtWCsDwFpfBHqW1QGRrTcBOiZfBo397QE/Mg8DyC4zBZwaoQDgYmb/qoaLBeDGZQKFjDcC+FJvB
b3+zQKoalD+A6abBjRXJQMW7RD/KdrDBQUpCQOBOSMArtY/B0xyoQBHGhMBS5I/BwTl/QLDTVEAA
HZbBSwzyQMDzq0CIOrnBRb/sQJA3ekA85LzBQ8vLQHCWuUBoN7LBAQvOQOoxNEDJRpnB6C++QH1/
YUBPyazB2GaxQN4vJ0BRQKPB+DflQKYSPkDjO7PBOtIHQW9XNkAtwazBgMeEQKjyO0CrFaDBW6Mv
QN1LY0DbpJHB+NDaQMxO1j9FhbfB7CHGQI86nEBvZqnBzrLhPyyoRsAlFYzBr7mvQNPQcEB0v4/B
Dh/MQIe1qsBOC4vBj2DCQCXSJ8Cy063BmgbdQFITY7+BV7rBu42QQCOS5D7oIpnBMdwyQIkWsb/0
sZnBlcnVQBJAUMD1sJrBlV9mQBRPm8B2SobBteEHQWH/rkC/krTBY7vzQBTXwECbTMDBSjDRQGDf
dUDcVsLBdvQEQev8ZUAXH8HBbrHRQJLj2UCsC6/B3ZOuQGjYuUDKH7fButjWQNGT6z9+2ZXBcznr
QOVWV0COfpvBiNCiQOsiYkCMUbLB5FUFQaCzC0AR3aXBg20UQUHWG0DG7LHBLK4MQaQKdkD85qnB
WYxYQEBRN0BdMqXBPfMqQDTtfkCmc4rBcHf1PwUjUkAdmpXB

>  <OMEGA_E>  (3) 
iKLCPlBUwz4=

>  <OMEGA_NBR>  (3) 
    172995

$$$$
