50216852
     RDKit          3D

 82 84  0  0  1  0  0  0  0  0999 V2000
    8.2297    8.1426  -18.4258 C   0  0  0  0  0  0  0  0  0  0  0  0
    7.2287    7.6855  -17.5508 C   0  0  0  0  0  0  0  0  0  0  0  0
    7.8857    8.6523  -19.6931 C   0  0  0  0  0  0  0  0  0  0  0  0
    5.5336    8.2277  -19.2198 C   0  0  0  0  0  0  0  0  0  0  0  0
    4.8571   -0.7758  -19.9963 C   0  0  0  0  0  0  0  0  0  0  0  0
    6.2203    0.7171  -21.3592 C   0  0  0  0  0  0  0  0  0  0  0  0
    5.8776    7.7313  -17.9472 C   0  0  0  0  0  0  0  0  0  0  0  0
    6.5266    8.7257  -20.0989 C   0  0  0  0  0  0  0  0  0  0  0  0
    5.1148    0.5059  -20.5133 C   0  0  0  0  0  0  0  0  0  0  0  0
    6.8032   -1.6429  -21.1828 C   0  0  0  0  0  0  0  0  0  0  0  0
    5.7127   -1.8587  -20.3092 C   0  0  0  0  0  0  0  0  0  0  0  0
    7.0592   -0.3564  -21.6996 C   0  0  0  0  0  0  0  0  0  0  0  0
    5.4771    1.7601  -17.8488 C   0  0  0  0  0  0  0  0  0  0  0  0
    5.4418    4.2541  -16.4862 C   0  0  0  0  0  0  0  0  0  0  0  0
    5.0596    2.5786  -19.1003 C   0  0  2  0  0  0  0  0  0  0  0  0
    5.0001    4.8399  -17.8458 C   0  0  1  0  0  0  0  0  0  0  0  0
    4.2006    3.8122  -18.6924 C   0  0  1  0  0  0  0  0  0  0  0  0
    5.8773    8.0571  -22.4387 C   0  0  0  0  0  0  0  0  0  0  0  0
    7.2194   10.1627  -22.1227 C   0  0  0  0  0  0  0  0  0  0  0  0
    4.8272   10.1080  -21.4056 C   0  0  0  0  0  0  0  0  0  0  0  0
    9.6186   -3.9153  -19.4467 C   0  0  0  0  0  0  0  0  0  0  0  0
    4.2643    1.6752  -20.0784 C   0  0  0  0  0  0  0  0  0  0  0  0
    4.7905    7.2125  -17.0297 C   0  0  0  0  0  0  0  0  0  0  0  0
    9.4035   -3.1226  -17.1566 C   0  0  0  0  0  0  0  0  0  0  0  0
    8.1482   -3.9595  -16.8832 C   0  0  0  0  0  0  0  0  0  0  0  0
    5.8861   -4.1043  -17.6613 C   0  0  0  0  0  0  0  0  0  0  0  0
    4.9170   -3.2728  -18.4971 C   0  0  2  0  0  0  0  0  0  0  0  0
    6.1243    9.2566  -21.4952 C   0  0  0  0  0  0  0  0  0  0  0  0
    3.5408   -3.9445  -18.5870 C   0  0  0  0  0  0  0  0  0  0  0  0
    7.6307   -2.6989  -21.5402 N   0  0  0  0  0  0  0  0  0  0  0  0
    4.1233    6.0238  -17.6210 N   0  0  0  0  0  0  0  0  0  0  0  0
    7.6462    3.2106  -17.4885 O   0  0  0  0  0  0  0  0  0  0  0  0
    6.5532    2.0959  -15.4693 O   0  0  0  0  0  0  0  0  0  0  0  0
    3.7381    4.4823  -19.8683 O   0  0  0  0  0  0  0  0  0  0  0  0
    5.4914   -3.1413  -19.8310 O   0  0  0  0  0  0  0  0  0  0  0  0
    9.5104   -2.7796  -18.5602 O   0  0  0  0  0  0  0  0  0  0  0  0
    7.0461   -3.2927  -17.4964 O   0  0  0  0  0  0  0  0  0  0  0  0
    8.1154   -0.1448  -22.5190 F   0  0  0  0  0  0  0  0  0  0  0  0
    2.7079   -3.1624  -19.3204 F   0  0  0  0  0  0  0  0  0  0  0  0
    3.6497   -5.1619  -19.1824 F   0  0  0  0  0  0  0  0  0  0  0  0
    3.0221   -4.0916  -17.3398 F   0  0  0  0  0  0  0  0  0  0  0  0
    6.4413    2.7955  -16.7552 S   0  0  0  0  0  0  0  0  0  0  0  0
    9.2663    8.1027  -18.1252 H   0  0  0  0  0  0  0  0  0  0  0  0
    7.4947    7.3003  -16.5775 H   0  0  0  0  0  0  0  0  0  0  0  0
    8.6628    8.9906  -20.3625 H   0  0  0  0  0  0  0  0  0  0  0  0
    4.4989    8.2285  -19.5295 H   0  0  0  0  0  0  0  0  0  0  0  0
    4.0014   -0.9349  -19.3568 H   0  0  0  0  0  0  0  0  0  0  0  0
    6.4231    1.7048  -21.7463 H   0  0  0  0  0  0  0  0  0  0  0  0
    4.5770    1.4093  -17.3228 H   0  0  0  0  0  0  0  0  0  0  0  0
    6.0801    0.8947  -18.1608 H   0  0  0  0  0  0  0  0  0  0  0  0
    6.0303    5.0048  -15.9383 H   0  0  0  0  0  0  0  0  0  0  0  0
    4.5524    3.9846  -15.8978 H   0  0  0  0  0  0  0  0  0  0  0  0
    5.9680    2.9349  -19.6080 H   0  0  0  0  0  0  0  0  0  0  0  0
    5.8941    5.1444  -18.4097 H   0  0  0  0  0  0  0  0  0  0  0  0
    3.3459    3.4593  -18.0967 H   0  0  0  0  0  0  0  0  0  0  0  0
    5.5906    8.4262  -23.4345 H   0  0  0  0  0  0  0  0  0  0  0  0
    6.7971    7.4593  -22.5201 H   0  0  0  0  0  0  0  0  0  0  0  0
    5.0684    7.4319  -22.0326 H   0  0  0  0  0  0  0  0  0  0  0  0
    6.8851   10.5123  -23.1106 H   0  0  0  0  0  0  0  0  0  0  0  0
    7.3977   11.0289  -21.4684 H   0  0  0  0  0  0  0  0  0  0  0  0
    8.1512    9.5887  -22.2331 H   0  0  0  0  0  0  0  0  0  0  0  0
    4.5591   10.4752  -22.4072 H   0  0  0  0  0  0  0  0  0  0  0  0
    4.0085    9.4883  -21.0111 H   0  0  0  0  0  0  0  0  0  0  0  0
    4.9957   10.9633  -20.7347 H   0  0  0  0  0  0  0  0  0  0  0  0
    9.6948   -3.5638  -20.4862 H   0  0  0  0  0  0  0  0  0  0  0  0
   10.5163   -4.4968  -19.1896 H   0  0  0  0  0  0  0  0  0  0  0  0
    8.7270   -4.5506  -19.3391 H   0  0  0  0  0  0  0  0  0  0  0  0
    3.9745    2.2627  -20.9621 H   0  0  0  0  0  0  0  0  0  0  0  0
    3.3610    1.3006  -19.5748 H   0  0  0  0  0  0  0  0  0  0  0  0
    5.2369    6.9323  -16.0642 H   0  0  0  0  0  0  0  0  0  0  0  0
    4.0433    8.0042  -16.8723 H   0  0  0  0  0  0  0  0  0  0  0  0
    9.3535   -2.1971  -16.5642 H   0  0  0  0  0  0  0  0  0  0  0  0
   10.2913   -3.7003  -16.8600 H   0  0  0  0  0  0  0  0  0  0  0  0
    8.2658   -4.9648  -17.3140 H   0  0  0  0  0  0  0  0  0  0  0  0
    7.9809   -4.0424  -15.7992 H   0  0  0  0  0  0  0  0  0  0  0  0
    5.4425   -4.3427  -16.6834 H   0  0  0  0  0  0  0  0  0  0  0  0
    6.1418   -5.0371  -18.1852 H   0  0  0  0  0  0  0  0  0  0  0  0
    4.8026   -2.2807  -18.0359 H   0  0  0  0  0  0  0  0  0  0  0  0
    8.3440   -2.3694  -22.1588 H   0  0  0  0  0  0  0  0  0  0  0  0
    8.0531   -3.0838  -20.7196 H   0  0  0  0  0  0  0  0  0  0  0  0
    3.7386    6.2939  -18.5036 H   0  0  0  0  0  0  0  0  0  0  0  0
    3.2143    5.2346  -19.6193 H   0  0  0  0  0  0  0  0  0  0  0  0
  1  2  2  0
  1  3  1  0
  2  7  1  0
  3  8  2  0
  4  7  2  0
  4  8  1  0
  5  9  2  0
  5 11  1  0
  6  9  1  0
  6 12  2  0
  7 23  1  0
  8 28  1  0
  9 22  1  0
 10 11  2  0
 10 12  1  0
 10 30  1  0
 11 35  1  0
 12 38  1  0
 13 15  1  0
 13 42  1  0
 14 16  1  0
 14 42  1  0
 15 17  1  0
 15 22  1  0
 16 17  1  0
 16 31  1  0
 17 34  1  0
 18 28  1  0
 19 28  1  0
 20 28  1  0
 21 36  1  0
 23 31  1  0
 24 25  1  0
 24 36  1  0
 25 37  1  0
 26 27  1  0
 26 37  1  0
 27 29  1  0
 27 35  1  0
 29 39  1  0
 29 40  1  0
 29 41  1  0
 32 42  2  0
 33 42  2  0
  1 43  1  0
  2 44  1  0
  3 45  1  0
  4 46  1  0
  5 47  1  0
  6 48  1  0
 13 49  1  0
 13 50  1  0
 14 51  1  0
 14 52  1  0
 15 53  1  6
 16 54  1  6
 17 55  1  1
 18 56  1  0
 18 57  1  0
 18 58  1  0
 19 59  1  0
 19 60  1  0
 19 61  1  0
 20 62  1  0
 20 63  1  0
 20 64  1  0
 21 65  1  0
 21 66  1  0
 21 67  1  0
 22 68  1  0
 22 69  1  0
 23 70  1  0
 23 71  1  0
 24 72  1  0
 24 73  1  0
 25 74  1  0
 25 75  1  0
 26 76  1  0
 26 77  1  0
 27 78  1  1
 30 79  1  0
 30 80  1  0
 31 81  1  0
 34 82  1  0
M  END
>  <OMEGA_C>  (1) 
Aq0DQfNHAkEIaJPBclHnQKzv9UAPaIzBcFf8QP5vCkFpi53B/xKxQHmkA0EvwpnBXm2bQFybRr9y
+J/BlgzHQHuVNz+o36rBlxW8QDJn90Dck4/BmdnQQIqcC0GhyqDBO6yjQPF/AT8pG6TBwbPZQNtK
0r9ddqnBNc62QAnp7b81eaLBGuXhQMd7tr62mK3BuUSvQAlM4T9Fyo7BIyOuQLohiEC+44PB+ueh
QDkHJUBwzZjBrgCgQM/gmkAlxI7BHmuGQKv7c0ALipXBmRK8QADqAEFngrPBgQXnQJuaIkE9+7DB
iniaQHu6IUGyPqvBueUZQRWVesDXkpvBL3WIQK1t1j+foKDBxEuZQKbM5kDdPIjBrHQWQTjYR8DP
QInB5l4CQUdofcDIEIfBH1u8QGpWg8BkSo3BL1idQPF1UcAD+pPBqfrDQDUbFEE09qvByJtiQA1y
fMA+spTBDC/0QLO6LMBfUqzBJfKDQJ3CwEDX94zBja30QAx7TUBu6IvBKbTRQGMjBkBQgnfBaD1v
QKtuj0BU8p7BhLmvQO0KScDVpZ7BlyoYQbHlMcBSe5TB13nhQCa8UsCw+IvBo9gBQYxAFL7+JrTB
FE4tQPFkSsAYkJrBapRpQCgupcCFdZnBrGlBQKzugsDot4rBWx/OQBjpMkCgCobBx0IUQZKkAUF3
AJHBxtTvQHOc6UDGnoTBrpoKQZvZD0FX5qLBG/ePQOCnA0FePJzBtAuAQOZTb7/P2prB74nNQFY1
2j97+K3BpXaSQNpktD8QlYrBcpDCQPUJZT9qSZHBz/fAQGEnoEBYA3/B26yRQJQDf0BBXX7Bvfm+
QCrWO0A63ZzBeZy8QNiepEAfR5PBlyJWQKpkXUAExpDB9uWyQJnRBkHLebvBhoHZQO+y7kA+KbTB
cjCiQIHS7UDCQrDBW1LcQJAyKEF94rjB97nsQC12MEFIv6vBYWsCQSlrGUFZ3bHBFuSRQIyaJ0EL
QrPBtEWAQO3PF0HOFqjBDd2fQINpL0GV4KXBCh4bQT0VZMDG46PBqUIoQaflj8BahJnB3aELQWCe
kcBmtprBzF1+QBzQEEBfsqfBThpXQN56pj8cmZzBdJSnQMXV3UBug4DBjmKBQF4RAEFz+obBDqgV
QUidDMB1g4TBI6kkQWnSbMBb4YbB1EAEQT7fnsAag4rBjWP/QI5bgcBVyXzBnyiuQHX3isCdd4XB
e4nEQEMwocBIe5HB+K6ZQIX3EcCQSZDBK4EFQYmkF8BARbHBctkAQfhcRcCrwaXB90RvQLpnyUBu
B5TBX7ZNQBGCp0Bb9JzBLyECQd6AA0EHw5HBla/iQKMA+EBtS4vBJ8L7QC9jC0HZF5zBRcuvQF8N
BEF8ipnBpQ6bQCiPSb/8NKDBiEXKQMaNNz8hDKrBPVW4QOvM+EDJJY/Bb0PRQIHiC0ESHaDB0lyl
QIm2AT/PyKPB4S3aQOtu1b8UUKnB45W1QLvc8L/14aLB+bfkQMj2u77wxazBOTCzQEB/6z+h747B
40CwQKzwikCGPYTBpk+jQADOJ0DQ5pjBHSqfQLGInEAH/I7BpI6GQJ6GdECwhpXBh4O3QA1LAUF9
f7LBOO3tQFSwHkFUE7HBSwyjQOBUJUHa1qrBnjscQVbnnsD4FIjBegCKQJvf1j/jbaDBfSyUQILB
50A0SIjBRt0NQQ4QLcBME4jBEtAAQSysM8B7ZZLB3QnCQLZahMAhGY7BgYqfQMpmVcBcXJTBr9zG
QCwwFEEod6vB5J9oQFRagsCRW5TBNmz0QAQfL8DGGqzBmgaBQEq8wECAEY3BepX2QFQLWkDTRI3B
XM7ZQCKlEECGBHnBUT9sQFbLjkDq5J7BtWOsQMzYSsBOhJ/BvY8gQWYPY8DQcIjBUSzrQKJegsAB
WpPBeCkEQTJ7Hb5/srLBQZYtQOYEVcB5qpnBs7NwQI65qMCva5nB8ZtNQMzCiMAWKIrB5V7SQMT4
O0Bhw4bBI1sSQTE4A0Fey47BBljpQK/e60CsYIPB9eMKQfobEUGuAaHBA16PQJ3xA0Fph5zB15F9
QJztcb+UZpvB0DnSQGUn2z+YwKzB0IyXQHJYvD8gWorB0fPGQOHnfD89gJHBOITCQKwRpEAPGoDB
KTaVQDrggEBgZn7BskW/QBe6QEDmPp3BW2u6QHPgp0AEx5PBojRYQIb5W0AymZDB0hOwQI0kB0E7
lrrBZujQQCdI6kDM9rLBqaaaQLBU9EAq8K7BS3/kQNY+JEHyFbnBkhn5QN9gLEFSTazBHu4DQR3h
EkFnz7HBULybQIIzK0F57rLBcyCGQNIzHkFVT6fBm+GtQLC/MkFP1KXBeWcrQXOzsMBwZojBrsYT
QZ+tpsD1nIDBADcSQbjlp8CB9Y7BvA+AQN87D0BslqfBi/9aQLIspz+ENpzBv7igQOHo30AuTIDB
D6F2QL9AAEGfjYfB8vISQa6E1L949YbBL8cDQYXCQMARTIHBrPnpQDMU/7/UhJLBTLcLQW/SLMBH
QJnBYRDFQKy8bcBAAYbB2ey3QIr/pcAsjI3BBnGbQJ95FsDpjJDBnEwGQWACGsALorDBeQ0AQb1G
SsCreaXB4DdoQCvmyEDuGJTBjhxJQHo6pkCF25zByLgBQVOTBEHRs5HB91jiQOQh+UCEO4vBflj6
QPK0DEG09JvB4LeuQNynBEEHT5nBpFycQO8tRr9lJaDByCTKQOgsMD8SyqrBxt63QNdg+UDTAI/B
fLXPQDj6DEGI45/BNxqmQDw1AT9nLqTBsKjaQHs/2L9iX6nBA8q2QK758L+Qn6LB2VPkQBdD0L7Z
Za3BaLu0QK6W6z/sZ4/BtZSxQMqLikCMeoTB0nOkQDVgKED6SpnBmPKfQOB2nEAXIo/BBXeHQH1d
dEDHuJXBY/G0QD/4AkGFSLLBmFLrQDVaIEG60bDBvMygQAm3JkE4P6rBMIsaQZtV77+Zm4fB0iuL
QLG52D/M5aDBB0KUQHg850AkIYjBd14SQZpWhMCdM43BF7L6QNL/csDZq5LBZuixQF4iicA/eI3B
OlWYQNtgVcBqx5TB3qLEQNCiFUGYJKvBjxVYQFyWfMDm75bBQwr1QP/ZMMCe+qvBOHeBQEJCwEDQ
CY3Bdtr3QEnSWkCxsY3BxLPbQPK1D0Dm+nnBAaRsQJL7jkC9957BpFiuQLL9SsCOAp/BFz4WQd/E
TsCbbYTBqQbaQJL9bMDXlIrBeYADQQJmYL7btrPBKS8pQARsRsBkEJ3B7CZhQCkmpMCVNJzBPzsu
QCwmhcBoj43BUOHTQFDGO0CILYfB6P4RQUJ+BEEyzI7BSXjpQJWk7EAqYIPBFgIKQSTLEkEX4KDB
yi+OQPJpBEH+OJzBapCAQGArab9TIZvBAqfRQL/R1T/f2a3B8kWZQBb5uj900IrBP5/IQHj6fj+C
EJLBS9rDQGSho0BjU4DBQsyWQPgggEA6y37BODbAQB06QkAMop3BB+i6QJVTqEC+85PBv8FaQDjF
WkAwwZDBhwutQNQWCUFkS7rBiFbOQPy07UDY8LLBIUyYQL1m90B2r67B8WLhQJklJkGov7jByrv2
QG/nLUGh+6vBW6ACQTKYFEFsvrHBRP+YQGfXLEE+Q7LBEh2EQHVwH0E4rKbBfd6rQFP6M0G/KqXB
EUsdQXlnoL+Pc4DBq9ooQWoe7L8EuozBNMMMQSOsvL+REozBFtWBQMNWEECuF6jB4JlcQCvAqj+H
w5zBYEShQF4A30BFN4DBoxx2QGaK/0CpOIfBn6QRQf9NpcBjI4rBE34fQSiggcCpBpPBtp79QE2A
NcBD5JbB91/yQOXIksDkbZjBfkifQAN+j8BvLIbBO7K3QMVhp8BHu5HB7XyUQEklF8Bbx5DBdEwG
QX6+HMBRxrDB3MoAQSp4ScAmS6XBVp9oQCyyyED6BJTBREpJQAQmpkAmzZzBhHoDQYR/A0FN0pTB
DKzoQPW590Cnbo3BRaH5QJVwC0F1057BbH+vQOrbA0GkG5rB5OucQHbgN7/K4qDBDlLIQIwDTD9h
lKvBO9m8QHQj+EC3EZDBSoTNQG4dDEFQiaHBFySlQFt/Ej83v6TB5NnbQPKwx7/iS6rBFUu4QJC1
5L9foaPBBZTjQIHDib7BX67Blk+xQMfR4T8aG4/BnTCxQH/vh0Dz8oPBWFejQPGzJkC+9JjBQfGh
QO3+mkBSs47BfrmHQN91dECQWZXB9me0QBYmAUHI4rPBRt7fQFrYIkG+IbLBLN2UQFAcIkEAPqvB
CsTFQN+sfMBop0fBReWJQPXK3D+F8qDBBPWbQDwK50AnQojB0CzKQAzQpsCifGjBdxPaQJS+pMDG
lX/BEIHLQBl0gMAjOZDB09mmQMXCTMD2+ZTBkBW+QIZyFEGviKzBFjZ1QNOEeMBizJPByYf3QJLm
JsD3uqzBcwSGQGrCwECgrIzBPAv3QE49TUCHYYzB8DDVQEe2BEBBVXjBXG9uQGrzj0BCiZ7Bfkmw
QFseRMB8LaDBJuDTQOl+fsCrmV3BL5vFQDV8gcD07oTBuawCQejePL3c5rTBYuQ4QHukR8D8rpjB
fC12QAN0o8CHhJjBHPpeQBiOgMAvWInBRuLQQAVbMkCpYIbBTkkUQc1FA0GO0ZLBUfvyQHa160Cc
wIXBt5YIQZQREUFEfaTB8fCNQIuIA0EdK5zBIpKBQF0zZb80zJvBvl7OQO7K5D9brK7BDsmUQPEe
tD830IrBP2DEQHMHZz/FyZHBGIfEQAHQn0CBT3/ByzaVQE+CfkBWI37BCy/AQC7qPkDj/ZzBHhO+
QGjhpEB+YJPBuYlaQJOcXEB0XpDBJ2ipQNPxBkERurvBhp/RQEcd70DS7bTBAE6bQLtq7kAoO7DB
+EvTQG5OKEF24rnBxtLmQFTKMEFwDa3BkWr9QD+iGUGSa7PB2WOKQJHiJ0HEIbPBQuR2QDRCGEFO
qqfB05GbQJrcL0EKA6bBGTrOQK+5PsBecUDBBduiQFSvgsAED0fBBXDVQAVImMBjtD7BglqAQL+F
FUD+3KfBKExaQCxvqj819pzBYhSsQOg93kBYwIDBEA+EQLUJAEHBp4bB9FqnQIP4q8Bxa2jBywza
QBV5wcAnLWDB/Pj8QE0moMCXyH/Ba/zRQKGiwsAP+oPBmvHKQO0uocBndZPBdlDqQFWYYsAsKZLB
AL+lQGGaDcBBGZHBe24HQf6kEcBohLHB4CUCQdHYPcB7+qXB1d9wQCscyUBgnJPBKMhMQNikp0AG
TpzB

>  <OMEGA_E>  (1) 
MJ5RPqRMgT6QogQ+CLe+Pg==

>  <OMEGA_NBR>  (1) 
    144837

$$$$
50216819
     RDKit          3D

 62 64  0  0  1  0  0  0  0  0999 V2000
    8.3132    8.1305  -18.4170 C   0  0  0  0  0  0  0  0  0  0  0  0
    7.3005    7.6057  -17.5959 C   0  0  0  0  0  0  0  0  0  0  0  0
    7.9846    8.7670  -19.6291 C   0  0  0  0  0  0  0  0  0  0  0  0
    5.6212    8.3412  -19.2064 C   0  0  0  0  0  0  0  0  0  0  0  0
    4.9020   -0.6946  -20.4986 C   0  0  0  0  0  0  0  0  0  0  0  0
    6.4804    0.6511  -21.7902 C   0  0  0  0  0  0  0  0  0  0  0  0
    5.9512    7.7153  -17.9869 C   0  0  0  0  0  0  0  0  0  0  0  0
    6.6291    8.8960  -20.0347 C   0  0  0  0  0  0  0  0  0  0  0  0
    5.2969    0.5551  -21.0289 C   0  0  0  0  0  0  0  0  0  0  0  0
    6.8639   -1.7452  -21.5042 C   0  0  0  0  0  0  0  0  0  0  0  0
    5.6821   -1.8445  -20.7338 C   0  0  0  0  0  0  0  0  0  0  0  0
    7.2603   -0.4956  -22.0308 C   0  0  0  0  0  0  0  0  0  0  0  0
    5.8232    1.7928  -18.4632 C   0  0  0  0  0  0  0  0  0  0  0  0
    5.6497    4.1248  -16.8636 C   0  0  0  0  0  0  0  0  0  0  0  0
    5.3221    2.6799  -19.6358 C   0  0  2  0  0  0  0  0  0  0  0  0
    5.1664    4.8191  -18.1552 C   0  0  1  0  0  0  0  0  0  0  0  0
    4.4166    3.8394  -19.1024 C   0  0  1  0  0  0  0  0  0  0  0  0
    7.4114   10.3507  -22.0190 C   0  0  0  0  0  0  0  0  0  0  0  0
    5.0676   10.5526  -21.1706 C   0  0  0  0  0  0  0  0  0  0  0  0
    5.7988    8.4565  -22.3749 C   0  0  0  0  0  0  0  0  0  0  0  0
    4.5307    1.8138  -20.6603 C   0  0  0  0  0  0  0  0  0  0  0  0
    4.8584    7.1031  -17.1322 C   0  0  0  0  0  0  0  0  0  0  0  0
    6.2398    9.5558  -21.3791 C   0  0  0  0  0  0  0  0  0  0  0  0
    7.6470   -2.8713  -21.7364 N   0  0  0  0  0  0  0  0  0  0  0  0
    4.2372    5.9364  -17.8148 N   0  0  0  0  0  0  0  0  0  0  0  0
    7.8890    3.3642  -18.0304 O   0  0  0  0  0  0  0  0  0  0  0  0
    6.9611    1.9703  -16.1032 O   0  0  0  0  0  0  0  0  0  0  0  0
    5.3002   -3.0380  -20.1974 O   0  0  0  0  0  0  0  0  0  0  0  0
    3.9232    4.6013  -20.2067 O   0  0  0  0  0  0  0  0  0  0  0  0
    8.3966   -0.3883  -22.7595 F   0  0  0  0  0  0  0  0  0  0  0  0
    6.7479    2.7859  -17.3050 S   0  0  0  0  0  0  0  0  0  0  0  0
    9.3472    8.0452  -18.1171 H   0  0  0  0  0  0  0  0  0  0  0  0
    7.5562    7.1189  -16.6663 H   0  0  0  0  0  0  0  0  0  0  0  0
    8.7704    9.1610  -20.2566 H   0  0  0  0  0  0  0  0  0  0  0  0
    4.5873    8.3988  -19.5135 H   0  0  0  0  0  0  0  0  0  0  0  0
    3.9989   -0.7683  -19.9109 H   0  0  0  0  0  0  0  0  0  0  0  0
    6.7887    1.6062  -22.1891 H   0  0  0  0  0  0  0  0  0  0  0  0
    4.9598    1.3434  -17.9508 H   0  0  0  0  0  0  0  0  0  0  0  0
    6.4702    0.9960  -18.8589 H   0  0  0  0  0  0  0  0  0  0  0  0
    6.1853    4.8495  -16.2327 H   0  0  0  0  0  0  0  0  0  0  0  0
    4.7850    3.7271  -16.3121 H   0  0  0  0  0  0  0  0  0  0  0  0
    6.1930    3.1198  -20.1439 H   0  0  0  0  0  0  0  0  0  0  0  0
    6.0408    5.2211  -18.6881 H   0  0  0  0  0  0  0  0  0  0  0  0
    3.5781    3.3939  -18.5469 H   0  0  0  0  0  0  0  0  0  0  0  0
    7.0780   10.7957  -22.9681 H   0  0  0  0  0  0  0  0  0  0  0  0
    7.7313   11.1484  -21.3325 H   0  0  0  0  0  0  0  0  0  0  0  0
    8.2549    9.6707  -22.2093 H   0  0  0  0  0  0  0  0  0  0  0  0
    4.8019   11.0135  -22.1334 H   0  0  0  0  0  0  0  0  0  0  0  0
    4.1962   10.0148  -20.7688 H   0  0  0  0  0  0  0  0  0  0  0  0
    5.3741   11.3358  -20.4616 H   0  0  0  0  0  0  0  0  0  0  0  0
    5.5207    8.9194  -23.3332 H   0  0  0  0  0  0  0  0  0  0  0  0
    6.6289    7.7527  -22.5351 H   0  0  0  0  0  0  0  0  0  0  0  0
    4.9335    7.9156  -21.9643 H   0  0  0  0  0  0  0  0  0  0  0  0
    4.3560    2.4062  -21.5706 H   0  0  0  0  0  0  0  0  0  0  0  0
    3.5650    1.5285  -20.2176 H   0  0  0  0  0  0  0  0  0  0  0  0
    5.2920    6.7718  -16.1770 H   0  0  0  0  0  0  0  0  0  0  0  0
    4.0847    7.8612  -16.9403 H   0  0  0  0  0  0  0  0  0  0  0  0
    8.4372   -2.6190  -22.2948 H   0  0  0  0  0  0  0  0  0  0  0  0
    7.9613   -3.2443  -20.8634 H   0  0  0  0  0  0  0  0  0  0  0  0
    3.8229    6.2619  -18.6647 H   0  0  0  0  0  0  0  0  0  0  0  0
    5.9238   -3.7108  -20.4445 H   0  0  0  0  0  0  0  0  0  0  0  0
    3.3730    5.3059  -19.8853 H   0  0  0  0  0  0  0  0  0  0  0  0
  1  2  2  0
  1  3  1  0
  2  7  1  0
  3  8  2  0
  4  7  2  0
  4  8  1  0
  5  9  2  0
  5 11  1  0
  6  9  1  0
  6 12  2  0
  7 22  1  0
  8 23  1  0
  9 21  1  0
 10 11  2  0
 10 12  1  0
 10 24  1  0
 11 28  1  0
 12 30  1  0
 13 15  1  0
 13 31  1  0
 14 16  1  0
 14 31  1  0
 15 17  1  0
 15 21  1  0
 16 17  1  0
 16 25  1  0
 17 29  1  0
 18 23  1  0
 19 23  1  0
 20 23  1  0
 22 25  1  0
 26 31  2  0
 27 31  2  0
  1 32  1  0
  2 33  1  0
  3 34  1  0
  4 35  1  0
  5 36  1  0
  6 37  1  0
 13 38  1  0
 13 39  1  0
 14 40  1  0
 14 41  1  0
 15 42  1  6
 16 43  1  6
 17 44  1  1
 18 45  1  0
 18 46  1  0
 18 47  1  0
 19 48  1  0
 19 49  1  0
 19 50  1  0
 20 51  1  0
 20 52  1  0
 20 53  1  0
 21 54  1  0
 21 55  1  0
 22 56  1  0
 22 57  1  0
 24 58  1  0
 24 59  1  0
 25 60  1  0
 28 61  1  0
 29 62  1  0
M  END
>  <OMEGA_C>  (2) 
3AIFQYAWAkH/VZPB4p3pQKZh80BixIzBn4H/QM5FDEF1CJ3Bd+CzQMJ1BUHGppnBDN2cQC/QMb8g
/aPBDl/PQAGtJj9AUq7BXHC+QPTj9kAo5Y/BMyHUQPZVDkEBR6DBSICpQJkaDj8zO6jBaqXbQHxi
37+BCKzBpNO1QEIX7L/L3qXBcFToQJDC/b4jP7DBR1e6QGZ55T+1tJPBQsq0QLn+g0C+6IbB9k6q
QOeDK0AlFp3BelOlQDw2mkDrPZHBYVSNQL+4dUCr0ZjBbirtQG6cJUH4JrDBvCmiQIbXKEFpXanB
IZC5QP1NB0HY/7LBgfuQQLAq6D9gSKXBp3ebQEtM40CvDonBbKzHQIjkGEFXCKvBBrT0QMnCN8AT
5K3BUZeHQN72vUCyhI7BjHL8QHdOV0BYPpDBFcHeQCQz/D9l04DBMZupQBdvQsBElKHBnBV7QJM9
k0Bpp6HBgFgGQQ7Jxr5lE7bBFu/XQKVLMkC0cIrBO44VQUO5AEHe75DBVczxQAHO40CkVIXBeVMM
QY+TEkF2DaLBTcuSQHdhBkGaG5zBlO1/QHmuRL+QSZ/BrDzZQGqWzT9Zg7HBb7aeQHnzqz80m4/B
iQvPQCr7fj8a35bB4u3FQNAum0Ce3IHB+R6ZQDyJbkA1f4LBBC3GQHiqR0CtJqHBKU7BQBMTp0A3
gZXBCf9kQF02WUAhYJTBOH/iQEu7LEG5vrfBg2b3QPlfMkH3qKrBAhQEQUO7GkG9rLHBE6mZQEc3
MEE8EbHBO0eGQM08IEF5JqbBt/irQDxfNUFHsaPBPqmwQOa1DkF5qrrB0h/UQDIW+EDgR7TBZN+d
QPdM/UDNtq/BZWSLQIL+GUCdkKzBGClkQCKlwz+gvaHB4lepQNay2ECYaoHBJbaCQJqO+0DLhYfB
v/4GQS+dJ8DZW7LBVMP+QLiiT8BP6KbBi6p0QFhhyEBfUZXBno+9QEJ9bcBWjqPB1t9XQAfKqUAr
FZ/BHGwDQflpA0GsWpLBAKzmQJQ69EAPBozBNif8QLgMDkGL6pvBQNiwQOfZBUGC5JjBIsvTQNL7
Hj/bJK/BI2qdQKhBEL+/wqTB9467QDra9kAwQo/B6NTQQOKjD0FMRJ/BrwatQJx3IT/dWqnBN8na
QCW047+A1qvB+YLqQCXcFb9PcrDB91i0QJfS4b/46aXBHYS+QAiu6T8F8pTBalO1QMlvgkBsXIfB
caKuQDg2MEAYHZ7BtySmQITwmUABipHBSgqQQPymdkAkm5nBjAi4QP00CUGhK7LB4BXpQLhNKEEV
ra7BWXSdQBi5KUHRLKjBuLKWQBQ7+D/W5abBlOmYQP4r4UBHu4jB/ELEQN+XGkEi6KnBBHbxQE3T
PcCrAK3BstSGQOkEvEAYno7BDKr+QPbeW0AfdZDBk8LgQG4U9z/4wIHBzf0HQVIlF78u/bXBtiqA
QEKylED8QaLBkdylQEwBOcBJGKHBgSPaQMqrMkB6HovB2fETQQRmAkEc4I/Bd/ruQBrz40DLsITB
AZAKQfUQFUEIwKDBO9mPQKViBkHEcpvB+gXgQDKbxD9rkbLB4nB/QLLpDb9BV6DBYeeiQIX/qT/9
NZHB1lDUQP2YiD8QQJjBkTzFQLw+mUBZ94HB9KmZQO46aEA8Q4PB23/KQAyzT0DoxqHByA3CQMGR
qEDWdZXB56dqQJeqVkAPgJXB6AqvQOndEEGMxLnBPYfTQIEV/UDpfrPB5tWcQCKw/0BQH6/Bl17e
QACtL0FWNLbBEgDyQGXpNEF29KjBR3wCQfIHHkGBPrDBU+iUQDpiMUHcza/BOgmCQDtqIEGkNaXB
5eylQJMWNkEiSKLB8DOVQDGqIkBzQK7BcBVsQOi83D89GaTBH6qmQMj81UD5IIHBSGp+QFFP+EDr
F4fBw+HhQPAZbcDvRanByDv0QGzcS8DrxrTBjzNzQP/xxkDJXpXBB6INQft0vL8GJ7bBAxtbQBkl
qkDZi5/BTe4DQSKWAkEmlpLBJpLnQF9j80BfJ4zB/0L9QKIHDUGTNJzBlcSxQBWIBUGTApnBlC/R
QIJQJT9RIq/BKbSbQAYiF7/Z2KTB3m68QJVu9kDsVo/BhOjRQPTqDkGqfZ/BIn2qQNYcHz+8U6nB
iX/aQPhq37/40avBCwrpQNK3Cb/ObrDBtrazQBq34r+FB6bBJ9y8QKGU5z+g55TBPKG1QLFOgkBT
YofBvLSsQPQLL0BEDZ7BmPmlQE/LmUBbhZHB5f6OQBixdkAge5nB65bqQNMaJ0EWC6/BLRCfQLAe
KUHyhKjB7su4QPU1CEGkVrLBbcWTQLFn9T/gpabB8L6ZQFFI4UBluIjB5HvFQMC2GUGRLqrBLcTy
QBDYOcAD1qzBiRmHQBwtvEDUgo7BqQX+QJpFWUAAypDBpY/gQH+g9D8e5IHBEUcHQSFIAb+S8rXB
VGN+QLPalEBQHaLBEQmmQKqMOsB5UaHB2Z7ZQDZJMUCpQYvBsHYUQehnAUG/JJDBVM7vQP5m40CH
xoTBMCsLQVGsE0H3IqHBTriQQF1KBkFTgpvBN4HcQBMSyT9OlLLBPrN7QM5DHL9If6DBeE+hQNDU
qT+IBJHB8xPSQNjzhD9ZRJjB7j3GQJkFmUAEGYLBGhqaQBffaECjIoPB9YDIQL9qTUDn46HBZL3B
QKIjqEAHkpXBoGNoQH3SV0BqR5XBbPvfQC1hLkHXmrbB8NnzQLHHM0HmZKnBxBsDQbGiHEEykrDB
eKSWQO6nMEEmMLDBa3GDQLcMIEG+fKXBVOKnQDSRNUGss6LB0+avQB6/D0FI+bnB/grUQEa7+kBc
nrPBmGydQLci/kDHOK/BHumQQBpuIUA/9q3Bm05nQDm61z+rj6PBx5enQL4l1kCwH4HBqlWAQP67
+EApE4fBAuvjQDktasDIIanB4VH2QIT9R8BelrTBuCJzQCYdx0CgOZXBzloNQbkQsL+QHrbBuzVa
QISwqkC8X5/BNQMFQRoPAkHeZ5PBobLpQMtT80CWz4zBsmH/QN0/DEF1F53B6sezQEmGBUF+oJnB
cPucQOBjNL870KPB8eLOQOK4Jj/ePa7Be3i+QGvy9kBG5I/BBvXTQO1WDkGeSqDB5zSpQJQbDD8g
F6jBdKbbQFAf37+DBKzB7ia2QCmy7L+NvKXBPPvnQHEL+74BPLDBNPW5QIUd5T/djJPBcba0QKAh
hECz3IbB1wuqQI39KkDu+ZzBoVSlQOg9mkBjN5HBTUqNQFHNdUDsyZjBZQy5QBHtBkFV6rLBfN/s
QJw9JUEpTrDBzfyhQEi/KEHfeKnBsYuQQN2d5j/gG6XBQI2bQENX40D4ConBC2HHQOyzGEEPFKvB
mLb0QHVnN8BGAK7B4qSHQI8KvkA6g47BxTb8QHQBV0BKM5DBj5feQIE4/T8Ps4DBfXyqQHvCQsAk
W6HBRO17QIc9k0CbrqHB0Q4GQUvUv775I7bBR7vXQK1bMkBzWYrBl5IVQSiwAEHyCJHBufnxQLmr
40A8ZIXBJDsMQW+JEkH+IqLBKaeSQDqFBkGSCZzBrj+AQKbBSL8KDp/BJoHYQAXzzT8UbrHBH0We
QDycrD+oa4/BQ4bOQCi6fD+yrJbB8+XFQHlYm0AN1YHBXQCZQM8Rb0BpcYLBB/vFQB6MRkBaE6HB
FVjBQN4Ip0BzepXBPnFkQCTrWUCUX5TBhAewQOMkDkE3nrrBkYrTQHQ290DvJ7TBLGOdQLTE/EDL
iq/Bph3iQI87LEGP67fBc1H3QF4XMkGV46rBTN8DQZZGGkFizrHB4XGZQC33L0FoNbHBwhWGQA9C
IEH3MKbBPPCrQJxiNUEn4KPBYZuKQIYYGUBDYqzB4KBjQLeEwT+Gf6HBZHqpQIOy2EBVaYHBeM+C
QHOY+0A/fYfBKN8GQQTuJsBCirLBCiv/QPV+T8DREKfBVe50QNx5yEDpUZXBHYK+QLaQbcDsX6PB
X/dYQOz9qUCEK5/BEiz/QBRTBkGnxY/B3gfgQPrt9UBE+YnBjofzQOQKEkEO8ZjB+VGpQGMAB0GS
iJbBU16fQOCFbL4ik6bBeMPdQGB0AT/8x7DBa/20QPie9kBZWI3BmjnIQLLBEkFYYpzBu3m2QEjy
TD/1oavBFAjXQGKa6r/yMKvBgNmvQCdixL+WKKbBs7ztQGTHUb/HsbDBUuLHQHBs9z/lPZfB1Uu2
QChYfkA1EYjBZv63QLofPEDO4J/BleimQGw1mUBb1ZHBGOCUQKLid0Cg3prBOs2vQLpIDkGlc6/B
/TneQM/cLUGA9arB86GSQPPZLEESaqTBeZmmQLi5DkDlOqrBPKOTQKT420C3kofBN6W6QATQHkGR
o6bB4dLnQHpkR8BRVKrBMN+EQOzit0C6cI7B6VsBQeChZ0CmipDBkLDlQPip7z8ei4PBDM+aQIDy
HsCtZaDBdzWDQPT3lkCh96LBL8gJQU6Qjb9Hf7XBYd7eQD4aNUBlSIzBDhIQQeUPBkEbL43B/xHp
QLn440A18oLBZ94FQbCQGkEGZp3BAmKIQBMAB0FbJpnBALGAQIptg7yM/KLB+HXvQGz8pD/kwbTB
LrasQDStqj8DXZTB2SLgQNlVoj9Qw5rB43HDQMj9lECN/oHBBTqbQFqhWkATpYTBRj/TQO2AZEBu
O6LBej/CQLo5q0BkEJXB/GF3QMUmT0B1bJfBlhimQPu2FkEUybbB3ifMQOBmBEFZHrHBenKVQEL7
A0HWtqzBeczSQAf5NUFJOrLB+y3mQA/fOUE116TBben6QANnJEHR3azBqV+JQLZQNUFIxqvBahhw
QCmbIkF+w6HBMx+aQE6UOEEnIJ7Bz7uwQKs+NEBeO7HBMnGDQLqJDUC60qnBfaqhQAX+zkDhLoDB
4jVwQC5f8EBtj4XBMcQBQUaMSsDAT67BCdjsQDU3VcCjnqLBXWBvQJhPxEDzCJXBZcapQMu5U8Ae
4qDBvf9bQDP4qEAK55/BfZezQOQBBUFP8KjBRM6hQJsh9kAl6Z/BmlbWQI4WE0GRxKfBr2fWQBS2
DEGyf5TBKk7YQET/Ij/ZQajBICmXQEvoNL8F86jBZsazQK/h/EAHqpXBCOvnQJldF0F/h53BdXWr
QCzNBj9n36bBxpHcQFrJ3L9e7KzBUuHwQHa1+b7o86rBRpKvQF336b/pB6zB10O2QAOP5j9/WZHB
85m0QF0KiECTEobBgNioQNrQKECfTZvBppmlQADGm0ATy5DBlKuMQGetdkBf/pfBISz9QGLvPUFZ
haDBCbwZQZ9FIEHWSaPBbEcOQTikKkGGvpDBi86QQGdk3T97eqPBXLifQEQE6UDKu4vBZF4GQeXB
J0E2d5zBS730QOeVNcAL06/BoA6JQC1nwEDOPo7BzZX7QLGLUUBJfY7BkkvaQCX2BUBm3HzBkBgO
QUPLub5jpavBRU1+QN0jkUBAf6HB15ybQIslQMBNFa7BQJXVQCuRNEDHkIjBjZWmQA7XAUEAybDB
50CGQCGR4UBNyqDBps7jQDO9GkGnvq7BhsDjQPWRD0GMqIzBC7fnQPMizD+BOqfB6LFpQGK7Sr8p
LajBA3qZQHjWuT+KII3B503JQGM9bz+L8JPBLwrHQEP+n0A1kIHBNH6YQNSMfEAcX4HBRQTGQOk/
QUC1Kp/BhsPBQLBAp0BNOZXBrZFhQF0EX0DegpPB2qMLQWSlSUERx5/BkITzQPmkPEFy9ajBJ7Dh
QAg3Q0G4spvBVtYmQf7sK0EXiaLBlTEfQWmKEEFOcKDBOeQUQXAKH0HtuavBQ1EbQQF1NkGyjJDB
x/UAQc5FMEFVuovBYSUUQaM6G0Gbq43BmxaJQJrWFEBqnqrBnQ1mQHVgrz+OxZ/Bxhm5QAVk4kCK
3YXBEbCIQAXQ/0AuTIjBW2HhQJLPZ8Dp5rDB9TUCQS9AKcASoLbBZxtsQHuPxUAojZTBojIUQfqx
mb/gha3Bn9BbQLgAqUBkmp/B

>  <OMEGA_E>  (2) 
sKjdPqyn9z4wiO0+CFndPnzOQD+EmV0/

>  <OMEGA_NBR>  (2) 
     11586

$$$$
50216904
     RDKit          3D

 68 71  0  0  1  0  0  0  0  0999 V2000
    8.3275    8.0559  -18.4903 C   0  0  0  0  0  0  0  0  0  0  0  0
    7.3195    7.5641  -17.6445 C   0  0  0  0  0  0  0  0  0  0  0  0
    7.9912    8.6662  -19.7133 C   0  0  0  0  0  0  0  0  0  0  0  0
    4.8662   -0.5817  -20.6147 C   0  0  0  0  0  0  0  0  0  0  0  0
    5.6282    8.2771  -19.2535 C   0  0  0  0  0  0  0  0  0  0  0  0
    6.5103    0.7474  -21.8366 C   0  0  0  0  0  0  0  0  0  0  0  0
    5.6501   -1.7368  -20.8023 C   0  0  0  0  0  0  0  0  0  0  0  0
    5.9669    7.6806  -18.0208 C   0  0  0  0  0  0  0  0  0  0  0  0
    6.6326    8.8008  -20.1066 C   0  0  0  0  0  0  0  0  0  0  0  0
    5.2988    0.6595  -21.1201 C   0  0  0  0  0  0  0  0  0  0  0  0
    6.8577   -1.6503  -21.5356 C   0  0  0  0  0  0  0  0  0  0  0  0
    7.2852   -0.4075  -22.0510 C   0  0  0  0  0  0  0  0  0  0  0  0
    4.4490   -3.0707  -18.8394 C   0  0  0  0  0  0  0  0  0  0  0  0
    5.9468   -3.4076  -18.8351 C   0  0  0  0  0  0  0  0  0  0  0  0
    5.7997    1.7818  -18.4943 C   0  0  0  0  0  0  0  0  0  0  0  0
    5.6335    4.0846  -16.8405 C   0  0  0  0  0  0  0  0  0  0  0  0
    5.2514   -3.0503  -20.1530 C   0  0  0  0  0  0  0  0  0  0  0  0
    5.3281    2.7136  -19.6482 C   0  0  2  0  0  0  0  0  0  0  0  0
    5.1667    4.8027  -18.1253 C   0  0  1  0  0  0  0  0  0  0  0  0
    4.4173    3.8510  -19.0927 C   0  0  1  0  0  0  0  0  0  0  0  0
    5.7825    8.3220  -22.4326 C   0  0  0  0  0  0  0  0  0  0  0  0
    7.4103   10.2113  -22.1238 C   0  0  0  0  0  0  0  0  0  0  0  0
    5.0741   10.4466  -21.2647 C   0  0  0  0  0  0  0  0  0  0  0  0
    4.5515    1.9143  -20.7332 C   0  0  0  0  0  0  0  0  0  0  0  0
    4.8824    7.0974  -17.1355 C   0  0  0  0  0  0  0  0  0  0  0  0
    6.2375    9.4370  -21.4610 C   0  0  0  0  0  0  0  0  0  0  0  0
    7.6516   -2.7789  -21.7161 N   0  0  0  0  0  0  0  0  0  0  0  0
    4.2443    5.9233  -17.7827 N   0  0  0  0  0  0  0  0  0  0  0  0
    7.8816    3.3152  -17.9916 O   0  0  0  0  0  0  0  0  0  0  0  0
    6.9093    1.8938  -16.1087 O   0  0  0  0  0  0  0  0  0  0  0  0
    3.9274    4.6384  -20.1812 O   0  0  0  0  0  0  0  0  0  0  0  0
    8.4589   -0.3118  -22.7196 F   0  0  0  0  0  0  0  0  0  0  0  0
    6.7221    2.7372  -17.2958 S   0  0  0  0  0  0  0  0  0  0  0  0
    9.3641    7.9655  -18.2011 H   0  0  0  0  0  0  0  0  0  0  0  0
    7.5812    7.0970  -16.7065 H   0  0  0  0  0  0  0  0  0  0  0  0
    8.7738    9.0359  -20.3593 H   0  0  0  0  0  0  0  0  0  0  0  0
    3.9296   -0.6481  -20.0810 H   0  0  0  0  0  0  0  0  0  0  0  0
    4.5916    8.3355  -19.5510 H   0  0  0  0  0  0  0  0  0  0  0  0
    6.8431    1.7004  -22.2204 H   0  0  0  0  0  0  0  0  0  0  0  0
    3.7061   -3.8619  -18.6602 H   0  0  0  0  0  0  0  0  0  0  0  0
    4.0954   -2.1283  -18.3955 H   0  0  0  0  0  0  0  0  0  0  0  0
    6.6662   -2.7071  -18.3860 H   0  0  0  0  0  0  0  0  0  0  0  0
    6.2769   -4.4406  -18.6506 H   0  0  0  0  0  0  0  0  0  0  0  0
    4.9235    1.3296  -18.0068 H   0  0  0  0  0  0  0  0  0  0  0  0
    6.4421    0.9880  -18.9033 H   0  0  0  0  0  0  0  0  0  0  0  0
    6.1728    4.7940  -16.1957 H   0  0  0  0  0  0  0  0  0  0  0  0
    4.7608    3.6886  -16.3005 H   0  0  0  0  0  0  0  0  0  0  0  0
    5.0644   -3.8903  -20.8382 H   0  0  0  0  0  0  0  0  0  0  0  0
    6.2134    3.1701  -20.1148 H   0  0  0  0  0  0  0  0  0  0  0  0
    6.0499    5.2042  -18.6439 H   0  0  0  0  0  0  0  0  0  0  0  0
    3.5783    3.3907  -18.5502 H   0  0  0  0  0  0  0  0  0  0  0  0
    5.5003    8.7685  -23.3975 H   0  0  0  0  0  0  0  0  0  0  0  0
    6.6070    7.6100  -22.5853 H   0  0  0  0  0  0  0  0  0  0  0  0
    4.9168    7.7945  -22.0057 H   0  0  0  0  0  0  0  0  0  0  0  0
    7.0737   10.6404  -23.0791 H   0  0  0  0  0  0  0  0  0  0  0  0
    7.7401   11.0199  -21.4548 H   0  0  0  0  0  0  0  0  0  0  0  0
    8.2479    9.5220  -22.3064 H   0  0  0  0  0  0  0  0  0  0  0  0
    4.8049   10.8898  -22.2348 H   0  0  0  0  0  0  0  0  0  0  0  0
    4.2016    9.9236  -20.8459 H   0  0  0  0  0  0  0  0  0  0  0  0
    5.3913   11.2417  -20.5739 H   0  0  0  0  0  0  0  0  0  0  0  0
    4.4250    2.5467  -21.6243 H   0  0  0  0  0  0  0  0  0  0  0  0
    3.5634    1.6368  -20.3373 H   0  0  0  0  0  0  0  0  0  0  0  0
    5.3277    6.7840  -16.1797 H   0  0  0  0  0  0  0  0  0  0  0  0
    4.1177    7.8658  -16.9493 H   0  0  0  0  0  0  0  0  0  0  0  0
    8.4593   -2.5365  -22.2535 H   0  0  0  0  0  0  0  0  0  0  0  0
    7.9376   -3.1311  -20.8250 H   0  0  0  0  0  0  0  0  0  0  0  0
    3.8100    6.2349  -18.6279 H   0  0  0  0  0  0  0  0  0  0  0  0
    3.3721    5.3323  -19.8459 H   0  0  0  0  0  0  0  0  0  0  0  0
  1  2  2  0
  1  3  1  0
  2  8  1  0
  3  9  2  0
  4  7  2  0
  4 10  1  0
  5  8  2  0
  5  9  1  0
  6 10  2  0
  6 12  1  0
  7 11  1  0
  7 17  1  0
  8 25  1  0
  9 26  1  0
 10 24  1  0
 11 12  2  0
 11 27  1  0
 12 32  1  0
 13 14  1  0
 13 17  1  0
 14 17  1  0
 15 18  1  0
 15 33  1  0
 16 19  1  0
 16 33  1  0
 18 20  1  0
 18 24  1  0
 19 20  1  0
 19 28  1  0
 20 31  1  0
 21 26  1  0
 22 26  1  0
 23 26  1  0
 25 28  1  0
 29 33  2  0
 30 33  2  0
  1 34  1  0
  2 35  1  0
  3 36  1  0
  4 37  1  0
  5 38  1  0
  6 39  1  0
 13 40  1  0
 13 41  1  0
 14 42  1  0
 14 43  1  0
 15 44  1  0
 15 45  1  0
 16 46  1  0
 16 47  1  0
 17 48  1  0
 18 49  1  6
 19 50  1  6
 20 51  1  1
 21 52  1  0
 21 53  1  0
 21 54  1  0
 22 55  1  0
 22 56  1  0
 22 57  1  0
 23 58  1  0
 23 59  1  0
 23 60  1  0
 24 61  1  0
 24 62  1  0
 25 63  1  0
 25 64  1  0
 27 65  1  0
 27 66  1  0
 28 67  1  0
 31 68  1  0
M  END
>  <OMEGA_C>  (3) 
YD0FQRzlAEEQ7JPBFjnqQA8N8kDgJ43Bgrf/QOCoCkHetJ3BKribQNLnFL/X6qTB1Bm0QOxuBEEf
B5rBLVTQQJxVPz9Lsa7Bws20QBFP3r8Ga6bB5fC+QJ/H9UCjKpDBDD7UQEbQDEE92qDB/I+pQBrT
KD8L9qjBo3LbQBc807/PSKzBkiDpQJmh0L5waLDB+12OQJaFRMD/tpbB4ku+QOQWWsA+rpbBXpe5
QPMR5D9O9JPBQUW0QEC1gkBouYbBtAuoQGc4Q8BSOaHBkH+qQCirLUCKL53B91WlQGuvmUCwAJHB
KVqNQNZ2dkDevZjBcwq5QBgnBUEAdrPBgSHtQLBhI0F9/bDBvl6iQDUlJ0ENHqrBhqWRQDsG9T+w
3aXB+zycQAIe40CRFYnBfpnHQNz9FkEVsKvBhdn0QEzaMcCTuq3BNdGHQIyLvUADQ47BGDb8QCYs
VEDA7o/BQBndQNdm8j+d3oDBEFt7QF5tlEAnc6HBv1cHQRakn766wbXBOxvXQJstL0DJXYrBddMV
QW3l/kDrm5HB/pjyQO4a40DvpoXBUWEMQfaSEEHT36LBMH97QOXpJb/upaDBUu6SQE5eBUF4aJzB
rvraQOSn2T9xw7HBbzBtQKIod8D+R5XBLA2DQJk2CMAGKpPBKlHVQNFALcCDFpPBNtzIQG0ZjsB7
NJXBQo2dQAcvqj/TDZDBFSbOQIzwfD/dOZfB1IfFQGdomUCykIHBcFiYQHoSbEBiZ4LBlg+iQP35
eMCltKbBTdTGQKzjSkAd66DBgJjBQJKIpkCqJpXB8QJlQOwBWUDNZpTBrQKwQM5LDEEeLrvBUGzT
QFuF80DDrrTBoVadQNZs+UCVC7DBt1viQPs+KkH0objBS6/3QHhRMEF9o6vBPfcDQSVaGEGXc7LB
gMGZQH88LkHY4LHB6HOGQAvHHkFnxKbB7YWsQNPdM0FQl6TBN5mNQPL9IkCH/qzBCw9kQOeB0T/A
sqLBR3yqQFcW2UAdcIHB88ODQLi0+0AkmIfBLVkHQb9VIsAtB7LBIAH+QJhkSMCJmabBm9ZzQEKE
x0DeBZXBws9XQImiqkBwxJ7By1YFQaVDAUHIzJPBpYPqQOl/8kDsCo3Brcz/QE/4CkGzl53BdGOb
QAn6Hb88u6TB5Ui0QBVyBEFm7ZnBGhjPQIUSOz9Hp67Bq7+0QKT84b+TXKbBtje/QJLa9UAaE5DB
xEvUQDPzDEGrvaDBb6uoQPJ2IT9Iy6jB7xrbQGja1L8jU6zB2y/oQIuL1L6gdLDBSf6OQKxpSMBg
o5bBHny/QJ62V8C2UJbBJTC5QIx54z811JPBwkC0QEXlgkCevobBsm+pQChhRcAiBqHBu/SpQEec
LECXHZ3BQlmlQLm9mUBjCpHBYzKNQO5sdkCgvpjB8c7sQNhNI0Fi/LDBQiyiQA8cJ0FDC6rBBNS4
QOvzBEFfQbPB+J6QQKTx8D+LoKXBy4KcQFML40BaBonBRXDHQBz3FkHnlqvB9BH1QIPdMcAcxa3B
2PqHQOSzvUBcSo7Baej7QPY+VEBsA5DBtTHdQBRa9D9Xz4DBH717QMdNlEA+gqHB0c8GQbjZm74P
1rXBVvfWQHV9L0DdWorBJu4VQXfy/0ADeZHBPvjyQBuh40AIiYXBkGEMQa/3EEHGwqLBUWF7QNqb
Mb8BW6DBtxuTQGVEBUH4T5zBekLZQNf31z8IwrHBtpJxQMnLfcAwMZXBDHiBQC8rDcDqS5PBpbXU
QNlzJ8CHuZLB9AbMQDoKjMDMnpTBsTOdQIF1qj/z2o/BV6DNQGJaej/pD5fBJo7FQE2jmUAtm4HB
DFGYQOakbEAsaYLBL6alQC6kfMCdZKbB9DvGQDP1SEDz+aDBB53BQGJ0pkB2NpXBFkpkQAvQWUBq
ZZTBX9nhQPcMKkFRo7jBUHD3QDRTMEH6savBJ84DQRxGGEGtcbLBEGyZQI4ULkGU0rHBY1WGQCjE
HkFxo6bBNVysQGDrM0G2kqTB2pyvQOrtC0G//7rBfj/TQJwk80Cdc7TBjDydQAcX+UC5w6/BQsWL
QKSBIEBuw6zBmbxiQIeKzD8bR6LBEcOqQJWy2EDGZ4HBXRuEQLaj+0DzeIfBwk4HQWCzIcDfJLLB
GLD+QKKyR8AEpabBQpp0QK3qx0CWDpXBlbFYQI/OqkDF4J7B

>  <OMEGA_E>  (3) 
kJSIPnhFiD4=

>  <OMEGA_NBR>  (3) 
     25779

$$$$
50216777
     RDKit          3D

 70 72  0  0  1  0  0  0  0  0999 V2000
    8.3475    8.0313  -18.5045 C   0  0  0  0  0  0  0  0  0  0  0  0
    7.3348    7.5572  -17.6543 C   0  0  0  0  0  0  0  0  0  0  0  0
    8.0174    8.6261  -19.7367 C   0  0  0  0  0  0  0  0  0  0  0  0
    5.6507    8.2612  -19.2753 C   0  0  0  0  0  0  0  0  0  0  0  0
    4.8709   -0.5696  -20.6460 C   0  0  0  0  0  0  0  0  0  0  0  0
    6.5277    0.7714  -21.8245 C   0  0  0  0  0  0  0  0  0  0  0  0
    5.9836    7.6772  -18.0348 C   0  0  0  0  0  0  0  0  0  0  0  0
    6.6604    8.7662  -20.1336 C   0  0  0  0  0  0  0  0  0  0  0  0
    5.3141    0.6775  -21.1141 C   0  0  0  0  0  0  0  0  0  0  0  0
    5.6360   -1.7297  -20.8621 C   0  0  0  0  0  0  0  0  0  0  0  0
    6.8690   -1.6364  -21.5570 C   0  0  0  0  0  0  0  0  0  0  0  0
    7.3009   -0.3839  -22.0511 C   0  0  0  0  0  0  0  0  0  0  0  0
    5.7891    1.7867  -18.4699 C   0  0  0  0  0  0  0  0  0  0  0  0
    5.6258    4.0996  -16.8252 C   0  0  0  0  0  0  0  0  0  0  0  0
    5.3208    2.7184  -19.6250 C   0  0  2  0  0  0  0  0  0  0  0  0
    5.1586    4.8087  -18.1142 C   0  0  1  0  0  0  0  0  0  0  0  0
    4.4036    3.8501  -19.0695 C   0  0  1  0  0  0  0  0  0  0  0  0
    4.3725   -4.1237  -18.1380 C   0  0  0  0  0  0  0  0  0  0  0  0
    7.4560   10.1322  -22.1745 C   0  0  0  0  0  0  0  0  0  0  0  0
    5.1233   10.4138  -21.3201 C   0  0  0  0  0  0  0  0  0  0  0  0
    5.8018    8.2598  -22.4492 C   0  0  0  0  0  0  0  0  0  0  0  0
    4.5555    1.9217  -20.7172 C   0  0  0  0  0  0  0  0  0  0  0  0
    5.1170   -3.0336  -20.2829 C   0  0  0  0  0  0  0  0  0  0  0  0
    4.8937    7.1127  -17.1434 C   0  0  0  0  0  0  0  0  0  0  0  0
    5.2483   -3.0205  -18.7460 C   0  0  0  0  0  0  0  0  0  0  0  0
    6.2729    9.3854  -21.4981 C   0  0  0  0  0  0  0  0  0  0  0  0
    7.6686   -2.7589  -21.7508 N   0  0  0  0  0  0  0  0  0  0  0  0
    4.2446    5.9371  -17.7775 N   0  0  0  0  0  0  0  0  0  0  0  0
    7.8738    3.3176  -17.9659 O   0  0  0  0  0  0  0  0  0  0  0  0
    6.8907    1.9092  -16.0786 O   0  0  0  0  0  0  0  0  0  0  0  0
    3.8961    4.6279  -20.1566 O   0  0  0  0  0  0  0  0  0  0  0  0
    8.4739   -0.2793  -22.7193 F   0  0  0  0  0  0  0  0  0  0  0  0
    6.7103    2.7461  -17.2713 S   0  0  0  0  0  0  0  0  0  0  0  0
    9.3829    7.9391  -18.2117 H   0  0  0  0  0  0  0  0  0  0  0  0
    7.5918    7.1010  -16.7097 H   0  0  0  0  0  0  0  0  0  0  0  0
    8.8037    8.9797  -20.3871 H   0  0  0  0  0  0  0  0  0  0  0  0
    4.6150    8.3244  -19.5747 H   0  0  0  0  0  0  0  0  0  0  0  0
    3.9332   -0.6388  -20.1147 H   0  0  0  0  0  0  0  0  0  0  0  0
    6.8646    1.7283  -22.1949 H   0  0  0  0  0  0  0  0  0  0  0  0
    4.9118    1.3355  -17.9832 H   0  0  0  0  0  0  0  0  0  0  0  0
    6.4319    0.9920  -18.8765 H   0  0  0  0  0  0  0  0  0  0  0  0
    6.1680    4.8127  -16.1868 H   0  0  0  0  0  0  0  0  0  0  0  0
    4.7532    3.7100  -16.2805 H   0  0  0  0  0  0  0  0  0  0  0  0
    6.2074    3.1803  -20.0839 H   0  0  0  0  0  0  0  0  0  0  0  0
    6.0422    5.2009  -18.6390 H   0  0  0  0  0  0  0  0  0  0  0  0
    3.5744    3.3855  -18.5158 H   0  0  0  0  0  0  0  0  0  0  0  0
    4.4708   -4.1087  -17.0425 H   0  0  0  0  0  0  0  0  0  0  0  0
    3.3217   -3.9513  -18.4141 H   0  0  0  0  0  0  0  0  0  0  0  0
    4.6966   -5.1023  -18.5218 H   0  0  0  0  0  0  0  0  0  0  0  0
    7.1245   10.5500  -23.1366 H   0  0  0  0  0  0  0  0  0  0  0  0
    7.7978   10.9469  -21.5193 H   0  0  0  0  0  0  0  0  0  0  0  0
    8.2836    9.4282  -22.3464 H   0  0  0  0  0  0  0  0  0  0  0  0
    4.8605   10.8437  -22.2979 H   0  0  0  0  0  0  0  0  0  0  0  0
    4.2437    9.9100  -20.8929 H   0  0  0  0  0  0  0  0  0  0  0  0
    5.4511   11.2163  -20.6430 H   0  0  0  0  0  0  0  0  0  0  0  0
    5.5246    8.6928  -23.4216 H   0  0  0  0  0  0  0  0  0  0  0  0
    6.6164    7.5340  -22.5900 H   0  0  0  0  0  0  0  0  0  0  0  0
    4.9295    7.7517  -22.0121 H   0  0  0  0  0  0  0  0  0  0  0  0
    4.4249    2.5607  -21.6030 H   0  0  0  0  0  0  0  0  0  0  0  0
    3.5693    1.6316  -20.3257 H   0  0  0  0  0  0  0  0  0  0  0  0
    4.0589   -3.1576  -20.5567 H   0  0  0  0  0  0  0  0  0  0  0  0
    5.7019   -3.8712  -20.6909 H   0  0  0  0  0  0  0  0  0  0  0  0
    5.3364    6.8056  -16.1843 H   0  0  0  0  0  0  0  0  0  0  0  0
    4.1359    7.8898  -16.9653 H   0  0  0  0  0  0  0  0  0  0  0  0
    4.9235   -2.0429  -18.3604 H   0  0  0  0  0  0  0  0  0  0  0  0
    6.2984   -3.1938  -18.4680 H   0  0  0  0  0  0  0  0  0  0  0  0
    8.4911   -2.4995  -22.2570 H   0  0  0  0  0  0  0  0  0  0  0  0
    7.9296   -3.1393  -20.8635 H   0  0  0  0  0  0  0  0  0  0  0  0
    3.8082    6.2441  -18.6232 H   0  0  0  0  0  0  0  0  0  0  0  0
    3.3370    5.3178  -19.8191 H   0  0  0  0  0  0  0  0  0  0  0  0
  1  2  2  0
  1  3  1  0
  2  7  1  0
  3  8  2  0
  4  7  2  0
  4  8  1  0
  5  9  2  0
  5 10  1  0
  6  9  1  0
  6 12  2  0
  7 24  1  0
  8 26  1  0
  9 22  1  0
 10 11  2  0
 10 23  1  0
 11 12  1  0
 11 27  1  0
 12 32  1  0
 13 15  1  0
 13 33  1  0
 14 16  1  0
 14 33  1  0
 15 17  1  0
 15 22  1  0
 16 17  1  0
 16 28  1  0
 17 31  1  0
 18 25  1  0
 19 26  1  0
 20 26  1  0
 21 26  1  0
 23 25  1  0
 24 28  1  0
 29 33  2  0
 30 33  2  0
  1 34  1  0
  2 35  1  0
  3 36  1  0
  4 37  1  0
  5 38  1  0
  6 39  1  0
 13 40  1  0
 13 41  1  0
 14 42  1  0
 14 43  1  0
 15 44  1  6
 16 45  1  6
 17 46  1  1
 18 47  1  0
 18 48  1  0
 18 49  1  0
 19 50  1  0
 19 51  1  0
 19 52  1  0
 20 53  1  0
 20 54  1  0
 20 55  1  0
 21 56  1  0
 21 57  1  0
 21 58  1  0
 22 59  1  0
 22 60  1  0
 23 61  1  0
 23 62  1  0
 24 63  1  0
 24 64  1  0
 25 65  1  0
 25 66  1  0
 27 67  1  0
 27 68  1  0
 28 69  1  0
 31 70  1  0
M  END
>  <OMEGA_C>  (4) 
QY8FQUOAAEE5CZTBobbqQF3U8UAUPI3BOUcAQZQECkG05J3BydK0QAAuBEHkM5rBcN6bQKfTEb/0
KqXBMePQQA15RT+gmK7BSXm/QLyr9UBaR5DBNSLVQI1CDEGkEaHBZQ2qQOtyLT+e6ajB0Fm0QFxo
3b+g5abBJs/bQDR20b+rdKzBSqHpQEiPxL6yaLDBU0C5QBSx5D9UwpPB3Qa0QMIvg0D2mYbBRUSq
QNP5LUAVAJ3BXBOlQI7gmUDj6ZDBJ+qMQDpndkBCjpjBLeuLQCj1g8CzGpHB1JfuQGMdIkF6ZbHB
VfKjQNyeJkGNj6rBg6i5QP4nBEH2l7PBqcaRQOT49T/cvKXBvL6jQLEmQsB5Q6LBf5mcQPGa40Ca
JYnB7/GnQJ5QQcC295XBw7vIQHoqFkEo/KvBR2X1QLSRMMCKAa7BjdOHQMP8vUA4OI7BMvb7QCBT
VEAduo/BX4DcQERh9D/0oIDBW1p5QF0XlEDMQKHBJJUHQfn9jr4WwbXBnrrWQGq/L0CfK4rBdCAW
QWIN/kCEsZHBxe/yQCc740CRrYXBDNwMQausD0HVGKPB/K2TQMgwBUEVmZzBUbl7QGiLI7/S6qDB
a6rbQGc63T8gj7HBYy2dQO7yqj+w3Y/B/NHNQAD0fT8mA5fBpGDFQFMBmkCRfoHB4RmYQNhvbUCP
PoLBB6PGQJmKS0Dqq6DBvlnBQJFtpkC3HJXBPMJkQPurWEBOIJTBkBCPQDt6g8AgV4jB8JZUQMfi
fMAqUJPB60qWQNJFo8CWLJTBTvzjQPXMKEG4F7nBoof5QLEmL0GMJ6zBqokEQd/ZFkFkxbLBjomb
QLl/LUEfYrLBxsyHQFuPHkGSJKfBW2+uQCt2M0HbJKXBfcmwQJoVC0GHX7vBKbnTQJMW8UA7uLTB
vL6dQFYO+EDTGLDBcJiNQODiI0DZ0qzBrW9kQF3Y0D/5mqLBTuKBQLUWSsAKdKTB6HW2QFjBd8D1
hqXBhcOqQFjH2UB2eYHB/ViEQCZ5/EDyuIfBAo2dQHe+AsAY4pLBdYzJQFRnTMCEvpPBZ9sHQdr3
H8BXDrLBB7/9QIXqSMB96KbBR7pzQKPPx0Bp/JTBB5JVQEQrqkCcjZ7BGpwFQUtwAEEUGpTBVPDq
QM2t8UBMQ43BnjoAQWkWCkGE6p3BHs60QCBQBEGkHJrBu9ObQK2iFL+ID6XB7JnQQP5aQz+Wja7B
UKK/QP7C9UCzOpDBbfbUQABpDEHGAqHBHNGpQJftKj/g2KjBQXG0QHae3r+LxqbBKsrbQDBb0r9k
YqzB9G/pQPjmx770XLDBiKm4QB5i5D/fsZPBexa0QCtEg0CEnobBGfWpQAOrLUAj+pzBRR2lQNX7
mUC87ZDBmNeMQBPEdkDflJjB0tWNQDCPhcDH+pDBAPG5QOk0BEFDjbPBMLrtQFOlIkHTRLHBSt2i
QH1mJkFxc6rB2XCRQDDR9D/yr6XBahqkQD3nQsA3G6LBV9GcQJuj40BjGInBZwWoQKiXQcCozpXB
eEfIQAtNFkEq56vBFHL1QNjkMMDF963BYPOHQJ8lvkBkNY7BQ7L7QP6IU0Ba1I/BNWjcQB5d9D/E
ooDBDOl5QDpZlECeTqHBzHMHQXZckb69vLXBZoXWQAGFL0ApMYrBCzQWQXy+/UBS0pHBY0/zQBTi
4kCMvYXBVMEMQYjHD0GuJKPBsJuTQMdhBUFFdJzBSb57QHrbJr8hyqDBrUXbQOEx3D88ibHB+nWc
QMZYrD8Vw4/BFuzMQI/Eej9C6ZbB0J3FQDkHmkDPiIHBBCeYQGLvbUBtPILBuXXGQPStSkBAp6DB
P2PBQL2BpkAPIpXBUTZkQDmVWUCoK5TBNsOQQLHphMAqNojBggVYQKvdgcDbO5PBA/OZQKlEpMCq
CJTB+NuwQG4bC0GCUrvBf3PUQM208UAqsLTB21GeQKKT90ALFbDBYu3iQLZOKUEf9LjBTSb4QL66
L0Gz/avBSlAEQdWjF0GxqLLBLj+aQIBHLUFaQrLBuACHQEALHkGYEKfB+dasQPtHM0FR/6TB2yqN
QI8jI0D1yKzBY9ljQPKQzz/WiKLBjlOCQKqFS8A1VqTBEiC3QC9LeMA6UKXBYQqrQByk2UCJcYHB
Tp6EQDmE/EA5oIfBpOObQIU7BMBCvZLB59PJQIEJScARipPBXtQHQbUmIMAXDbLBEfn9QK0yScB+
4abBdhZ0QPwbyEAt+JTBy3JWQM+bqkCAop7B

>  <OMEGA_E>  (4) 
QKuWPsDOlT4=

>  <OMEGA_NBR>  (4) 
     28335

$$$$
50216797
     RDKit          3D

 71 73  0  0  1  0  0  0  0  0999 V2000
    8.3591    8.0025  -18.5024 C   0  0  0  0  0  0  0  0  0  0  0  0
    7.3457    7.5292  -17.6522 C   0  0  0  0  0  0  0  0  0  0  0  0
    8.0291    8.6081  -19.7295 C   0  0  0  0  0  0  0  0  0  0  0  0
    5.6619    8.2530  -19.2637 C   0  0  0  0  0  0  0  0  0  0  0  0
    4.8326   -0.5792  -20.6740 C   0  0  0  0  0  0  0  0  0  0  0  0
    6.5447    0.7415  -21.7934 C   0  0  0  0  0  0  0  0  0  0  0  0
    5.9942    7.6604  -18.0280 C   0  0  0  0  0  0  0  0  0  0  0  0
    6.6718    8.7565  -20.1220 C   0  0  0  0  0  0  0  0  0  0  0  0
    5.3102    0.6632  -21.1174 C   0  0  0  0  0  0  0  0  0  0  0  0
    5.5870   -1.7486  -20.8741 C   0  0  0  0  0  0  0  0  0  0  0  0
    6.8428   -1.6712  -21.5276 C   0  0  0  0  0  0  0  0  0  0  0  0
    7.3072   -0.4244  -22.0024 C   0  0  0  0  0  0  0  0  0  0  0  0
    5.7625    1.7601  -18.4637 C   0  0  0  0  0  0  0  0  0  0  0  0
    5.6182    4.0794  -16.8229 C   0  0  0  0  0  0  0  0  0  0  0  0
    5.3165    2.6993  -19.6219 C   0  0  2  0  0  0  0  0  0  0  0  0
    5.1591    4.7909  -18.1143 C   0  0  1  0  0  0  0  0  0  0  0  0
    4.4014    3.8347  -19.0705 C   0  0  1  0  0  0  0  0  0  0  0  0
    5.8212    8.2464  -22.4380 C   0  0  0  0  0  0  0  0  0  0  0  0
    7.4619   10.1302  -22.1587 C   0  0  0  0  0  0  0  0  0  0  0  0
    5.1258   10.3951  -21.3068 C   0  0  0  0  0  0  0  0  0  0  0  0
    4.5610    1.9156  -20.7298 C   0  0  0  0  0  0  0  0  0  0  0  0
    5.0320   -3.0476  -20.3261 C   0  0  0  0  0  0  0  0  0  0  0  0
    4.9020    7.0954  -17.1405 C   0  0  0  0  0  0  0  0  0  0  0  0
    5.0230   -3.0041  -18.7791 C   0  0  1  0  0  0  0  0  0  0  0  0
    6.2827    9.3749  -21.4854 C   0  0  0  0  0  0  0  0  0  0  0  0
    4.2301   -4.1968  -18.2130 C   0  0  0  0  0  0  0  0  0  0  0  0
    7.6353   -2.8028  -21.6975 N   0  0  0  0  0  0  0  0  0  0  0  0
    4.2500    5.9251  -17.7819 N   0  0  0  0  0  0  0  0  0  0  0  0
    7.8627    3.2659  -17.9510 O   0  0  0  0  0  0  0  0  0  0  0  0
    6.8535    1.8737  -16.0661 O   0  0  0  0  0  0  0  0  0  0  0  0
    3.8964    4.6126  -20.1587 O   0  0  0  0  0  0  0  0  0  0  0  0
    6.3680   -3.0190  -18.2956 O   0  0  0  0  0  0  0  0  0  0  0  0
    8.5020   -0.3363  -22.6327 F   0  0  0  0  0  0  0  0  0  0  0  0
    2.9320   -4.1128  -18.6112 F   0  0  0  0  0  0  0  0  0  0  0  0
    4.2716   -4.1662  -16.8559 F   0  0  0  0  0  0  0  0  0  0  0  0
    4.7602   -5.3699  -18.6516 F   0  0  0  0  0  0  0  0  0  0  0  0
    6.6887    2.7104  -17.2612 S   0  0  0  0  0  0  0  0  0  0  0  0
    9.3948    7.9014  -18.2135 H   0  0  0  0  0  0  0  0  0  0  0  0
    7.6025    7.0652  -16.7113 H   0  0  0  0  0  0  0  0  0  0  0  0
    8.8154    8.9634  -20.3790 H   0  0  0  0  0  0  0  0  0  0  0  0
    4.6257    8.3241  -19.5598 H   0  0  0  0  0  0  0  0  0  0  0  0
    3.8769   -0.6378  -20.1745 H   0  0  0  0  0  0  0  0  0  0  0  0
    6.9057    1.6947  -22.1507 H   0  0  0  0  0  0  0  0  0  0  0  0
    4.8756    1.3219  -17.9826 H   0  0  0  0  0  0  0  0  0  0  0  0
    6.3968    0.9560  -18.8651 H   0  0  0  0  0  0  0  0  0  0  0  0
    6.1678    4.7885  -16.1864 H   0  0  0  0  0  0  0  0  0  0  0  0
    4.7406    3.7016  -16.2778 H   0  0  0  0  0  0  0  0  0  0  0  0
    6.2127    3.1575  -20.0656 H   0  0  0  0  0  0  0  0  0  0  0  0
    6.0466    5.1773  -18.6368 H   0  0  0  0  0  0  0  0  0  0  0  0
    3.5703    3.3732  -18.5170 H   0  0  0  0  0  0  0  0  0  0  0  0
    5.5425    8.6780  -23.4107 H   0  0  0  0  0  0  0  0  0  0  0  0
    6.6411    7.5265  -22.5778 H   0  0  0  0  0  0  0  0  0  0  0  0
    4.9518    7.7319  -22.0027 H   0  0  0  0  0  0  0  0  0  0  0  0
    7.1293   10.5474  -23.1206 H   0  0  0  0  0  0  0  0  0  0  0  0
    7.7974   10.9461  -21.5016 H   0  0  0  0  0  0  0  0  0  0  0  0
    8.2943    9.4318  -22.3302 H   0  0  0  0  0  0  0  0  0  0  0  0
    4.8613   10.8252  -22.2841 H   0  0  0  0  0  0  0  0  0  0  0  0
    4.2491    9.8844  -20.8818 H   0  0  0  0  0  0  0  0  0  0  0  0
    5.4471   11.1985  -20.6276 H   0  0  0  0  0  0  0  0  0  0  0  0
    4.4542    2.5589  -21.6156 H   0  0  0  0  0  0  0  0  0  0  0  0
    3.5644    1.6370  -20.3567 H   0  0  0  0  0  0  0  0  0  0  0  0
    4.0048   -3.1893  -20.6932 H   0  0  0  0  0  0  0  0  0  0  0  0
    5.6609   -3.8845  -20.6640 H   0  0  0  0  0  0  0  0  0  0  0  0
    5.3426    6.7820  -16.1826 H   0  0  0  0  0  0  0  0  0  0  0  0
    4.1465    7.8741  -16.9593 H   0  0  0  0  0  0  0  0  0  0  0  0
    4.5239   -2.0760  -18.4638 H   0  0  0  0  0  0  0  0  0  0  0  0
    8.4768   -2.5521  -22.1763 H   0  0  0  0  0  0  0  0  0  0  0  0
    7.8629   -3.1876  -20.8030 H   0  0  0  0  0  0  0  0  0  0  0  0
    3.8220    6.2367  -18.6302 H   0  0  0  0  0  0  0  0  0  0  0  0
    3.3389    5.3043  -19.8222 H   0  0  0  0  0  0  0  0  0  0  0  0
    6.3639   -2.9923  -17.3460 H   0  0  0  0  0  0  0  0  0  0  0  0
  1  2  2  0
  1  3  1  0
  2  7  1  0
  3  8  2  0
  4  7  2  0
  4  8  1  0
  5  9  2  0
  5 10  1  0
  6  9  1  0
  6 12  2  0
  7 23  1  0
  8 25  1  0
  9 21  1  0
 10 11  2  0
 10 22  1  0
 11 12  1  0
 11 27  1  0
 12 33  1  0
 13 15  1  0
 13 37  1  0
 14 16  1  0
 14 37  1  0
 15 17  1  0
 15 21  1  0
 16 17  1  0
 16 28  1  0
 17 31  1  0
 18 25  1  0
 19 25  1  0
 20 25  1  0
 22 24  1  0
 23 28  1  0
 24 26  1  0
 24 32  1  0
 26 34  1  0
 26 35  1  0
 26 36  1  0
 29 37  2  0
 30 37  2  0
  1 38  1  0
  2 39  1  0
  3 40  1  0
  4 41  1  0
  5 42  1  0
  6 43  1  0
 13 44  1  0
 13 45  1  0
 14 46  1  0
 14 47  1  0
 15 48  1  6
 16 49  1  6
 17 50  1  1
 18 51  1  0
 18 52  1  0
 18 53  1  0
 19 54  1  0
 19 55  1  0
 19 56  1  0
 20 57  1  0
 20 58  1  0
 20 59  1  0
 21 60  1  0
 21 61  1  0
 22 62  1  0
 22 63  1  0
 23 64  1  0
 23 65  1  0
 24 66  1  6
 27 67  1  0
 27 68  1  0
 28 69  1  0
 31 70  1  0
 32 71  1  0
M  END
>  <OMEGA_C>  (5) 
374FQWwKAEHqBJTBQhDrQGvv8ECcN43BLHcAQbW6CUEP1p3BXi61QCgMBEEQHJrB8KSaQARGFL9T
ZKXBg27RQNDVPT/SWK7Bh9C/QDsi9UBYOZDBFH/VQIIaDEHI+aDBW+2pQIHGKT9v8KjB4MiyQPnQ
378R/qbBEPjaQJbp1b9+OKzBQtTpQC1G2b4ABbDBjWa4QFxJ4T+PtZPBA8izQFaKgkA2lYbB3yCq
QJDBLECV+ZzBChelQOpOmUAb6pDBCtiMQIJsdUBmkJjBH0e6QCTxA0EMgbPBQsjuQDMVIkHtRLHB
TQakQFdSJkFMdKrBV/ORQJMx9T+h1qXBgwahQEQMQ8DJm6LBgd2cQJUN40DFH4nBj7ygQOJDQMCe
O5bBGAzJQHT/FUEQ4qvB9FyHQGxMhsAotJHBvlT0QHtgM8CHlK3BWACIQKuavUA/QY7BApv7QAIE
UUC9m4/BzE/bQBzW7z9Xh4DBtV55QEaak0AJRaHBYcbLQIA2QcBsXZLBAQgIQbg0rL7PD7XByKU7
QDicg8DP45TBNbGIQCRRhcDo2IbB9FOYQGPWq8B5NpXBgwnWQLF3LUD4ForBL1EWQajY/EBBtZHB
uEfzQF4W4kDGsIXB8AsNQeNpD0FKCKPBDQaUQGUvBUGKepzB/h54QGtII79PZaHBsvvcQIzq2D+T
NLHBEAWcQKkyqT9m3I/BrrLMQOq7dD+665bB3F7FQB87mUDAfYHBprKXQIfnbEDmOILBh87GQEYU
SkBdhqDBmH3BQAqspUA7GJXBYIBkQPfiV0DNIpTBDVyxQALZCkEISbvB4IPUQEXZ8EBtn7TBR3We
QKpr90B9BbDBfiPkQB/CKEHy9rjBmIT5QEIjL0FPA6zBbLUEQY/oFkFQpLLBKpCbQAY0LUHKRbLB
hviHQJgmHkHfDafBv06uQA4tM0FUBaXBaIiOQFDFI0DS7KzB3h5kQP2H0T942qLBpieAQNcdTMCi
i6XBHya1QJObeMDTT6XBsvaqQP0F2UDmdYHB86+EQD74+0CjrIfBZMOQQI3dBMDZtZPB2aAHQT5W
I8D9aLHB1Jz7QLsBTMCbbKbBP5x0QMySx0C8CpXB/q9VQJS8qUDtk57B9aTLQLOBP8CbxIrBZYcF
QTenAEEL9ZPBe3nqQA1R8kCOLo3BhV0AQVY9CkGx0J3Bvua0QNiWBEHVL5rBVtmZQLDrC7+zFqXB
wArRQPvaQD8iG67BgU2/QEtx9kATQpDBrWDVQKuZDEFKBaHBJHipQFpjMD/TtqjBtYexQH+y3L9b
tKbB6+3ZQP9g1L/g1avBHCrpQLbm1r6Dsq/BKyS4QDm/5j9Jm5PBwZ2zQNINhECjjobBgPepQOsv
L0CZ6JzBod6kQHesmkAn6JDBcLmMQIEVeEDJjpjB4tvuQECxIkFbQ7HBcZWjQIZXJkEbvqrBIZC7
QHIOBEGZnLPBF76RQMuV+T8UvKXB/hyfQMI/QcA0bKLBMTmcQEN15EAqL4nBKSCiQKToQsDkEpbB
uzzJQFpRFkFl/avBc0CGQKrahcBCfpHBnh3zQIYFM8AmB63B8JaHQHfbvkCzSY7Bu2X7QCipU0BY
lo/BjyXbQN0J9j8HdYDBWL55QETklEDYTqHBGtLNQC+vTcAR+JLBYrEHQcJwsb45w7TBIMw4QDEJ
fcDe3JPBuJWKQGJBh8BNsIbBfEeSQNglrMBws5XB9NjVQLZdMEDjCIrBvRIWQQIc/kAymJHBnIPy
QLmk40Ayn4XBSgINQdjaD0EC/qLB5c2TQKWsBUE4nZzB8MV2QJy4F79PBqHB/NjcQIe92T9dA7HB
mbebQAlUrz+LvY/Bz1vMQEqgfj/2yJbB9DzFQELRmkA0foHB6o2XQCkTcEDzLILBRK7GQOk/TEBX
eaDB+TzBQHYgp0CFFZXBy/NjQPrUWkCVKJTBu23kQEA5KUHuAbnBTdf4QH7fL0EQ/qvBu/kEQaC9
F0FKhbLBTmObQB4WLUG7m7LBmJiHQAP3HUFjb6fBRRetQGpTM0FBTKXBrtqyQIrMCkF+cbvB+UTW
QDOH8UB8mrTBZdefQDs690AVNbDBgpiOQP59JUAw36zBoXljQDFT1z8mw6LBj7l6QPZ2RsDM1aTB
UDqxQAmCd8CYuqXBqCeqQDem2kDce4HBt/ODQDNa/UBgz4fBCeGVQFSwBcCd/ZLB9R8HQQ6nI8AB
z7DBNAX6QHsaS8DW0aXBqsNzQLuqyECLFpXB2RRWQIIeq0ATqZ7BNsLPQIq5TsC2YovBRMYFQXae
/0Dt9ZPB6frqQFm08ECdK43BpJcAQW9sCUEnz53BYVm1QG/nA0H+IprBd86aQAIsEb/vXqXB1c7R
QFIyQD8FR67Bncm/QH8G9UB6N5DBB8/VQHPYC0Hr/aDB+S2qQBaVLD/r66jBnOGyQAdv3r939abB
QxjbQCXq1L8sLazBSR3qQD2Q1b5u86/BHnq4QDBq4j8JuJPB0cuzQJrAgkBElIbBEyKqQLlkLUBI
+ZzBnPGkQLx0mUC+6JDBI6+MQHmldUBAipjBvXfvQGTBIUG1RLHBZLmkQFEzJkGDfarBSaO6QBDE
A0H5i7PBjyWSQH+m9j913qXBA/SgQDZWQsBonKLBWbCcQDUs40A7IYnBx9agQNZTQMDhOpbB247J
QPXDFUGZ6KvBlj6HQLhehsDhx5HBzUH0QCodM8Cxk63BfNSHQDO2vUBCP47BMJ/7QDG1UUCqoI/B
hHXbQBPJ8D/YjIDB0nN4QKCmk0CaOaHBvuvLQO0FQsB/ZZLBAiYIQV1pqr7FBbXBFXSXQC3Xq8B7
jZXBGCo7QMbOgsBDzZTBPCmJQIFnhsDY7IbBwBrWQMMELkABGorBG1MWQUtS/EDvnZHBywrzQA7x
4UBvn4XBbToNQasDD0Fg/6LByzuUQF8PBUE3ipzBJGh4QKWjH7/LYaHBHIXdQOUY2j87GLHB0SCc
QAceqj8n3o/BM8vMQF9Odz9L8ZbBgWTFQFZ/mUAagYHBK8mXQE49bUBrMoLBc8bGQFsSS0DpfqDB
/kjBQBjapUDFG5XBQoJkQA7HV0DpFZTByfnkQKV0KEGv+LjB40X6QOTILkFOAazBAQEFQfeDFkE8
n7LBjWGcQHUbLUGdT7LBso6IQCQdHkEkGafB5yKvQBUGM0HJDaXBK9+xQE+2CkFpVLvBAr/UQN9X
8ED5p7TBXLCeQDc590BOFbDBbe6OQOd7JECD9qzB51dkQDIi0z8u76LB0QKAQPPcSsDjhaXBQ+C0
QN/8d8DLYKXBtKOqQK862UA/cYHB6I2EQBEt/ECguofBLA6RQI7tBMBDopPB2J4HQXw5I8AVZLHB
nnH7QBkeTMBtb6bByi10QDWnx0D3B5XB+pBUQCWoqUCLgp7BXuPLQMLKQMBMzIrBt3sFQSB8AEHO
5ZPBNnTqQLjz8UA2G43B+0YAQZriCUFiy53Bc8i0QPoNBEFYKprBrAqaQGGjIr/cZaXB96XQQCZ6
RD9kwq3BGEW/QFLC9UDCMpDBuS7VQPkGDEEIB6HBmROpQOikIz/GcKjB/pqyQKPO5L8siqfB6Wbb
QDmB0r++dKzBgdzpQNCnvb52s6/BU3e4QMdz5D9AbpPBEBG0QLqug0AKiYbB6GqpQKm+LEBYwpzB
ze2kQIYVmkA+4JDB/5uMQN6jdkC6eJjBHAy6QPxrA0H8g7PB1bnuQLGJIUFmdLHBP/ajQGURJkH4
sqrBwVWQQL8A8D8oOaXBmMefQMEmS8BELKXBREKcQBfP40BwG4nBPj6bQL0nZcA6MpnBEOPIQHqm
FUF+AazBwXe8QAT/PMAcgZHBSbD1QFnRL8DMNq7BWZ+HQLM1vkA0N47BSYv7QJXzU0DQyI/B/KPc
QK0K9z/wdIDBTWJ6QDMXlEBYSaHBBGRiQIu0UcDqdJXB7hUIQekjcL7gprTBhLTkQIKGQsD6kZXB
iCC7QNcyacBYKIjB+9+yQNpc07+Ka4/B3YPWQBo+MECGDorBMAgWQeYU/kCWhJHBl43yQASB40Dx
hYXB1eQMQV+GD0E2+6LBrK2TQK4EBUFemZzBPxV3QMWsOr+nZ6HBOJTbQNq13j8iV7DBKGicQNjS
rD+kaY/Bqa/MQK81ej92npbBqKDFQIGdmkB4gYHBLzSYQBXybkChG4LBicLFQEDoSECYnKDBcB/B
QPiWpkDkHZXBtkJjQHVRWkC8EJTBVz2xQIMjCkGFWLvB5zXUQJKo70Cni7TBOiSeQNup9kBE/q/B
ryzkQKAFKEHiMrnBGn/5QJK3LkHxR6zBf6cEQYtKFkGPvbLB2JibQGLCLEGnkLLBP9WHQOkHHkEe
QqfBhEquQMALM0FaWKXBreqKQG/1H0A7V6zBMrNiQC8uyT8z06HBl1t/QDeHTcBwxajBAX+0QEfV
esDODqnBnTyqQHX+2UCbaYHBiP6DQFyz/ED6uIfBxLmfQGp1lcAC0pjBZGkIQQvFHMAUubHB7Xz8
QJHES8CNOKfBIqNzQM8NyEAgAJXBjj5XQAyjqkDusp7BKGtdQBLBYcATJ47BpscFQat4AEE3CpTB
SSXrQGjf8UAwOY3BI38AQXD0CUEI6J3BB0O1QMs3BEGvLprBSXSZQOQ4Kr+fR6XBWR/PQDrlQj8o
xK3BNOi/QBLC9UCfQ5DBTo/VQBo6DEGbEKHByNOnQI3rHT++XKjBC8qyQC0657/uT6fBk0zbQEE+
0r9KWazBSNvoQKQjur7Ita/Bss23QLTA4j9tYZPBd0i0QMubg0CplobBU5CoQMiBK0AouZzBFwql
QDLnmUBG75DB1DuMQDAmdkCYbpjBqtnuQDb7IUEjb7HB+ECkQDR6JkERkarBfgK6QGTyA0HMjLPB
DPOOQDJ57D+oDqXBJ9ugQElNTcDf7qTBHfqcQE/A40AVJ4nBIVSXQFTqY8BICJnBpBPJQPoJFkHF
/KvB8XS1QH4JOsCVuZDBVTb2QHSjLsB7J67BLg+IQD1LvkCkRI7BUlH7QCFbUkDL54/BKW/cQOAV
9j/NeIDBoGN5QDWyk0BdQaHB/RZYQNSMT8Afc5bBS24HQcWTVr5bxbTBMwPfQCgLQMDm3JPB8o6w
QIBfZMDjT4fBnBirQEPqzL+kHI/BvUvWQF5tL0CtGYrBMFkWQf32/UCus5HBZF3zQCRT40AMqYXB
KRMNQfKOD0FPIKPBrBuUQAJIBUE0kJzBk8Z1QITwRb+TV6HBz3LZQIFj3j/aabDB88+bQOn6qz+k
SY/BqM7LQEmIdT+vkpbBribGQHqEmkDCnoHBv3GYQDFtb0A/GYLB89TEQOL0RkBKsKDBIjLBQKYW
pkCqP5XB7ZhiQHCCWkAp8ZPBbivkQAGaKEFjI7nBdsX5QMoQL0FZOKzB1a4EQXa7FkGBzLLBL8Gb
QKpNLUEFZbLBJCmIQNlqHkH3HqfBOMGuQJtbM0HELKXBDBGxQCvMCkFvV7vB5BrUQPew8EAHqbTB
KiWeQNyn90AeBrDBXtCIQC/3HUCHKKzBpKFgQATJxD+qgKHBOLaCQPrwU8CPZqnByzi4QD45fMBQ
66fB9BerQOu+2UA9fYHB1NOEQImy/ECCtIfBCHebQMnGlMAzQpjBVn4IQaKVGsBTv7HBVJz9QGQf
SsCUK6fBGq90QPRCyEB8DZXB49RWQHd4qkCQq57Bt0FNQACcXcBELo/Bzx0GQXkyAEH4o5TBHE3s
QN+E8UBRp43B1XkAQSnECUEjcJ7Bi321QI9IBEF4T5rBHSqhQB13Gr9oTKPB8oLLQAUvRD8mea/B
QtbAQH/B9UC3dZDBzUrVQH42DEFPW6HBjWKoQBkWID8cgqjBL3+9QFep2L8Y1KTBnHneQMpGyb/F
hqzBKhLmQLeIrL6dm7HBdfW4QPrv4z+hbJPB1p61QET9g0AypobBIsioQJeiK0DFu5zBEpGlQH71
mUDQ9ZDB70SMQGR8dUArRZjBlEPtQOIZIkHTzbHBBeSiQEcxJkHFtqrBEQe5QJ/BA0EDvLPBJiGP
QJEm7D+iEKXBNgfAQPYlN8Dr4pzBEFWeQBHv40CKMInBRTSZQMzhQ8BVXJXBugfIQPj1FUEsPKzB
8rlrQIJEeMCr5JrB7Ev5QKiYKcDLtq7BH+eIQC1+vkC5M47B5038QBpRU0DwJJDBIy7eQLBa+D81
moDBrmh2QBsFk0D/+KDBYianQF6DccBMHozB+T0EQThAP76PEbjBvoRWQM4sVcBJfqTB/rolQHDV
ecDFdpTBSq6DQMj6pMC2epzBxZPXQCteMECbOorBeMUWQT8i/UCefJLB6A/1QJfb4kB0JIbBkt0M
QRBND0GSyaPBTiiUQB92BUHSg5zB2M6FQKdAN7+NGJ7BAQzSQPFC3D/sK7PB91udQCjJqz8/PY/B
QRjNQDfmeT/BsJbBMrfHQP0am0Agy4HBYyWaQLcpcEDwBYLB56rEQCgJSEBJw6DBnGPBQE/7pUBo
b5XBtUxkQMwCWUDVkJPBsQriQNaqKEGyeLnBWC/4QII9L0Hln6zBJPgDQcT9FkHaQbPBW+GZQG71
LEHjhLLBlCSHQP/5HUG7L6fB6latQL8jM0EZW6XBr4OvQNmGCkFUgLvBdlnTQOOg8ECv67TB+oyd
QObz9kDyHLDBz3WIQFAKHkB1HazBv4hhQGaJwj+Mc6HBYADEQBBOcsB3jaHBkW7cQCQLLcAt2JfB
FfCsQO3s2UB6lYHBFGKGQNr7/EAhpofB/FOMQKvYBMBbIJPBI0UHQe/GGMC4ULTB8WAEQeWkOsCx
CqjB/Jd1QER0yEDr75TBpbJTQEx/qUCdQp7BeaSPQLfYecDPaYfB1AUGQUyFAEERv5TB91zsQJfE
8UA5vo3BzDcAQfEkCkGfgZ7B+yK1QABQBEEBT5rBABGhQDIxHr9/66PBdaPMQC8kTj/ncq/BjNDA
QAO69UDxfZDB067UQPVsDEEBYKHB/uyoQN+wIj/us6jBDAO+QJ6F2L8If6XBacDfQHbTxL/87KzB
5IHnQPm7kr4xtrHBS1q5QMBS4z/pjJPBugm2QEakg0AgsYbBmAGpQCCMK0B90JzBQNalQB/FmUDG
95DBQ4eMQL5OdUBRTpjBBdy3QOgJBEHJtbPBXRPsQN1pIkGm17HB/OqhQMFpJkG9mqrB5U+PQPfc
6z8mIqXBmXS+QM+sPMAce57BSJeeQMGu40DDK4nBTuCcQPVSQcDLW5XBxw3HQIc3FkFrN6zBLpRs
QAC+d8BM1pjBstD6QI/aJsBxNK/B1iOJQGM1vkAZKI7BhJ38QE2ZU0BLT5DBxw7fQM9K9z/+xYDB
xgl3QMsZk0CE/KDBgw6wQCuMaMCPPozBRBIFQeKo671rD7jB6mtNQOe+W8AmYqLBfowuQOYScsAW
RZHBgYCCQEyOpcDpzpnBbxrYQGYRMEA+XYrBo7UWQRIB/kBcopLBOmH1QCgD40AsQ4bBnoMMQS3Z
D0F53aPBub6TQOlhBUGSeJzB3+iEQBimQr+OCp/Be1/TQCoL4z+A4bLBotedQLrVqj+sWI/BonfN
QN0ueT8k25bBDRrIQLi0mkBB0IHBHqWaQKYTb0BCEYLBfNHEQG8RSEDC3KDBNpnBQFrspUDGcZXB
mcZkQDO8WEA4npPBPhauQJvXCkEWc7vB1SvSQN888UBR9rTBV4ScQHdy90CqC7DBipjgQBECKUHZ
ernBjx33QECJL0EQq6zBn14DQfhUF0FWXLPBl6WYQK81LUFGYrLBxk2GQAApHkGCCKfBoX6sQKtX
M0FVQKXBLSSIQFUlHkBgIazBwmxiQPZqwD+Md6HB+zS5QBAbdMCxvqPB21beQPBUQcA+zJrBVXet
QJ6p2UBTmYHB4ZeGQEKg/EAQkofBMu+RQHktAMAec5PBhlUIQX+kFMBblrTBccQEQdiiOcAqgKjB
pKt1QGMnyED03ZTB611UQL6NqUDkQJ7BTLqbQEKya8B8m4bB

>  <OMEGA_E>  (5) 
wO0PPSAuID3ANAw9YE25PmgsuT5oPao+PCeZPg==

>  <OMEGA_NBR>  (5) 
     36453

$$$$
50216969
     RDKit          3D

 67 69  0  0  1  0  0  0  0  0999 V2000
    8.3195    8.0354  -18.4684 C   0  0  0  0  0  0  0  0  0  0  0  0
    7.3056    7.5492  -17.6264 C   0  0  0  0  0  0  0  0  0  0  0  0
    7.9903    8.6579  -19.6872 C   0  0  0  0  0  0  0  0  0  0  0  0
    5.6229    8.2942  -19.2300 C   0  0  0  0  0  0  0  0  0  0  0  0
    4.8635   -0.5867  -20.6402 C   0  0  0  0  0  0  0  0  0  0  0  0
    6.5406    0.7313  -21.8252 C   0  0  0  0  0  0  0  0  0  0  0  0
    5.9544    7.6845  -18.0024 C   0  0  0  0  0  0  0  0  0  0  0  0
    6.6334    8.8118  -20.0791 C   0  0  0  0  0  0  0  0  0  0  0  0
    5.3236    0.6553  -21.1179 C   0  0  0  0  0  0  0  0  0  0  0  0
    5.6102   -1.7602  -20.8582 C   0  0  0  0  0  0  0  0  0  0  0  0
    6.8539   -1.6772  -21.5391 C   0  0  0  0  0  0  0  0  0  0  0  0
    7.3043   -0.4322  -22.0361 C   0  0  0  0  0  0  0  0  0  0  0  0
    5.8184    1.7952  -18.4973 C   0  0  0  0  0  0  0  0  0  0  0  0
    5.6367    4.0978  -16.8467 C   0  0  0  0  0  0  0  0  0  0  0  0
    5.3444    2.7219  -19.6532 C   0  0  2  0  0  0  0  0  0  0  0  0
    5.1634    4.8110  -18.1313 C   0  0  1  0  0  0  0  0  0  0  0  0
    4.4223    3.8521  -19.0984 C   0  0  1  0  0  0  0  0  0  0  0  0
    5.2926   -3.1607  -18.7854 C   0  0  0  0  0  0  0  0  0  0  0  0
    7.4277   10.2072  -22.1002 C   0  0  0  0  0  0  0  0  0  0  0  0
    5.0932   10.4725  -21.2442 C   0  0  0  0  0  0  0  0  0  0  0  0
    5.7782    8.3338  -22.3995 C   0  0  0  0  0  0  0  0  0  0  0  0
    4.5781    1.9156  -20.7395 C   0  0  0  0  0  0  0  0  0  0  0  0
    5.0712   -3.0756  -20.3049 C   0  0  0  0  0  0  0  0  0  0  0  0
    4.8627    7.0985  -17.1287 C   0  0  0  0  0  0  0  0  0  0  0  0
    6.2457    9.4492  -21.4345 C   0  0  0  0  0  0  0  0  0  0  0  0
    7.6479   -2.8058  -21.7178 N   0  0  0  0  0  0  0  0  0  0  0  0
    4.2333    5.9244  -17.7859 N   0  0  0  0  0  0  0  0  0  0  0  0
    7.8881    3.3470  -18.0005 O   0  0  0  0  0  0  0  0  0  0  0  0
    6.9302    1.9208  -16.1130 O   0  0  0  0  0  0  0  0  0  0  0  0
    3.9232    4.6339  -20.1863 O   0  0  0  0  0  0  0  0  0  0  0  0
    8.4848   -0.3438  -22.6944 F   0  0  0  0  0  0  0  0  0  0  0  0
    6.7349    2.7599  -17.3018 S   0  0  0  0  0  0  0  0  0  0  0  0
    9.3550    7.9312  -18.1796 H   0  0  0  0  0  0  0  0  0  0  0  0
    7.5615    7.0722  -16.6918 H   0  0  0  0  0  0  0  0  0  0  0  0
    8.7772    9.0222  -20.3309 H   0  0  0  0  0  0  0  0  0  0  0  0
    4.5871    8.3676  -19.5269 H   0  0  0  0  0  0  0  0  0  0  0  0
    3.9290   -0.6397  -20.1014 H   0  0  0  0  0  0  0  0  0  0  0  0
    6.8868    1.6813  -22.2049 H   0  0  0  0  0  0  0  0  0  0  0  0
    4.9438    1.3403  -18.0092 H   0  0  0  0  0  0  0  0  0  0  0  0
    6.4649    1.0032  -18.9032 H   0  0  0  0  0  0  0  0  0  0  0  0
    6.1710    4.8119  -16.2027 H   0  0  0  0  0  0  0  0  0  0  0  0
    4.7677    3.6952  -16.3056 H   0  0  0  0  0  0  0  0  0  0  0  0
    6.2275    3.1857  -20.1168 H   0  0  0  0  0  0  0  0  0  0  0  0
    6.0429    5.2199  -18.6503 H   0  0  0  0  0  0  0  0  0  0  0  0
    3.5885    3.3838  -18.5548 H   0  0  0  0  0  0  0  0  0  0  0  0
    4.8968   -4.1157  -18.4096 H   0  0  0  0  0  0  0  0  0  0  0  0
    6.3691   -3.0990  -18.5678 H   0  0  0  0  0  0  0  0  0  0  0  0
    4.7704   -2.3278  -18.2917 H   0  0  0  0  0  0  0  0  0  0  0  0
    7.0958   10.6379  -23.0564 H   0  0  0  0  0  0  0  0  0  0  0  0
    7.7680   11.0133  -21.4336 H   0  0  0  0  0  0  0  0  0  0  0  0
    8.2564    9.5070  -22.2816 H   0  0  0  0  0  0  0  0  0  0  0  0
    4.8309   10.9151  -22.2165 H   0  0  0  0  0  0  0  0  0  0  0  0
    4.2142    9.9608  -20.8254 H   0  0  0  0  0  0  0  0  0  0  0  0
    5.4180   11.2664  -20.5556 H   0  0  0  0  0  0  0  0  0  0  0  0
    5.5003    8.7778  -23.3668 H   0  0  0  0  0  0  0  0  0  0  0  0
    6.5948    7.6121  -22.5486 H   0  0  0  0  0  0  0  0  0  0  0  0
    4.9071    7.8181  -21.9690 H   0  0  0  0  0  0  0  0  0  0  0  0
    4.4592    2.5438  -21.6345 H   0  0  0  0  0  0  0  0  0  0  0  0
    3.5867    1.6418  -20.3494 H   0  0  0  0  0  0  0  0  0  0  0  0
    3.9937   -3.1413  -20.5165 H   0  0  0  0  0  0  0  0  0  0  0  0
    5.5924   -3.9125  -20.7926 H   0  0  0  0  0  0  0  0  0  0  0  0
    5.2989    6.7837  -16.1692 H   0  0  0  0  0  0  0  0  0  0  0  0
    4.0948    7.8653  -16.9484 H   0  0  0  0  0  0  0  0  0  0  0  0
    8.4784   -2.5544  -22.2150 H   0  0  0  0  0  0  0  0  0  0  0  0
    7.8952   -3.1839  -20.8257 H   0  0  0  0  0  0  0  0  0  0  0  0
    3.8008    6.2388  -18.6309 H   0  0  0  0  0  0  0  0  0  0  0  0
    3.3615    5.3226  -19.8504 H   0  0  0  0  0  0  0  0  0  0  0  0
  1  2  2  0
  1  3  1  0
  2  7  1  0
  3  8  2  0
  4  7  2  0
  4  8  1  0
  5  9  2  0
  5 10  1  0
  6  9  1  0
  6 12  2  0
  7 24  1  0
  8 25  1  0
  9 22  1  0
 10 11  2  0
 10 23  1  0
 11 12  1  0
 11 26  1  0
 12 31  1  0
 13 15  1  0
 13 32  1  0
 14 16  1  0
 14 32  1  0
 15 17  1  0
 15 22  1  0
 16 17  1  0
 16 27  1  0
 17 30  1  0
 18 23  1  0
 19 25  1  0
 20 25  1  0
 21 25  1  0
 24 27  1  0
 28 32  2  0
 29 32  2  0
  1 33  1  0
  2 34  1  0
  3 35  1  0
  4 36  1  0
  5 37  1  0
  6 38  1  0
 13 39  1  0
 13 40  1  0
 14 41  1  0
 14 42  1  0
 15 43  1  6
 16 44  1  6
 17 45  1  1
 18 46  1  0
 18 47  1  0
 18 48  1  0
 19 49  1  0
 19 50  1  0
 19 51  1  0
 20 52  1  0
 20 53  1  0
 20 54  1  0
 21 55  1  0
 21 56  1  0
 21 57  1  0
 22 58  1  0
 22 59  1  0
 23 60  1  0
 23 61  1  0
 24 62  1  0
 24 63  1  0
 26 64  1  0
 26 65  1  0
 27 66  1  0
 30 67  1  0
M  END
>  <OMEGA_C>  (6) 
wBwFQfmQAEE0v5PBdMfpQDiT8UDHAo3BwrD/QLKGCkFWf53BA++zQPu0BEEg15nBDqKbQBUyFr8J
H6XB4kzRQFw2Oz/9ma7BqIq+QIPn9UDbBJDBbUTUQBf9DEEHoqDBU1uqQFrDJz9r8ajBeIazQFRO
4b+Q3abBMlPbQFqv1r8eUKzBeLzpQOhG3b7mSbDBJzC6QPDH5T95+pPBOmC0QIkhg0AFxobBPgWr
QOYyLkDbOZ3BtzqlQHfzmUDqDJHB4YONQGKIdkCFyZjBwFypQNhISsCGSJbBz6/tQJZQI0EozbDB
nfuiQD+PJ0Ev9KnBLOe4QEtXBUEfMrPBm3+SQCYy9T9n6qXBCUeiQALXRMBYcKLB1pqbQBsn40CA
B4nBFN3HQOkvF0HveavB07v0QDSSM8Aovq3B3naHQOKUvUBsSY7Bl2v8QAE2VkAKAZDBCsTdQJzd
9T+F54DB6BR7QBpJlECUfaHBwcEHQXEEsL4LjrXBAYTXQKCiMEADaorB/q0VQYvM/UDcb5HBkvfx
QNxP4kDGiIXBkW8MQfxaEEHFpaLBtcmSQNfhBUEPN5zBEHV7QL3AI7+ez6DBaWDcQFAz1z+go7HB
kjOeQMCPqz/hEpDBe+DOQDBogD/JOZfBiXjFQHz7mUA4n4HBXZGYQK1+bEDxcYLBrkfHQEfjS0BO
76DBU1/BQGsJp0C6M5XBT6plQMSQWEBDcJTBXrKcQBG0g8DQRpPBe8/LQLxWRsDyipTBWKeYQHP7
FMBzVZLBeRDjQLg0KkFyc7jB3JP4QGg2MEH0d6vBZBoEQY0cGEG6QLLBH5eaQG+kLkFWu7HBddqG
QEdfH0FmmqbB71+tQE9DNEHvcaTBOQKwQNFxDEEc77rB7wjTQCWW80B6Y7TBPwedQA8u+kCWwK/B
0rGOQDPOIkCLE63BOYxlQAgl0j+My6LBOJl/QMILScDMIaTBv/SyQApnesBLV6bBUJCpQAsU2UB9
WoHBsAiDQFew+0A5lofBaKcHQY16I8BIuLHBoaX8QGPFS8Abm6bBnz9zQOyjx0AdDJXBXyNXQLRS
qkCxzZ7Bg30FQX75AEEx6JPBmcTqQH8y8kCyH43BmxIAQfG1CkEQsp3B5pG0QACABEHt+JnBA6ia
QFb0Ir9V5KTB7hLPQHY2PD/lUa7BEHe/QN/f9UBVIJDBaqTUQDngDEG9z6DBCWGoQOZaHz8BnKjB
746zQAsB5b/xuqbBNx3bQIVB1b8kQazBVF3oQJdYz759JbDBsqW4QM8u4z86rJPBC160QGAug0BQ
uYbB4W2pQKMdLEAq/ZzBg0WlQFrSmUA/CJHBqt6MQFBddkBiqZjBawCmQPxAS8CiLJbB2425QPvz
BEESYLPBmDPtQKdoI0HM/bDBbGqiQPP8JkHnHKrByP2PQK/u7j/PaqXBs1qjQA4qSMDGdaLBRLac
QAk/40DtDonBoNvHQDTwFkE9qKvB6Hz1QB81McAL263BpAmIQG/nvUBVSo7BbLT7QM2OU0ApDJDB
YRPdQAlP9T+VuYDBoBd7QNcYlEAgdaHB++0GQZ5Yjr62e7XBb8rWQJaGL0AhTorBfxUWQaYb/0Br
mpHB9DDzQIpK40BdnoXB0pIMQRyXEEHK4qLBNGGTQJF0BUE4VZzBX5R5QJ4jOL9nmKDB4U/ZQKND
2T9tS7HBEaecQP5cqz8Ro4/B/9rMQOz0dz9A4pbB8ujFQLP9mUDSp4HB0n2YQFe4bUAtUoLBObfF
QD8HSEAo5aDBNHfBQGFipkAtQ5XB7qFjQGw5WkAKRJTBICqaQES+hMD2UJPBT3XHQCrDQsBQp5PB
kEeSQDmzF8CnxJLB+2WwQHT4C0E2HbvBOhvUQGJL80A3kbTBDP2dQIrl+EA87q/Bq07iQDcvKkGS
pLjBB533QLJqMEFtqqvBcxEEQXp0GEHZcLLBBbWZQGL/LUG/4rHBcpuGQBiOHkE/v6bB+WisQJLH
M0Hwm6TBx6iKQCRGH0BFjazBIO5hQD1hyT+l/KHBItqBQNjzUMAv7aTB4Qe3QMkDfMDYz6XBoPOq
QLrx2EAKb4HB+mOEQOTv+0AVhYfBc9YHQSEyH8BD3bHB1gD+QICpScCcxqbBq6x0QKIWyECRDpXB
ekdYQBK9qkBg2p7B

>  <OMEGA_E>  (6) 
mOitPgB9rT4=

>  <OMEGA_NBR>  (6) 
     38925

$$$$
50216959
     RDKit          3D

 68 71  0  0  1  0  0  0  0  0999 V2000
    8.3990    7.9615  -18.5274 C   0  0  0  0  0  0  0  0  0  0  0  0
    4.6415   -4.1484  -18.0980 C   0  0  0  0  0  0  0  0  0  0  0  0
    7.3755    7.5324  -17.6661 C   0  0  0  0  0  0  0  0  0  0  0  0
    8.0818    8.5375  -19.7724 C   0  0  0  0  0  0  0  0  0  0  0  0
    4.3511   -3.3865  -19.3012 C   0  0  0  0  0  0  0  0  0  0  0  0
    4.8433   -0.6017  -20.4541 C   0  0  0  0  0  0  0  0  0  0  0  0
    5.7087    8.2462  -19.3007 C   0  0  0  0  0  0  0  0  0  0  0  0
    6.3218    0.7471  -21.8394 C   0  0  0  0  0  0  0  0  0  0  0  0
    5.9730   -3.9650  -17.8245 C   0  0  0  0  0  0  0  0  0  0  0  0
    5.6943   -1.7043  -20.6187 C   0  0  0  0  0  0  0  0  0  0  0  0
    6.0280    7.6758  -18.0514 C   0  0  0  0  0  0  0  0  0  0  0  0
    6.7290    8.7174  -20.1658 C   0  0  0  0  0  0  0  0  0  0  0  0
    5.1714    0.6324  -21.0309 C   0  0  0  0  0  0  0  0  0  0  0  0
    6.8334   -1.6096  -21.4501 C   0  0  0  0  0  0  0  0  0  0  0  0
    7.1379   -0.3792  -22.0702 C   0  0  0  0  0  0  0  0  0  0  0  0
    5.5310   -2.8011  -19.6779 C   0  0  0  0  0  0  0  0  0  0  0  0
    5.7095    1.7805  -18.3766 C   0  0  0  0  0  0  0  0  0  0  0  0
    5.6318    4.1540  -16.8096 C   0  0  0  0  0  0  0  0  0  0  0  0
    5.2209    2.6792  -19.5508 C   0  0  2  0  0  0  0  0  0  0  0  0
    5.1384    4.8257  -18.1097 C   0  0  1  0  0  0  0  0  0  0  0  0
    4.3410    3.8461  -19.0099 C   0  0  1  0  0  0  0  0  0  0  0  0
    6.2442    8.1493  -22.5693 C   0  0  0  0  0  0  0  0  0  0  0  0
    7.4599   10.2960  -22.0578 C   0  0  0  0  0  0  0  0  0  0  0  0
    5.0308   10.0895  -21.5123 C   0  0  0  0  0  0  0  0  0  0  0  0
    4.4092    1.8609  -20.5976 C   0  0  0  0  0  0  0  0  0  0  0  0
    4.9223    7.1462  -17.1598 C   0  0  0  0  0  0  0  0  0  0  0  0
    6.3731    9.3063  -21.5529 C   0  0  0  0  0  0  0  0  0  0  0  0
    7.6708   -2.7077  -21.6347 N   0  0  0  0  0  0  0  0  0  0  0  0
    4.2501    5.9789  -17.7870 N   0  0  0  0  0  0  0  0  0  0  0  0
    7.8346    3.2917  -17.9767 O   0  0  0  0  0  0  0  0  0  0  0  0
    6.8767    1.9721  -16.0148 O   0  0  0  0  0  0  0  0  0  0  0  0
    6.5064   -3.1846  -18.8058 O   0  0  0  0  0  0  0  0  0  0  0  0
    3.8183    4.5933  -20.1111 O   0  0  0  0  0  0  0  0  0  0  0  0
    8.2478   -0.2569  -22.8347 F   0  0  0  0  0  0  0  0  0  0  0  0
    6.6793    2.7662  -17.2340 S   0  0  0  0  0  0  0  0  0  0  0  0
    9.4322    7.8492  -18.2337 H   0  0  0  0  0  0  0  0  0  0  0  0
    3.9433   -4.7441  -17.5288 H   0  0  0  0  0  0  0  0  0  0  0  0
    7.6212    7.0935  -16.7103 H   0  0  0  0  0  0  0  0  0  0  0  0
    8.8762    8.8461  -20.4358 H   0  0  0  0  0  0  0  0  0  0  0  0
    3.3964   -3.2993  -19.7986 H   0  0  0  0  0  0  0  0  0  0  0  0
    3.9333   -0.7040  -19.8815 H   0  0  0  0  0  0  0  0  0  0  0  0
    4.6747    8.3252  -19.6025 H   0  0  0  0  0  0  0  0  0  0  0  0
    6.5776    1.6985  -22.2819 H   0  0  0  0  0  0  0  0  0  0  0  0
    6.5067   -4.3697  -16.9772 H   0  0  0  0  0  0  0  0  0  0  0  0
    4.8400    1.3591  -17.8509 H   0  0  0  0  0  0  0  0  0  0  0  0
    6.3295    0.9633  -18.7736 H   0  0  0  0  0  0  0  0  0  0  0  0
    6.2044    4.8798  -16.2136 H   0  0  0  0  0  0  0  0  0  0  0  0
    4.7688    3.8002  -16.2265 H   0  0  0  0  0  0  0  0  0  0  0  0
    6.1013    3.1092  -20.0507 H   0  0  0  0  0  0  0  0  0  0  0  0
    6.0121    5.1857  -18.6727 H   0  0  0  0  0  0  0  0  0  0  0  0
    3.5190    3.4171  -18.4179 H   0  0  0  0  0  0  0  0  0  0  0  0
    5.9913    8.5566  -23.5593 H   0  0  0  0  0  0  0  0  0  0  0  0
    7.1990    7.6062  -22.6294 H   0  0  0  0  0  0  0  0  0  0  0  0
    5.4508    7.4610  -22.2425 H   0  0  0  0  0  0  0  0  0  0  0  0
    7.1688   10.6897  -23.0428 H   0  0  0  0  0  0  0  0  0  0  0  0
    7.5577   11.1279  -21.3448 H   0  0  0  0  0  0  0  0  0  0  0  0
    8.4227    9.7709  -22.1428 H   0  0  0  0  0  0  0  0  0  0  0  0
    4.8104   10.4925  -22.5118 H   0  0  0  0  0  0  0  0  0  0  0  0
    4.2207    9.4126  -21.2031 H   0  0  0  0  0  0  0  0  0  0  0  0
    5.1113   10.9176  -20.7928 H   0  0  0  0  0  0  0  0  0  0  0  0
    4.2154    2.4930  -21.4768 H   0  0  0  0  0  0  0  0  0  0  0  0
    3.4529    1.5521  -20.1501 H   0  0  0  0  0  0  0  0  0  0  0  0
    5.3532    6.8386  -16.1956 H   0  0  0  0  0  0  0  0  0  0  0  0
    4.1815    7.9420  -16.9932 H   0  0  0  0  0  0  0  0  0  0  0  0
    8.4189   -2.4575  -22.2494 H   0  0  0  0  0  0  0  0  0  0  0  0
    8.0457   -2.9930  -20.7526 H   0  0  0  0  0  0  0  0  0  0  0  0
    3.8250    6.2882  -18.6376 H   0  0  0  0  0  0  0  0  0  0  0  0
    3.2813    5.3057  -19.7846 H   0  0  0  0  0  0  0  0  0  0  0  0
  1  3  2  0
  1  4  1  0
  2  5  1  0
  2  9  2  0
  3 11  1  0
  4 12  2  0
  5 16  2  0
  6 10  2  0
  6 13  1  0
  7 11  2  0
  7 12  1  0
  8 13  2  0
  8 15  1  0
  9 32  1  0
 10 14  1  0
 10 16  1  0
 11 26  1  0
 12 27  1  0
 13 25  1  0
 14 15  2  0
 14 28  1  0
 15 34  1  0
 16 32  1  0
 17 19  1  0
 17 35  1  0
 18 20  1  0
 18 35  1  0
 19 21  1  0
 19 25  1  0
 20 21  1  0
 20 29  1  0
 21 33  1  0
 22 27  1  0
 23 27  1  0
 24 27  1  0
 26 29  1  0
 30 35  2  0
 31 35  2  0
  1 36  1  0
  2 37  1  0
  3 38  1  0
  4 39  1  0
  5 40  1  0
  6 41  1  0
  7 42  1  0
  8 43  1  0
  9 44  1  0
 17 45  1  0
 17 46  1  0
 18 47  1  0
 18 48  1  0
 19 49  1  6
 20 50  1  6
 21 51  1  1
 22 52  1  0
 22 53  1  0
 22 54  1  0
 23 55  1  0
 23 56  1  0
 23 57  1  0
 24 58  1  0
 24 59  1  0
 24 60  1  0
 25 61  1  0
 25 62  1  0
 26 63  1  0
 26 64  1  0
 28 65  1  0
 28 66  1  0
 29 67  1  0
 33 68  1  0
M  END
>  <OMEGA_C>  (7) 
bGIGQcXE/kAXOJTBH4eUQE2/hMCuyJDB+QPsQKkJ8UAbVI3BDk8BQbiZCEHfLZ7BATyLQG28WMDU
aJrBffyaQPoJGr/poaPBqK22QEDwA0HgZ5rBGUzKQLw+Pz8Tt67BhSK/QFPDfcCTmI7BcDe2QNMl
2r8W86TB++TAQNGf9UBFaZDBFlTXQIB6C0GbU6HBYnylQAPkIT9IP6jB5KraQNEFzr/TmavBRWnk
QMsgwr7ej7DBxf2wQONFM8BnbJ3BM7S2QMHo4z9OA5PBmze0QHTthEAieobBnRGnQIJ3K0D7Z5zB
k22kQMNrmkCy4JDBSumKQOEmdkAuFJjB09DHQGNjAkHijbTBRrfuQDy8JEFSdrDBifygQJBuIUEb
GazBzxeNQAsz7j/nx6TB4YOdQFat5EBeR4nBPvDLQG3mFEFebKzBinf1QJRLLcD0E63BxgCIQDJT
v0C0S47BarX6QHerUkAu0I/BuQ3cQBlt/D9IHoDBjjTQQLnPS8BGcpbBjV90QLD8kkB+46DBDvcD
QUGGg75yrbbBvbzVQHEJMUAz34nBe+oWQess+0Cc3pHBj158QN3Pl8ALO4zBeuDzQCD+4kDJroXB
BAUOQZmJDUF7fKPBlF5ZQDAoU8B5Y57BRbt7QI48NL9bDZ/BeJeVQNkzBUH70ZzBUHvSQOFm2T9Z
QbLBtzbQQEbUi8Bo0YfBcOGaQM31rT+pzo7BQovKQLKXdj9vMJbBEorGQK0nnEBitYHBwZmYQME2
c0Dgz4HBDj7DQJX9RkDHZ6DBS2PAQCbxpUCuYZXB4DdhQECyWkDrV5PBiri/QPnnCEFcebzB0F3m
QA5m80AQCbXBWm2uQErA7kCl8LHBAmflQAsJK0GgV7jBWtjxQMcLMkEhwqrBZMMGQXdVHEGLJLHB
9O6ZQB7hJ0EfGLTBBxCHQCmaFkH6n6nBIZCjQKeuLkGPV6bBKOSGQE2NH0Bv0KvBBf1cQLupxj9v
M6HBnE2rQOzV2kCakIHBqM6FQNAk/kAq8ofBrrMGQVVHHcDQ/rHBG7sAQdyMP8BeBabBd8x0QCA5
yUDUGZXBoABSQGLIqUDERp7BPpMGQbEa/0BwKpXB7+iPQP62hcBpKJLBJ3LtQFYU8UA0AY7Bx8YA
QeuqCEFxDJ/BOU6JQBxNWcA10JvB2aebQJn1Db86AaTBTja2QGChA0EFpJrBojHMQI9+Rj9q567B
l5C5QDCzfsBZFo/B/XO2QAaY1b8VPKXBeuHBQMxh9UCytJDBAsrVQMsEC0Eh5KHBF/KmQOEHLT9d
k6jBCXvbQDYTy79mr6vBIgHmQELjuL5JoLDBp4qvQFMHMsCL853BwVG2QCag4j94I5PBL3yzQKSH
g0BsPIbBxwmoQPDGLEDvepzBUBOlQP0QmkDrnZDB79aLQO5sd0CmIpjBFZjtQIgLH0Gm8rLBw+mk
QH2XJUGLQavBhge2QF4IAkGo3bPBhdOOQOz89D+nMKXBSJSfQImh5EDuNonB8QfIQNZPFEHl06zB
kAz2QDZZLMDG/azBdi6JQKtSv0A6AY7Bc4D6QIvQT0BmV4/B4BPaQD7k8j9DCYDBHqrMQKncSsCh
cZbBiL54QHOhlEAA6qDBqfsEQdIlgr7ZmLbButvUQMEVLkCrrYnBRUQXQZTi+0B/FJPBtApxQL6I
mcBUK47B63X2QF4F40DBcIbBfhMNQd7rDUHyhKTBKzJYQG0SVMCuYqDBs318QHYGJb9ahp/BocqU
QBvdBEG0wJzB6fHUQM583D9/brLBf6LIQB6YjMBdDYjBB+eZQMcOrT8mK4/BmBbKQCmscz/hUZbB
eo7FQEsdmkCXOIHBX0OXQHs/cEAb0YHBfM/EQHJfSED2MaDBKa7BQIJtpUAH45TB6MlhQIbcW0BX
pJPBN+3hQJtUJUHxobrBOJn6QDVALEGsH67BRm8DQZAnE0F1a7TBuWybQGoQLEGJFrPBW+mIQN5d
HkFzVafBv4KxQJ2XMkGzOqbBgSmsQCqECEGMqrvB+eXOQIme60BZELXBqTuaQHiM9UBR3q/BsRmK
QA0CJEDFMqzB5gdfQP4ozz8R8KHBPIiuQLnL2kARo4HBlDCIQIwx/kCsqYfBbj4HQR/pHMAfyLHB
r6oAQXysPsBC3aXBbTZ2QHYLyUAKxJTBNVxWQDdlq0CpSZ7BHGkFQYy2AEEsAZTB5fudQFHmgcDO
QJHBd9LqQBbH8UDvJY3B563/QGZwCkFtxZ3BCeu7QJaqTcBJDJfBqribQFSoBL+Dh6XBHDS0QMtU
BEEz4ZnBFDfRQA57Qz/2Ra/BwFBzQMh7hMCSXpfBr5+0QIt21r/CnqbBUGu/QPia9UCLC5DBlBXU
QH+dDEF1zaDB7DqqQHzrND+rl6nBYcDbQFn+0L8JTazBvanpQAYl0b5vw7DB/mqnQLKRNMBUN6DB
Lou5QB2d5D9LSpTBxG+0QCZHgkCbz4bBVeKqQCFEL0BFb53BDnalQEa1mUDxBJHBXW+NQAEad0Cr
1ZjB7lzsQLjJIkHXH7HBFNqhQEa4JkEEHarBnzS4QOZ2BEEiRLPBAsSSQE8O/D8bbqbBpvCcQMPd
4kBs6YjBWgjHQFyIFkHjqKvBqev0QBqOMcCLVq3BIiiIQLiWvUBjJY7BsU/8QCeaU0BvEZDB8e/c
QEkh7z/VJIHBpaZ/QBOIWcAuaaDBpJd6QLUblUAwa6HBT7sHQZt5rb4MB7bBBhnXQJJdLkCgkorB
nwoWQVSF/kAoxpHBBVejQIEMkcCQmonBkHvzQJPU4kA+qoXBuEIMQVBOEEFIA6PBQPXbQO2fPMC5
m5TBd0R6QBMREr+Nh6HB2u6SQDRUBUH2KZzBKFjcQPwh2j8oe7LB/iw6QEM5lsDMYJXBFlSdQNa1
qj+OeJDBdv7NQLY/fj/tnZfBudLFQPu4mEDgm4HB2IOYQJIPa0DJgILB02nHQKp9TUD08KDBULvB
QKympkAIJZXBG7RlQMuqWECqf5TBDU3hQFV5KUHPx7jBVyH3QAPZL0EG4KvBu4wDQR24F0G+lbLB
kvmYQE+dLUFh5rHBTA2GQDxvHkEWp6bBqC6sQGeUM0FTsKTB+9quQBhhC0F4A7vB8o/SQJ0Z8kBy
eLTBSKicQB05+ECouK/BZeePQCbFJ0Dqeq3B/khlQKvC2T9CiqPBqHOrQBp22EACVIHBdaWEQK+B
+0AWTIfBp5QHQeuaI8BXkrHBDG39QEFwRsC/FKbBEEB0QF7ix0AE3JTBA79WQJH4qkDPn57B82MF
QTn2AEHH4JPBbFCdQH4XgcDTJZHBYonqQPsK8kBdIY3BIv//QP3eCkEHn53B2o+7QJTXTMCC9JbB
p/KbQA4UBb/ofKXB2Vy0QNi2BEF47JnB1k7RQGbMQj+7Rq/BQ25yQDXgg8BrV5fBdsS0QPa61r+K
nKbB6Tu/QHb69UCFG5DBPIXUQBYdDUFGvqDB7GaqQNI4ND+FkKnBG9TbQANv0b8uUqzBLLfpQHKx
0r7KybDB9nOnQKCRNMDsNaDBy9G5QLWS5D/kPpTBqNm0QG+/gkBA2obBlQCrQPX+LkBAZp3B7Y2l
QH3KmUDUFpHBLWiNQGthdkByxZjBbHu6QHLnBEESWrPBblntQMaqI0G75LDBXR+iQNXjJkGKQqrB
8uuSQHlx+z8rZabBRJCcQOEU40AVDInBNwDIQGwLF0HJo6vBIfX0QI/QMcBuX63B/xaIQD+avUCc
RI7BaKX8QD+jU0DkEJDB1x3dQOX68D+gE4HBCJV/QFI3WcCRb6DBm6h4QJ47lECIVaHBwroHQc+3
rr5bE7bB9l/XQBrSLkB0jYrBAvsVQQjq/kDDlJHBbFOiQFndj8AicInB2+/yQHrS4kC/qYXBKoQM
QQXVEEEjx6LBxojbQLzAO8A6d5TBJuJ6QIk7Er/UcqHBOCyTQKzGBUHmRZzBNWjcQOjK2T+OfbLB
bQw5QJlylcCsXZXB862dQK5zqj+aZ5DB8FPOQDdxfj/9kJfBHmzGQCVlmUDFvoHBiAyZQMxwbEDi
dILBuHDHQHaMTUBs6KDBIajBQCmvpkCYS5XBhJtmQEOHV0AeTZTBKoGxQLrKC0H6IbvBiFvVQJF/
80AzcbTBufieQOCH+ECj9q/BT6niQMRXKkHBlbjBuEb3QOHBMEFyj6vBHUcEQcHVGEF3QLLBRa6Z
QN3HLUHaE7LBfVOGQBFUHkFF+KbBGYarQDzJM0F7wKTB+QaQQK98J0A2ca3Bv59lQMP22D8fgaPB
8dyqQKre2EAMbIHBXxaEQMCe+0CCgofBnpMHQSTrI8BjoLHBhYr9QICvRsD2HqbBUzZ0QJe8x0DC
AJXB26FUQOXzqUCkgZ7B

>  <OMEGA_E>  (7) 
KOKVPlA+kz6Qcqo+UImqPg==

>  <OMEGA_NBR>  (7) 
     43568

$$$$
50216917
     RDKit          3D

 68 71  0  0  1  0  0  0  0  0999 V2000
    8.3820    8.0192  -18.5632 C   0  0  0  0  0  0  0  0  0  0  0  0
    7.3726    7.5698  -17.6957 C   0  0  0  0  0  0  0  0  0  0  0  0
    8.0450    8.6069  -19.7975 C   0  0  0  0  0  0  0  0  0  0  0  0
    4.3440   -3.4400  -19.2784 C   0  0  0  0  0  0  0  0  0  0  0  0
    4.8854   -0.5889  -20.4472 C   0  0  0  0  0  0  0  0  0  0  0  0
    5.6804    8.2843  -19.3040 C   0  0  0  0  0  0  0  0  0  0  0  0
    6.3284    0.7680  -21.8623 C   0  0  0  0  0  0  0  0  0  0  0  0
    4.6137   -4.1532  -18.1427 C   0  0  0  0  0  0  0  0  0  0  0  0
    5.7448   -1.6835  -20.6201 C   0  0  0  0  0  0  0  0  0  0  0  0
    6.0196    7.7044  -18.0642 C   0  0  0  0  0  0  0  0  0  0  0  0
    6.6865    8.7750  -20.1753 C   0  0  0  0  0  0  0  0  0  0  0  0
    5.1915    0.6459  -21.0363 C   0  0  0  0  0  0  0  0  0  0  0  0
    6.8640   -1.5842  -21.4785 C   0  0  0  0  0  0  0  0  0  0  0  0
    7.1492   -0.3522  -22.1044 C   0  0  0  0  0  0  0  0  0  0  0  0
    5.6060   -2.7765  -19.6693 C   0  0  0  0  0  0  0  0  0  0  0  0
    5.7328    1.7956  -18.3821 C   0  0  0  0  0  0  0  0  0  0  0  0
    5.6587    4.1717  -16.8177 C   0  0  0  0  0  0  0  0  0  0  0  0
    5.2403    2.6925  -19.5555 C   0  0  2  0  0  0  0  0  0  0  0  0
    5.1571    4.8415  -18.1154 C   0  0  1  0  0  0  0  0  0  0  0  0
    4.3608    3.8597  -19.0140 C   0  0  1  0  0  0  0  0  0  0  0  0
    6.2614    8.2216  -22.5923 C   0  0  0  0  0  0  0  0  0  0  0  0
    7.3563   10.4215  -22.0270 C   0  0  0  0  0  0  0  0  0  0  0  0
    4.9331   10.0788  -21.5266 C   0  0  0  0  0  0  0  0  0  0  0  0
    4.4256    1.8705  -20.5976 C   0  0  0  0  0  0  0  0  0  0  0  0
    4.9291    7.1602  -17.1631 C   0  0  0  0  0  0  0  0  0  0  0  0
    6.3151    9.3677  -21.5567 C   0  0  0  0  0  0  0  0  0  0  0  0
    6.5434   -3.0902  -18.8022 N   0  0  0  0  0  0  0  0  0  0  0  0
    5.9486   -3.9196  -17.9187 N   0  0  0  0  0  0  0  0  0  0  0  0
    7.7059   -2.6762  -21.6783 N   0  0  0  0  0  0  0  0  0  0  0  0
    4.2623    5.9884  -17.7869 N   0  0  0  0  0  0  0  0  0  0  0  0
    7.8599    3.3028  -17.9854 O   0  0  0  0  0  0  0  0  0  0  0  0
    6.8985    1.9881  -16.0213 O   0  0  0  0  0  0  0  0  0  0  0  0
    3.8380    4.6069  -20.1152 O   0  0  0  0  0  0  0  0  0  0  0  0
    8.2475   -0.2215  -22.8839 F   0  0  0  0  0  0  0  0  0  0  0  0
    6.7035    2.7813  -17.2415 S   0  0  0  0  0  0  0  0  0  0  0  0
    9.4195    7.9136  -18.2826 H   0  0  0  0  0  0  0  0  0  0  0  0
    7.6333    7.1220  -16.7481 H   0  0  0  0  0  0  0  0  0  0  0  0
    8.8289    8.9336  -20.4647 H   0  0  0  0  0  0  0  0  0  0  0  0
    3.3949   -3.3744  -19.7895 H   0  0  0  0  0  0  0  0  0  0  0  0
    3.9860   -0.6974  -19.8591 H   0  0  0  0  0  0  0  0  0  0  0  0
    4.6424    8.3556  -19.5936 H   0  0  0  0  0  0  0  0  0  0  0  0
    6.5702    1.7207  -22.3097 H   0  0  0  0  0  0  0  0  0  0  0  0
    3.9358   -4.7583  -17.5590 H   0  0  0  0  0  0  0  0  0  0  0  0
    4.8649    1.3732  -17.8545 H   0  0  0  0  0  0  0  0  0  0  0  0
    6.3529    0.9790  -18.7803 H   0  0  0  0  0  0  0  0  0  0  0  0
    6.2351    4.8988  -16.2269 H   0  0  0  0  0  0  0  0  0  0  0  0
    4.7988    3.8201  -16.2287 H   0  0  0  0  0  0  0  0  0  0  0  0
    6.1187    3.1222  -20.0593 H   0  0  0  0  0  0  0  0  0  0  0  0
    6.0264    5.2079  -18.6812 H   0  0  0  0  0  0  0  0  0  0  0  0
    3.5390    3.4310  -18.4217 H   0  0  0  0  0  0  0  0  0  0  0  0
    5.9982    8.6303  -23.5790 H   0  0  0  0  0  0  0  0  0  0  0  0
    7.2449    7.7322  -22.6488 H   0  0  0  0  0  0  0  0  0  0  0  0
    5.5029    7.4861  -22.2860 H   0  0  0  0  0  0  0  0  0  0  0  0
    7.0591   10.8185  -23.0089 H   0  0  0  0  0  0  0  0  0  0  0  0
    7.4008   11.2436  -21.2975 H   0  0  0  0  0  0  0  0  0  0  0  0
    8.3461    9.9484  -22.1072 H   0  0  0  0  0  0  0  0  0  0  0  0
    4.7072   10.4846  -22.5237 H   0  0  0  0  0  0  0  0  0  0  0  0
    4.1551    9.3558  -21.2401 H   0  0  0  0  0  0  0  0  0  0  0  0
    4.9589   10.8991  -20.7942 H   0  0  0  0  0  0  0  0  0  0  0  0
    4.2228    2.5019  -21.4752 H   0  0  0  0  0  0  0  0  0  0  0  0
    3.4739    1.5566  -20.1440 H   0  0  0  0  0  0  0  0  0  0  0  0
    5.3734    6.8538  -16.2046 H   0  0  0  0  0  0  0  0  0  0  0  0
    4.1819    7.9477  -16.9858 H   0  0  0  0  0  0  0  0  0  0  0  0
    6.4443   -4.3342  -17.1556 H   0  0  0  0  0  0  0  0  0  0  0  0
    8.4372   -2.4224  -22.3114 H   0  0  0  0  0  0  0  0  0  0  0  0
    8.1037   -2.9546  -20.8041 H   0  0  0  0  0  0  0  0  0  0  0  0
    3.8300    6.2949  -18.6349 H   0  0  0  0  0  0  0  0  0  0  0  0
    3.3012    5.3194  -19.7885 H   0  0  0  0  0  0  0  0  0  0  0  0
  1  2  2  0
  1  3  1  0
  2 10  1  0
  3 11  2  0
  4  8  2  0
  4 15  1  0
  5  9  2  0
  5 12  1  0
  6 10  2  0
  6 11  1  0
  7 12  2  0
  7 14  1  0
  8 28  1  0
  9 13  1  0
  9 15  1  0
 10 25  1  0
 11 26  1  0
 12 24  1  0
 13 14  2  0
 13 29  1  0
 14 34  1  0
 15 27  2  0
 16 18  1  0
 16 35  1  0
 17 19  1  0
 17 35  1  0
 18 20  1  0
 18 24  1  0
 19 20  1  0
 19 30  1  0
 20 33  1  0
 21 26  1  0
 22 26  1  0
 23 26  1  0
 25 30  1  0
 27 28  1  0
 31 35  2  0
 32 35  2  0
  1 36  1  0
  2 37  1  0
  3 38  1  0
  4 39  1  0
  5 40  1  0
  6 41  1  0
  7 42  1  0
  8 43  1  0
 16 44  1  0
 16 45  1  0
 17 46  1  0
 17 47  1  0
 18 48  1  6
 19 49  1  6
 20 50  1  1
 21 51  1  0
 21 52  1  0
 21 53  1  0
 22 54  1  0
 22 55  1  0
 22 56  1  0
 23 57  1  0
 23 58  1  0
 23 59  1  0
 24 60  1  0
 24 61  1  0
 25 62  1  0
 25 63  1  0
 28 64  1  0
 29 65  1  0
 29 66  1  0
 30 67  1  0
 33 68  1  0
M  END
>  <OMEGA_C>  (8) 
mBwGQZNOAEF0gZTBGuzrQJ478kDQkI3BaLgAQcW1CUE2YZ7BFQKLQC0pXMAjOprB2lScQPXEFr/K
k6PBt8W1QF2MBEGjbprB/oHKQD+bRD/x5a7BdqOTQDTnhMBUJJHBbtW3QGh717/29aTBRqDAQHOK
9kCSg5DBpPfVQHBmDEEMZ6HBfSCmQFNYJT9KSqjBnaXbQILFyr8B1KvB4cXkQAxNtL7W1bDBI2Sz
QMeyMcCyWp3Bt3K3QArX5T+dDpPBIRS1QGR+hUCniobBJ7CnQP1RLEC4cZzBVQelQNvtmkBU7JDB
bIuLQIEFd0DAHJjBQV3IQH6LA0EJvbTBembrQHW+JkFBN7DBBtydQKlCIUFjNqzBL56NQGxr7z/X
x6TBYrudQBYg5UAhTonBcRXKQOfhFUEjdKzBlWPRQFLGRcDxapbBoVq+QP/ZesCLWY/BjJb2QJdG
K8Atba3BXWSIQKigv0CHS47BT4T7QE9gU0At4o/BZsDcQKh7/j+4K4DBfqF1QNlrk0DZ66DB6/UD
QdLXYr46ErfB3oLWQJcBMkCx7onBV7YWQfw7/UCtQpLB3EP0QB/n40Aw/IXBK0MNQSzwDkGnt6PB
PUVZQKb2V8DWUJ7B9xp/QAiLMr9u357BcI6UQJGwBUHAv5zBZT/SQF9B3D82erLB8uR7QCVEmMDL
eIzBRq2bQLvDrz8Z1o7BLEvLQD2iej8mPpbB+IXHQFLDnEDG0IHB7o+ZQAV8dEBO1IHBG8zDQE/R
R0B3eaDBnNjAQFOnpkAAc5XBWX9iQOeUW0CRX5PBEPG/QMEVCkHdobzBPdbnQOZt90CvMLXB1hew
QPuN70DRSbLB7uPhQIsYLUEiErjBwNPsQK/lM0EyYarBhYkFQZ4sH0GY27DBEqGWQAPBJ0F6MLTB
X/aEQIaxFUHS66nBSK+eQLBiLkFuWqbBIyGHQGweIEA5zavBAlReQBY9xz/aJqHBEfOrQD1S20Ac
o4HBGdKFQJlT/kAF44fB5jfOQK2xisC+PonBrP4GQWcJG8DGfbLBmKgBQQAYPcDHbqbB2x51QN9v
yUBYFJXB8kZTQOE4qkDzTp7BdJMFQd+8AEH7+pTBrrvrQOJR8kAE5Y3BkzX/QMY6CkE5vp7BbgCF
QD1KW8BcSp3BgyOeQIp0BL/XX6TBNAy0QBFWBEHAZZrByefPQIW+RD/6Pq/B7RCGQKUPhcDqDZTB
hGS4QDma0r9tWKXBRxfAQDUd9kCIjpDBPGHTQEdkDEGqjaHBWUmqQGjYMj8uBanBw9HdQBhyzL9M
ravB/yvpQMbFxb4wxbDBdfCuQJc8MMDJMJ7BQ3C6QACL5T+bwZPB9xO2QNBhg0A8iIbBG/iqQB6u
LkBs75zBXUCmQCgBmkBHxpDBXaWNQMJwdkBuTpjBamrqQGIaIkF+KLLBEEigQDMQJkE056rBZoq2
QKeNA0Gm1bPBDWmSQDBY+T+QyaXBLkeeQDH740BgHonBXI/FQADuFUEOcazBa6rGQIvURMD+45XB
zE2uQBYCe8DbDZDB6OX3QJsJLsAysazBoB+JQGUSvkCQ9I3BmV39QBu8VEBL/Y/BXQvfQHf89D+f
woDBEOB4QAsUlEBy46DBuLQGQbI3nr7Oq7bBvYvYQHYdMEDKRIrBTkwWQbqM/kDc7ZLBTwb1QFfE
40D+aIbBec8LQdDtD0GMJ6TBq0VVQGyrVsC02KLBZ16AQBXwFb8fBaDB8JaSQA1RBUFugZzBVlvZ
QLw/2j+U17LB+UBaQAvamMB0sZDBjpKeQOTpqz+0w4/B88TOQJqBfz/GF5fBydLHQPI+mkAEhoHB
JoiaQD/RbUAOB4LB2i3HQFn8TEDblqDBAizCQOWfpkAyG5XBy0xnQMUdWEDovZPBaMreQCSCKEF5
0rnBNWH1QFhcL0GCD63BGZYCQVAOF0HWorPB9+WWQFyrLEESt7LBOcWEQKvRHUETR6fBjcKqQAYi
M0Gin6XBlaKsQNIqCkG/mrvBvfvQQKNg8ED1CbXB8FKbQDl29kCyHbDBXaSOQPwoJkCO1azBMldl
QCQx1T/uuaLBKH+tQGt32kBujIHBlAqGQAy3/EBRiofBadW4QPASi8DgTYnBzFwIQegyIMAVb7HB
s1ABQYpxP8D2eaXBD7B0QBeTx0AzpJTBNiRVQBTxqUBqEp7BoTAFQdHQAEE09ZPBrjvqQFEG8kDp
I43BPHH/QE2SCkE+u53BnzK4QE9cQ8A5TZXB8W+cQMcgAb87ZKXB7d6zQDd/BEGg7pnBecTRQO7i
Qj+BU6/BPl6dQA2nfcCvqpDBnMa0QNyw1b/woqbBg+O+QEzj9UCDFpDBF+fTQF7HDEEi0KDBvP+q
QFLaNj+Ei6nBrp7bQLzH0b/YaqzBQs3pQHUN1r5G4rDBZM2nQBMINMC/OaDBJwu6QDhY5T8UOpTB
XJe0QOqfgkA8yIbBbI+rQC2gL0A5Y53BW5ulQMXdmUChBJHBR9iNQEoKd0Cv0pjBQrnsQAafIkEv
NLHBWY2iQK5YJ0EuFarBhle3QMnVBEFPPbPBWq6TQMhJ/T/pbabB+E2cQHwV40AD/4jBaQnHQObH
FkGFqqvB4JCFQJtAY8DnzKHBcX2AQIkWiMDGn5jBgYX0QJVUMsCTaa3BYPOHQCCHvUDdM47Bs7H8
QFb+U0C76Y/BYuLcQMxs8D+2BIHBrAh7QO7alECEbaHBXL0HQTDxt76PNbbBd1PXQDHjLkBKeIrB
dswVQS6m/kBNsZHBZ7zyQNoT40BSpYXBjDIMQRRwEEGz8KLBf/vTQKgrJsAfr5HBkXt8QHytC7+p
M6HBSqWSQLiDBUFQQZzB6QndQG942T9ujrLBRZWeQBSSi8AypIjBocOdQDVCqz/DcpDBS5zOQPH5
fz85hpfB7fDFQHgwmUDemoHBFqqYQMbia0DcdoLBFyHIQP8dTkBf1qDBqNXBQLn4pkA0IZXB3rhm
QDNGWEBNfJTB97/hQB5hKUEh2rjBNSf4QFGYL0Ep/avBansDQdtFF0GmsLLBW8iZQK5NLkHx3LHB
E4CGQAZbH0GKk6bBYoWtQAUeNEEZr6TBHR+uQKrQC0Fk+7rBrjbRQHxP8kD3drTBmIibQBiL+UB+
p6/BuCuRQBBuKEDUe63ButRmQF+f2z9HnKPBBaSqQDz92ECVXYHBMsmDQDeY+0AteYfBnbNSQCDi
ncA+tJfB3lAHQbYWJcApu7HBjEH9QGKnRsDGJabBAsxzQEiTx0DP75TBU9VWQF6bqkCPpp7B62gF
QSOnAEGNHZTBFMPqQJSq8UBcRo3BCcP/QAh2CkFI3p3B9ey4QCQQSMA6tZXBiAecQG0yAb8Me6XB
Cz60QJBcBEHMAprBA1/RQCWNRT+kTq/BRp+cQHOMfsDE45DBw5+0QAAp1b8vrqbBRmC/QNWW9UCD
LZDBNzDUQBKvDEEe6aDBk4KqQAmVNz8jk6nBsqzbQMQ50L+HYKzBxanpQE5Kzr7Q1rDBtC+nQHMb
NMCmYqDBYXW5QDw+5D8YN5TBwpC0QGNhgkASx4bBawqrQN88L0CzXp3BLY6lQEOqmUDaAJHBQoiN
QBnjdkCzyZjB/E+4QDr1BEGncbPB2Y/sQCkuI0GqILHBOhWiQAQBJ0EoE6rBzw+TQAIO/T8waqbB
4dqcQFX+4kAjBonBLjTHQEfTFkGyuavBk+aCQDN3XcBZpqHBhGB7QDaFhcA+ipjBwc30QOlCMcDW
Wq3BVyiIQDZ/vUB6K47Bb2X8QAvcUkCj/Y/BVK/cQLzt7j/dC4HB5oN6QL7glEBfYaHBNK0HQUIR
rL76JrbBSg7XQPgcLkBTf4rBsQgWQWlE/kAj4pHBbF7zQOel4kDzy4XB9VIMQaxaEEHgFqPB8nvW
QGw+MMBVXZLBVVl7QOhoDb8sXqHB4v2SQGVcBUEiUJzB3IXcQAQY2z9ehbLBnjaeQKK3jMCp8IjB
JCWdQKvoqj9oaJDB79LNQNuqfD80hpfBRxXGQInfmEC+nYHBc6SYQHala0CAb4LBAKrHQICCTUBg
0qDBtczBQLqapkAAJJXBlApmQGliWECbbpTBMwivQN0RDEHjJrvBL53SQI8T80CmtbTBgLScQGgd
+UDb9K/B3oThQC0EKkGVwLjBsVT3QLwiMEF00KvBVKUDQXYiGEF+o7LBNDCZQEMVLkGU0bHBUEaG
QFmpHkEkp6bBBHusQCO7M0GVlKTBgmWQQHaFKEA+cq3BnrdlQGjS2j/6k6PBIFWrQE7k2EAiaYHB
foCEQMKk+0DZeYfBMCJKQOd9mcDsc5fBIYMHQRicI8B/nLHBPVj9QLi4RcDkFKbBTvpzQG2Kx0Ca
45TBCo9WQJe0qkBCl57B

>  <OMEGA_E>  (8) 
2MeSPsRikT4I0cE+fOvBPg==

>  <OMEGA_NBR>  (8) 
     48213

$$$$
50216966
     RDKit          3D

 68 71  0  0  1  0  0  0  0  0999 V2000
    8.3457    8.0633  -18.5596 C   0  0  0  0  0  0  0  0  0  0  0  0
    7.3577    7.5714  -17.6903 C   0  0  0  0  0  0  0  0  0  0  0  0
    7.9807    8.6782  -19.7721 C   0  0  0  0  0  0  0  0  0  0  0  0
    4.1944   -3.4431  -19.6681 C   0  0  0  0  0  0  0  0  0  0  0  0
    4.9059   -0.5195  -20.6463 C   0  0  0  0  0  0  0  0  0  0  0  0
    5.6290    8.2934  -19.2544 C   0  0  0  0  0  0  0  0  0  0  0  0
    6.4923    0.7916  -21.9480 C   0  0  0  0  0  0  0  0  0  0  0  0
    4.3131   -4.1434  -18.4973 C   0  0  0  0  0  0  0  0  0  0  0  0
    6.2694   -3.0963  -18.8137 C   0  0  0  0  0  0  0  0  0  0  0  0
    5.4593   -2.7549  -19.8650 C   0  0  0  0  0  0  0  0  0  0  0  0
    5.7275   -1.6483  -20.7756 C   0  0  0  0  0  0  0  0  0  0  0  0
    5.9965    7.6913  -18.0332 C   0  0  0  0  0  0  0  0  0  0  0  0
    6.6131    8.8181  -20.1302 C   0  0  0  0  0  0  0  0  0  0  0  0
    5.3013    0.7092  -21.1951 C   0  0  0  0  0  0  0  0  0  0  0  0
    6.9110   -1.5832  -21.5465 C   0  0  0  0  0  0  0  0  0  0  0  0
    7.2852   -0.3589  -22.1426 C   0  0  0  0  0  0  0  0  0  0  0  0
    5.8152    1.7906  -18.5297 C   0  0  0  0  0  0  0  0  0  0  0  0
    5.6769    4.0879  -16.8547 C   0  0  0  0  0  0  0  0  0  0  0  0
    5.3351    2.7356  -19.6704 C   0  0  2  0  0  0  0  0  0  0  0  0
    5.1898    4.8105  -18.1291 C   0  0  1  0  0  0  0  0  0  0  0  0
    4.4239    3.8596  -19.0859 C   0  0  1  0  0  0  0  0  0  0  0  0
    5.7619    8.2962  -22.4388 C   0  0  0  0  0  0  0  0  0  0  0  0
    7.3334   10.2384  -22.1613 C   0  0  0  0  0  0  0  0  0  0  0  0
    4.9954   10.4114  -21.2889 C   0  0  0  0  0  0  0  0  0  0  0  0
    4.5602    1.9590  -20.7774 C   0  0  0  0  0  0  0  0  0  0  0  0
    4.9319    7.1035  -17.1269 C   0  0  0  0  0  0  0  0  0  0  0  0
    6.1884    9.4354  -21.4835 C   0  0  0  0  0  0  0  0  0  0  0  0
    7.7297   -2.7014  -21.6833 N   0  0  0  0  0  0  0  0  0  0  0  0
    4.2774    5.9330  -17.7660 N   0  0  0  0  0  0  0  0  0  0  0  0
    7.9083    3.3129  -18.0332 O   0  0  0  0  0  0  0  0  0  0  0  0
    6.9475    1.8869  -16.1482 O   0  0  0  0  0  0  0  0  0  0  0  0
    5.5682   -3.9317  -17.9946 O   0  0  0  0  0  0  0  0  0  0  0  0
    3.8984    4.6495  -20.1551 O   0  0  0  0  0  0  0  0  0  0  0  0
    8.4494   -0.2625  -22.8264 F   0  0  0  0  0  0  0  0  0  0  0  0
    6.7527    2.7363  -17.3300 S   0  0  0  0  0  0  0  0  0  0  0  0
    9.3890    7.9694  -18.2966 H   0  0  0  0  0  0  0  0  0  0  0  0
    7.6414    7.1018  -16.7601 H   0  0  0  0  0  0  0  0  0  0  0  0
    8.7479    9.0471  -20.4367 H   0  0  0  0  0  0  0  0  0  0  0  0
    3.3317   -3.4091  -20.3169 H   0  0  0  0  0  0  0  0  0  0  0  0
    3.9649   -0.5965  -20.1220 H   0  0  0  0  0  0  0  0  0  0  0  0
    4.5856    8.3555  -19.5259 H   0  0  0  0  0  0  0  0  0  0  0  0
    6.7967    1.7356  -22.3752 H   0  0  0  0  0  0  0  0  0  0  0  0
    3.5471   -4.7576  -18.0474 H   0  0  0  0  0  0  0  0  0  0  0  0
    7.2850   -2.7625  -18.6606 H   0  0  0  0  0  0  0  0  0  0  0  0
    4.9426    1.3358  -18.0380 H   0  0  0  0  0  0  0  0  0  0  0  0
    6.4519    0.9992  -18.9520 H   0  0  0  0  0  0  0  0  0  0  0  0
    6.2303    4.7941  -16.2183 H   0  0  0  0  0  0  0  0  0  0  0  0
    4.8124    3.6943  -16.3000 H   0  0  0  0  0  0  0  0  0  0  0  0
    6.2178    3.2061  -20.1280 H   0  0  0  0  0  0  0  0  0  0  0  0
    6.0650    5.2113  -18.6616 H   0  0  0  0  0  0  0  0  0  0  0  0
    3.6042    3.3861  -18.5258 H   0  0  0  0  0  0  0  0  0  0  0  0
    5.4572    8.7227  -23.4059 H   0  0  0  0  0  0  0  0  0  0  0  0
    6.6078    7.6097  -22.5912 H   0  0  0  0  0  0  0  0  0  0  0  0
    4.9175    7.7455  -21.9987 H   0  0  0  0  0  0  0  0  0  0  0  0
    6.9763   10.6527  -23.1156 H   0  0  0  0  0  0  0  0  0  0  0  0
    7.6468   11.0593  -21.4996 H   0  0  0  0  0  0  0  0  0  0  0  0
    8.1880    9.5714  -22.3481 H   0  0  0  0  0  0  0  0  0  0  0  0
    4.7086   10.8392  -22.2609 H   0  0  0  0  0  0  0  0  0  0  0  0
    4.1410    9.8655  -20.8624 H   0  0  0  0  0  0  0  0  0  0  0  0
    5.2916   11.2207  -20.6053 H   0  0  0  0  0  0  0  0  0  0  0  0
    4.4375    2.6123  -21.6538 H   0  0  0  0  0  0  0  0  0  0  0  0
    3.5705    1.6756  -20.3898 H   0  0  0  0  0  0  0  0  0  0  0  0
    5.3987    6.7842  -16.1834 H   0  0  0  0  0  0  0  0  0  0  0  0
    4.1724    7.8714  -16.9187 H   0  0  0  0  0  0  0  0  0  0  0  0
    8.5150   -2.4719  -22.2582 H   0  0  0  0  0  0  0  0  0  0  0  0
    8.0503   -2.9919  -20.7817 H   0  0  0  0  0  0  0  0  0  0  0  0
    3.8285    6.2487  -18.6020 H   0  0  0  0  0  0  0  0  0  0  0  0
    3.3435    5.3341  -19.8004 H   0  0  0  0  0  0  0  0  0  0  0  0
  1  2  2  0
  1  3  1  0
  2 12  1  0
  3 13  2  0
  4  8  2  0
  4 10  1  0
  5 11  2  0
  5 14  1  0
  6 12  2  0
  6 13  1  0
  7 14  2  0
  7 16  1  0
  8 32  1  0
  9 10  2  0
  9 32  1  0
 10 11  1  0
 11 15  1  0
 12 26  1  0
 13 27  1  0
 14 25  1  0
 15 16  2  0
 15 28  1  0
 16 34  1  0
 17 19  1  0
 17 35  1  0
 18 20  1  0
 18 35  1  0
 19 21  1  0
 19 25  1  0
 20 21  1  0
 20 29  1  0
 21 33  1  0
 22 27  1  0
 23 27  1  0
 24 27  1  0
 26 29  1  0
 30 35  2  0
 31 35  2  0
  1 36  1  0
  2 37  1  0
  3 38  1  0
  4 39  1  0
  5 40  1  0
  6 41  1  0
  7 42  1  0
  8 43  1  0
  9 44  1  0
 17 45  1  0
 17 46  1  0
 18 47  1  0
 18 48  1  0
 19 49  1  6
 20 50  1  6
 21 51  1  1
 22 52  1  0
 22 53  1  0
 22 54  1  0
 23 55  1  0
 23 56  1  0
 23 57  1  0
 24 58  1  0
 24 59  1  0
 24 60  1  0
 25 61  1  0
 25 62  1  0
 26 63  1  0
 26 64  1  0
 28 65  1  0
 28 66  1  0
 29 67  1  0
 33 68  1  0
M  END
>  <OMEGA_C>  (9) 
EIgFQW0DAUEVepTBSXLrQAJJ8kDWhY3Bs2H/QNPZCkFILZ7B0ziGQHZcXMBaWJ3BZ/2cQKUABb+p
K6XBGiG0QKuxBEESCZrBBsHPQJWmSj+Ila/B+wSKQGKWhMBm+pPBjZ7IQGsqRsBxgpbB3rKuQM9P
MMCD657BkUe3QE770r+CNKbBYOO/QNQe9kASRJDBqZ7TQBwXDUGWCqHBWaSpQHONNT+lj6nB2Sbd
QOqlyr8tX6zB9R/pQA7Ct74EJLHBzxW6QOAw5T/cPJTBd6m1QLDPgkBs1obBGbmqQDEUL0D7XJ3B
PxOmQEvvmUBwCJHB+5CNQEcEd0AEsJjBg2G4QBe9BEGngrPBLavqQGLQI0FISrHB/dmfQB6VJkG3
T6rBTe2RQEzA+j8POKbBatKdQOdP40DYA4nBGQfGQHD3FkEe3qvBX1n3QGvkLMBOd63BkOCIQHPb
vUDSII7BuhD9QCcHVEDqQ5DBSlLeQN6G8T+QL4HB4y6yQJ6he8D59I/ByH55QFvIlECVPaHB0DAH
QeJfhr6FnLbBthXYQDEfL0DEo4rBUTkWQY4F/0B/X5LBeIb0QO1B40CuFIbBN/cLQRbBEEFnfqPB
GDpVQJouWsD+iKLBlMB9QIKzGL/i+aDB87ySQE+wBUEINZzB5H7ZQJQp3j94ALPBwgNjQDk+mMAk
YZDBdR7pQBvMMMDPSJXBtymeQGL6qj/RTZDBtHXOQC3Lfz/GnZfBwF7HQEJpmUAbv4HBRP+ZQItv
bEBaZoLBcPjGQCcxTUAlBqHBYRTCQKTCpkDgSpXBYKtmQDW2WEC/NJTBV6GuQA2QC0E8P7vB03LT
QEaC80C0urTB11udQG7b90A+/a/Bjj3fQJJxKkHG7LjB1bL0QBjzMEFB/6vB3gEDQZ4kGUECybLB
N62WQD9tLUFmFrLBwoKEQPbYHUEc5qbBsFSpQASIM0G/16TBIgCOQHMvJ0AKO63BOoNkQLJ71j9b
HqPBCcKsQN8X2UCWd4HBEoSFQM7i+0B4WYfBTj0IQaUzHsDeELLBM84AQZp7P8DwQKbBuAZ1QKH1
x0Dj0JTBI/tVQFexqkBEZ57BGZ8FQWp0AEFsBJTBtAbrQJ5i8UBxNI3B3DEAQTpNCkFXxp3Bukqy
QBglSsB5TZXBvhmdQDoCAr9i8qTBtMe0QIRVBEEb/JnB7NjQQAvjRD+hS6/BQ0WVQB45g8CeDJLB
37qFQJIxaMBbKKPBHsanQE/hNcBSW6DBkvm1QNCu1L8eLqbB37G/QEV79UCVJZDBVt/UQB+gDEG+
2KDB2nmqQNmQNT8wXanBxjfcQHagz78DNazBbHjpQEYuzL730rDBDYS5QEod5T8CK5TBroC0QB2m
gkCLzobB4qCqQPs1L0CpVJ3BUkmlQBzAmUAWC5HBQwyNQHGrdkBivZjB7yi6QNSFBEFAZrPB5Gjt
QH0tI0HMBbHB13GiQO2LJkFGPKrBGaKSQNp1+z8lTKbBwvScQMgO40DGCInBbyDIQDqdFkFrtavB
1w31QJUPMcCzda3BphWIQCi4vUCwNo7BwUv8QLTAU0BlEJDBevncQMTk8D98D4HB8HR2QHy8jMBI
h5rBiaB4QB+BlECBU6HBa0cHQakyqL66ZLbBXxvXQIDmLkDmhIrBiDkWQbG4/UBywpHB7HfzQHZT
4kBZuIXBubEMQXElEEHN+aLB1+fLQPsCL8DZmJDBb8B+QBOBDr93jqDBx5KTQOVgBUE7UpzBZl7b
QKOX2j/BqbLB/0WTQCobkcAfJ4rByuJrQFnQaMDX16rB+WSdQIopqz/+TpDB/fjNQPhCfz8tfpfB
MPzFQB9GmUCTrIHB162YQAsPbECqb4LBUhDHQCu0TUBE2aDBqnbBQCaDpkBCPpXBY5RlQB4MWEBH
TZTBBgOxQE9yC0HuKLvB29/UQL6W8kAGjLTBeKmeQKTp90CJ9a/B7IriQLvlKUFYsLjBh5n3QH07
MEHgsqvBmz4EQetLGEGycLLBDNCZQAV9LUFeB7LB1ayGQP0JHkGB5abBuCasQPBlM0EIvKTBqrGP
QMIxJ0D/Xq3B4BVlQNWH2D8ZaqPBO0KrQGvQ2ECEaYHBLb2EQGfa+0CAf4fBilkHQYxdI8CH7bHB
LY3+QO/3RcD6R6bBgxl0QH7mx0AC8JTBw5VUQMdEqkDphZ7BaFcFQYyyAEFq+pPBGXfqQKXW8UC5
LI3Bn9j/QOZ8CkHdv53Bccy2QCNDT8D5EZbBBsOcQH3h/76VQKXBIzm0QCqHBEFn+JnBV47RQKLy
RD++U6/B6hOZQOpmg8A3/ZHBlFeBQDfmX8BINKLBlvymQBAoNcA7hKDBeUu1QF6q1L+ieKbBgSS/
QK/Z9UASIZDBCljUQBjJDEEI16DBy/OqQMLZNz/8fKnBUQPcQNxE0L8XUKzBSM3pQOjOz75R3bDB
FOu5QCpO5T9FM5TBjKy0QOG4gkBZxobBukyrQECaL0D1WZ3BAomlQCLXmUAkBJHB4pCNQNzDdkB4
wJjBHhntQJQZI0E7FbHBfBCiQFCdJkHqXKrBQsu5QFV3BEGbZLPBEnWTQEJS/T++ZabBlnucQKEo
40BMCYnBlrfHQP+jFkFIv6vBuMD0QHOfMcC0d63BCgOIQK2dvUCqN47BAKf8QNjDU0AN7Y/BMNfc
QNh08D83AoHBGUZzQNYPicA4e5nBOph5QC2NlEDzVKHBJYsHQedCsL5tW7bBJkjXQB7dLkCldorB
0PAVQdhR/kAPtJHB4eXyQHTQ4kBVr4XBMm4MQTtQEEF786LBbSXUQEPlOsCbSJLB2Fp9QHYiC7+q
A6HBfgOTQLCaBUH3TJzBi4vcQNx/2j8knrLBmD+aQCpIksBKMorBpolaQO3FWsBMNanBlrGdQAcd
qz8KZ5DBuXfOQD8HgD+Zg5fBtCbGQAdWmUBOo4HBxs6YQPdJbEDmaYLBydDHQJBJTkBKzaDB6LbB
QHPLpkCbLZXBhKRmQJDUV0DIV5TBK1PiQLi5KUEgx7jBgkn3QJk3MEEpzKvBTRMEQfEsGEHCcrLB
hIyZQFJyLUE/MLLBKjuGQHEsHkHPA6fBy7urQHOKM0Hb5qTBTL2wQG5NC0H+LbvBdH/UQDRs8kB6
fbTBaD6eQHXo90D18a/BVeuQQCFwKEC0c63BBGhmQK5M2z9MlqPBcsiqQK0V2UBbZoHBHQeEQBO/
+0D0hofB5WIHQVgdJMC2zrHBPaT9QF/CRsA3QKbBoPNzQLmkx0Cg9JTBU1xVQNM6qkCYhp7BBTEF
QeRxAUG5PZTBQKjqQAj/8kB+V43BUOP+QBgUC0EzAZ7BeuOGQOkkW8Ba2pzBvFidQNAKA7/qJKXB
sJqzQHyQBEELCprBBkPQQDXVST8mnK/B7rWLQD3Bg8C5epPBtRnKQA4rRcDVhpbBqkOvQFaIL8BN
xJ7BAmq3QGuu0r94MKbBjCy/QJdO9kBPM5DBAzTTQGoEDUHb/qDBWy2qQBqxNj9TkqnBxRvdQGR1
y7/KbqzBNVfpQNYdvL78MLHB9ai6QEdS5j9yQ5TBI7K1QJn+gkCF1YbBkFurQG6eL0BoZZ3BNCem
QIgdmkDoB5HBlgSOQLxTd0ChvpjBs7bqQI9jI0HfUrHBjSSgQNrCJkFpRqrBLXm3QGauBEEKc7PB
VaiSQLPx+z8ARqbBgQmdQNBZ40C6/4jBaMrFQDnaFkEW2KvBqP/2QEuwLcDXlK3BJIyIQJq3vUBU
Io7BZ1r9QJk9VUB0NZDBSaXeQLnz8j/kLIHBeFK0QAbyecCCwY/B/LZ6QLP0lECNUKHBwkoHQXjQ
jr5trbbBSmPYQMfgL0Den4rB2NoVQW8oAEHHC5LBTJfzQNtA5EBz2oXBMMMLQWsOEUF8RqPBGVpV
QMb8WMD+1aHBc5R+QJQAFb+s6qDBG0mSQFNXBUELTZzBJDTaQJSL3T84BbPBaihnQD9El8BIrY/B
CMrqQHwYMMBokJXBsbieQFClqz8rXZDBcy/PQK1fgT8doJfBjjfHQCOkmUAxt4HBtAaaQBZ3bECp
bYLB5ZvHQBDlTUC0CKHB6yHCQM5Ap0CvPZXBOWRnQILLWEAeUpTBLGXfQDAAKkH3+LjBgSL1QGWF
MEFxE6zBp+ECQUKFGEHtzLLBXwKXQBmaLUERDrLBcJ2EQO1DHkFXzqbB4CCqQPOvM0F42aTBPd6t
QAaIC0EPMbvBICvSQOXw8kCGqrTBOjScQDQ7+ECN5a/Bx/+OQIi2J0DvTK3BoL1lQGl52D81NqPB
nNCrQJxP2UCpaoHBRoGEQL/D+0AHZYfBewQIQT5eH8AoO7LB3rUAQRtzQMDtY6bBaUp0QAqzx0D4
05TBJ/ZWQBTPqkA4f57B

>  <OMEGA_E>  (9) 
TFSdPpAorT54Ma0+yFebPg==

>  <OMEGA_NBR>  (9) 
     52856

$$$$
50217011
     RDKit          3D

 74 76  0  0  1  0  0  0  0  0999 V2000
    8.3085    8.1151  -18.4948 C   0  0  0  0  0  0  0  0  0  0  0  0
    7.2986    7.6322  -17.6460 C   0  0  0  0  0  0  0  0  0  0  0  0
    7.9748    8.7133  -19.7244 C   0  0  0  0  0  0  0  0  0  0  0  0
    5.6110    8.3287  -19.2656 C   0  0  0  0  0  0  0  0  0  0  0  0
    4.8277   -0.5606  -20.6676 C   0  0  0  0  0  0  0  0  0  0  0  0
    6.5948    0.7489  -21.7183 C   0  0  0  0  0  0  0  0  0  0  0  0
    5.9469    7.7446  -18.0267 C   0  0  0  0  0  0  0  0  0  0  0  0
    6.6172    8.8446  -20.1211 C   0  0  0  0  0  0  0  0  0  0  0  0
    5.3434    0.6828  -21.0719 C   0  0  0  0  0  0  0  0  0  0  0  0
    5.5488   -1.7459  -20.9003 C   0  0  0  0  0  0  0  0  0  0  0  0
    6.8331   -1.6757  -21.5016 C   0  0  0  0  0  0  0  0  0  0  0  0
    7.3410   -0.4271  -21.9281 C   0  0  0  0  0  0  0  0  0  0  0  0
    5.8058    1.8311  -18.4417 C   0  0  0  0  0  0  0  0  0  0  0  0
    5.6377    4.1608  -16.8191 C   0  0  0  0  0  0  0  0  0  0  0  0
    5.3531    2.7531  -19.6092 C   0  0  2  0  0  0  0  0  0  0  0  0
    5.1696    4.8603  -18.1140 C   0  0  1  0  0  0  0  0  0  0  0  0
    4.4302    3.8910  -19.0721 C   0  0  1  0  0  0  0  0  0  0  0  0
    7.3889   10.2470  -22.1456 C   0  0  0  0  0  0  0  0  0  0  0  0
    5.0300   10.4242  -21.3360 C   0  0  0  0  0  0  0  0  0  0  0  0
    5.8266    8.2998  -22.4473 C   0  0  0  0  0  0  0  0  0  0  0  0
    7.2874   -2.5324  -18.1232 C   0  0  0  0  0  0  0  0  0  0  0  0
    4.5987    1.9461  -20.7014 C   0  0  0  0  0  0  0  0  0  0  0  0
    4.9372   -3.0546  -20.4205 C   0  0  0  0  0  0  0  0  0  0  0  0
    4.8607    7.1619  -17.1442 C   0  0  0  0  0  0  0  0  0  0  0  0
    5.0727   -3.1862  -18.8815 C   0  0  1  0  0  0  0  0  0  0  0  0
    6.2277    9.4477  -21.4911 C   0  0  0  0  0  0  0  0  0  0  0  0
    4.1021   -4.2375  -18.3035 C   0  0  0  0  0  0  0  0  0  0  0  0
    7.6167   -2.8164  -21.6491 N   0  0  0  0  0  0  0  0  0  0  0  0
    4.2366    5.9780  -17.7877 N   0  0  0  0  0  0  0  0  0  0  0  0
    7.8891    3.3657  -17.9484 O   0  0  0  0  0  0  0  0  0  0  0  0
    6.9015    1.9748  -16.0505 O   0  0  0  0  0  0  0  0  0  0  0  0
    3.9349    4.6606  -20.1707 O   0  0  0  0  0  0  0  0  0  0  0  0
    6.4221   -3.5951  -18.5642 O   0  0  0  0  0  0  0  0  0  0  0  0
    8.5558   -0.3489  -22.5219 F   0  0  0  0  0  0  0  0  0  0  0  0
    2.8161   -3.9293  -18.6202 F   0  0  0  0  0  0  0  0  0  0  0  0
    4.2231   -4.2476  -16.9494 F   0  0  0  0  0  0  0  0  0  0  0  0
    4.4032   -5.4731  -18.7850 F   0  0  0  0  0  0  0  0  0  0  0  0
    6.7239    2.8016  -17.2507 S   0  0  0  0  0  0  0  0  0  0  0  0
    9.3446    8.0269  -18.2028 H   0  0  0  0  0  0  0  0  0  0  0  0
    7.5582    7.1753  -16.7024 H   0  0  0  0  0  0  0  0  0  0  0  0
    8.7587    9.0760  -20.3727 H   0  0  0  0  0  0  0  0  0  0  0  0
    4.5751    8.3836  -19.5662 H   0  0  0  0  0  0  0  0  0  0  0  0
    3.8685   -0.6065  -20.1734 H   0  0  0  0  0  0  0  0  0  0  0  0
    6.9809    1.7006  -22.0524 H   0  0  0  0  0  0  0  0  0  0  0  0
    4.9223    1.3915  -17.9558 H   0  0  0  0  0  0  0  0  0  0  0  0
    6.4464    1.0276  -18.8341 H   0  0  0  0  0  0  0  0  0  0  0  0
    6.1796    4.8795  -16.1867 H   0  0  0  0  0  0  0  0  0  0  0  0
    4.7648    3.7758  -16.2715 H   0  0  0  0  0  0  0  0  0  0  0  0
    6.2452    3.2101  -20.0624 H   0  0  0  0  0  0  0  0  0  0  0  0
    6.0512    5.2625  -18.6347 H   0  0  0  0  0  0  0  0  0  0  0  0
    3.5942    3.4303  -18.5255 H   0  0  0  0  0  0  0  0  0  0  0  0
    7.0567   10.6512  -23.1132 H   0  0  0  0  0  0  0  0  0  0  0  0
    7.6825   11.0751  -21.4837 H   0  0  0  0  0  0  0  0  0  0  0  0
    8.2497    9.5804  -22.3028 H   0  0  0  0  0  0  0  0  0  0  0  0
    4.7675   10.8426  -22.3189 H   0  0  0  0  0  0  0  0  0  0  0  0
    4.1654    9.8817  -20.9259 H   0  0  0  0  0  0  0  0  0  0  0  0
    5.3084   11.2402  -20.6528 H   0  0  0  0  0  0  0  0  0  0  0  0
    5.5474    8.7176  -23.4258 H   0  0  0  0  0  0  0  0  0  0  0  0
    6.6763    7.6123  -22.5713 H   0  0  0  0  0  0  0  0  0  0  0  0
    4.9710    7.7527  -22.0247 H   0  0  0  0  0  0  0  0  0  0  0  0
    8.2865   -2.9385  -17.9067 H   0  0  0  0  0  0  0  0  0  0  0  0
    7.3645   -1.7709  -18.9132 H   0  0  0  0  0  0  0  0  0  0  0  0
    6.8722   -2.0756  -17.2128 H   0  0  0  0  0  0  0  0  0  0  0  0
    4.4909    2.5734  -21.5985 H   0  0  0  0  0  0  0  0  0  0  0  0
    3.6026    1.6753  -20.3214 H   0  0  0  0  0  0  0  0  0  0  0  0
    3.8718   -3.0776  -20.6933 H   0  0  0  0  0  0  0  0  0  0  0  0
    5.4574   -3.8953  -20.9028 H   0  0  0  0  0  0  0  0  0  0  0  0
    5.3010    6.8594  -16.1826 H   0  0  0  0  0  0  0  0  0  0  0  0
    4.0891    7.9262  -16.9699 H   0  0  0  0  0  0  0  0  0  0  0  0
    4.8541   -2.2106  -18.4227 H   0  0  0  0  0  0  0  0  0  0  0  0
    8.4806   -2.5731  -22.0900 H   0  0  0  0  0  0  0  0  0  0  0  0
    7.8015   -3.2123  -20.7496 H   0  0  0  0  0  0  0  0  0  0  0  0
    3.8074    6.2800  -18.6389 H   0  0  0  0  0  0  0  0  0  0  0  0
    3.3729    5.3536  -19.8446 H   0  0  0  0  0  0  0  0  0  0  0  0
  1  2  2  0
  1  3  1  0
  2  7  1  0
  3  8  2  0
  4  7  2  0
  4  8  1  0
  5  9  2  0
  5 10  1  0
  6  9  1  0
  6 12  2  0
  7 24  1  0
  8 26  1  0
  9 22  1  0
 10 11  2  0
 10 23  1  0
 11 12  1  0
 11 28  1  0
 12 34  1  0
 13 15  1  0
 13 38  1  0
 14 16  1  0
 14 38  1  0
 15 17  1  0
 15 22  1  0
 16 17  1  0
 16 29  1  0
 17 32  1  0
 18 26  1  0
 19 26  1  0
 20 26  1  0
 21 33  1  0
 23 25  1  0
 24 29  1  0
 25 27  1  0
 25 33  1  0
 27 35  1  0
 27 36  1  0
 27 37  1  0
 30 38  2  0
 31 38  2  0
  1 39  1  0
  2 40  1  0
  3 41  1  0
  4 42  1  0
  5 43  1  0
  6 44  1  0
 13 45  1  0
 13 46  1  0
 14 47  1  0
 14 48  1  0
 15 49  1  6
 16 50  1  6
 17 51  1  1
 18 52  1  0
 18 53  1  0
 18 54  1  0
 19 55  1  0
 19 56  1  0
 19 57  1  0
 20 58  1  0
 20 59  1  0
 20 60  1  0
 21 61  1  0
 21 62  1  0
 21 63  1  0
 22 64  1  0
 22 65  1  0
 23 66  1  0
 23 67  1  0
 24 68  1  0
 24 69  1  0
 25 70  1  1
 28 71  1  0
 28 72  1  0
 29 73  1  0
 32 74  1  0
M  END
>  <OMEGA_C>  (10) 
tO8EQUvXAUFH9ZPBDo7pQGA79ED4Ko3BXzH/QKVpC0GSy53BPY2zQEpCBUHkH5rBUXyaQMqAD78o
V6XBxwjTQBO3Pz8gv63BWk2+QCnU90C9NpDB67/TQKKDDUH796DB8PyqQG/MLj8sk6jBho+xQJp4
37/GM6fBmKjaQKl+1r9PA6zB3unqQHGr2r68bK/BPsm5QBRi6j+HiJPBWmi0QPQkhUB/jYbBy0yr
QIAyMECO35zBaW2lQL6Hm0CA6ZDBRsSNQJkFeUC0k5jBsnHsQKLzI0EhKrHBYPWgQLPJJkEMsKrB
l3O6QN7LBEEnlLPBbzLpQJoTIsBY/JDB9SiTQF4a+T9unKXBlv2dQIF+Q8BFXaPB6IqbQCAu5UBU
J4nBSlOiQGjqS8BZDZfBOUnHQMQpF0Hc7avBHESDQHiZh8CZbZLBtbvzQNk/NMBhMa3BJpKHQOpL
v0AnTY7BiHP8QLFnV0BLlo/BadncQM3G/D+GZ4DBe9V7QJUjlUCXXaHBgIHNQFIWZsBjg5TBZuQI
Qdqesr7gLLTBWDs0QAh6e8Ax9pTBQCOHQPXrh8B1mIfBreaMQM8jr8DBR5bBGirXQLVMM0BhAYrB
X4MVQU9uAEFin5HBZtzxQE+c5UCdnoXBnCMMQXI3EUFJ+6LBlWeSQE8jBkGqh5zB0JR3QBVCG78e
Y6HBKmPfQLCt2T9Ia7DBboOdQHYbsj9rpY/BokjOQE6Hgz84rJbBDb/FQJQknEBsfoHBdnmYQHGn
cUADLILBW9jHQO1xTUDKf6DBMaPBQKJmqEDIE5XB0wZmQAKKW0AuNJTB3NDhQH1rKkHJ57jB/tb1
QHIzMUGd3qvBmv4DQVVJGUE4bLLBqY+YQDV7LUERjbLBAUuFQFEbHkEwaKfBqd6pQN7XM0EBOaXB
GYSxQEN7C0EdaLvBHaTVQJaX80AYkrTBIhKfQHoW+ECTMrDBtZUEQbEPPMD4QI/BE6rrQE6s4r88
TpfBaenbQIjWBMC8s4nBnbWPQNSyJEDJyazBG5FmQD9w1j9OkqLBu8t3QGn3RMDni6XBCqOuQBlN
ecDoOKfB4qGpQAOA20AHdoHBldmCQFuj/UBMwofB1VSbQC17DcCZYZPBtbAHQXWuJMBMuLDBkaX5
QJGWTcA0/6XBlqxzQCf2yEB1HJXBgd1XQMhQq0ClwZ7B3dwEQSj8AUFh4pPB9FrpQBl59EADHo3B
TCj/QG5bC0Gtxp3B+oOzQBH5BEEaNJrB02aaQNbiCr8UdKXB3JzTQFI7QT8Bsa3B6Ca+QJys90BL
PJDBFMTTQFw6DUEhCKHBpWmrQPZeMj95lqjBAROxQJ7W3b/8WafB5XvaQGYT1r/P/6vBIS7rQITc
2r5/Xq/Biga6QOW66j+DgZPBXDq0QGUXhUBafYbB/KerQMKhMEA41pzBp1+lQLB9m0CR25DBeeiN
QLYNeUB/jZjB6kq6QKk5BEFhmbPBDbXsQLw9I0H0WbHB3U2hQIh4JkG33KrB72vpQIDfI8BO55DB
8LuTQPwJ+z/ipKXBm+mcQAw/QsDVlqPBc1ibQMMm5UDLKonBBCSjQFv2S8AEYZfB9WfHQF6xFkEm
CqzBPeCEQH2Yh8BNdpLB7lrzQNhqNMAWFK3BG22HQIgsv0CJRY7BDIT8QHrcV0CMc4/BnMjcQDPo
/D9nU4DBUDh8QA8wlUAuWKHBpczOQOnLZcBIaJXBQRAJQVDdt748F7TBEiaNQKMBr8CRlJbBfbc2
QGQZesDfXpTB2DyLQBCEiMDTtIfBYy3XQBpzM0Ak7InBN2sVQRO/AEEHfZHBk5TxQGAe5kARiIXB
xyQMQSovEUFE8aLBEmuSQIGwBUEiqpzB1DN3QI7MFL/5i6HBP1DgQM0p2j9mT7DBqLadQBsFsj9b
qY/B16HOQDw1hD+ppJbB0GfFQB8cnED0ZoHBwUCYQDNTcUA5JYLBWD7IQMoyTkCpZqDB5KHBQBVv
qEDz/JTBTEpmQD9JW0CqNpTB+m6xQIjKCkEsdbvBtFLVQGc48kCwirTB6sueQGtF90AlLLDBqCHi
QAiVKUF7H7nB2k72QJqRMEEJIazB0wwEQch0GEGQj7LBgvSYQO4JLUFQwbLB3omFQAzzHUGvh6fB
q2yqQP2ZM0HZdqXBM/gEQVf2PMDjq4/BPaXqQNAE2r/QaJbBmgfcQEA4D8CGL4nBsaeQQH/nJUCb
z6zBCGdnQB3k2D97r6LBFgR1QIanQcCtcqXB8j+sQOtXeMC0tqfBsWKpQNuh20DUdIHBtKKCQByh
/UBs0IfB8d2cQHfGDcBekJPB1KMHQeVFJcD5frDBnbf4QA7UTcAH3KXBMUBzQLq0yECsFZXBwvZX
QO9Bq0CqvZ7BYz4FQROVAUGi9JPBHhDqQPe480DWMY3Bgvj/QDwPC0Gd053B7ke0QNLcBEE/PZrB
5GOcQA/eGL9/7KTBMmnSQMXFRT85wa3B7Ny+QN8x90DfTJDBWpTUQLARDUFZEKHBPvqqQH+CKT94
XajBHr+0QBAK4b+T2abBxEvcQF7M0r8eaKzBiBDrQJROwb4Hvq/BkH65QItS6D+qVZPBpD20QPz5
hEDOhIbBKJ2qQGB1LkAatZzBcjGlQEMKm0Ar6pDBhDmNQB2gd0C9dpjBVoy6QD5OBEFlnbPBnLbt
QNQFI0GLYLHBKn2iQH+hJkFWzKrB6rjpQFwSHcC1+JHBnjqSQCOI8z8IS6XB7nWjQET9RcC0vqLB
5u2bQH3g5EAWPYnBOmagQEwXSMDDQZbB0jnIQP2nFkE2C6zBGj2AQF1ohsB2fZLBUk71QN4lMcBH
iK7BeqWHQIoUv0CQWo7B3Cr8QIazVkD9j4/BttXcQBZK/T+iQYDBIXh6QGEflEDmSqHBzgrJQN6p
XcCXW5HBUqMIQchmgr6jwbTBPKowQCCee8BqPpbBTs19QFCihsDmnIfBzt+MQJexrcBP9ZXBXPzW
QMTjMkBo6InBXMwVQdU9AEEpkpHBXT7yQM405UANoIXBUZEMQTPcEEFp/aLBuCyTQJm3BUGArpzB
rWl8QK/FLL8Nw6DBf7TdQEW23j/6W7DBRWKdQM8EsD9OYI/BWwPOQAd1gT/MdpbBHJfFQDkinED2
gYHBp1eYQDOHcUAbG4LBjwLHQK5eS0BmcqDBv2bBQMiOp0C6JZXBjxplQCyYWkBtA5TB6bCxQIb3
CkEUdLvBOU7VQAQW8kDzmrTBU+yeQNW090DvKrDBrybjQAx3KUEHIbnB6bL3QGhEMEGhJazB2msE
QYMXGEE0obLBJyGaQLtJLUH4q7LBNpuGQHU9HkG9cafBtP6rQF+uM0GkZKXBxngDQWRTNMDVBI7B
0K/wQBPhDsDEaZrBUoneQLojxb8g9I3BwIyNQM+rIUCjcqzBTcxlQDZyzT9sEKLB+FqDQMBiUMBf
HKbBD/O4QByNecDfZaXB8eupQA4u20BIiYHBKW2DQKiL/UDr3YfBIn6VQGAOCcBEcZPB9tgHQcNn
H8AEerLBHZD9QEYuTcCppKfBQxB0QMW/yECbLZXBmKZWQFlrqkAgt57BqQkGQZYB/0BWnJTBybvr
QJDn8EBJpY3Bvq8AQXbdCEFVf57B5KK1QArgA0EShZrBehKbQMgMIL/NNqXBpJrQQMx7TT97sa3B
F2zAQN6E9UCAjpDBR+LVQPFpC0GsjaHBizWpQPi0Jz+kTqjBISO0QJp34b+NfKfBaDLcQNOhzb9r
rqzBhiHqQNx0pr5v0K/B26q3QGC65D+FKJPBD5KzQI0DhEAFT4bBQKyoQGDiLEByd5zBX6KkQDYj
mkC6tJDBudGLQK2AdkDnKZjBxEO6QDKgAkEb+rPB8wfvQP6+IEEkFLLBVmikQLteJUEYO6vB67JX
QMwdgsCWQY3BUuuPQBwa8D8Q+aTB6n2kQF2CSMAr86PB6oedQNaH5EB4RYnBRRepQF95WsCByZfB
a0zJQL/tFEEtiqzBpBTQQIU3McAyE5LBwWv2QJcNLcCqtK7BeQeIQDLpvkDIJY7BNAv7QJ9bUkAC
X4/B1PfaQDdd9j+7FIDB85d3QD62k0CI9qDBlISCQL5pP8CEbpLBIjMIQTjrML4dvrTBwvb0QBOr
Q8BGUZfBuZ/SQNpxUsDjEIjBaKHLQFMgtr9EGJHBMpHVQD3ZL0DetonBLaIWQQN4+0AuX5LBvQ/0
QLyK4kBiEYbBqzwNQc8pDkER0KPBy2qUQN4gBUG70ZzBxNZ5QHqAPL80FqHBbyvbQIwn5D+mMLDB
iJKbQMq2rD9PLY/BGvTLQPFbez+wW5bBFmLFQPT5mkDkV4HBoJeXQImTcEBd2IHB0QnFQO5JSUDO
R6DB7frAQIXspUD/ApXB7l9iQOghWkDQoZPBvUCxQBFDCUFUz7vBeGbUQFUL7kAKBbXBiXOeQEMl
9UBqY7DBgUzkQAcoJ0GV0rnBHvT5QP/4LUGV9KzB1ccEQWd5FUGMYLPBEN+bQM73K0HiGrPB5VmI
QAxhHUENuqfBDt2uQBdpMkE07qXBPt8dQHPkasDpXInBA1RFQCs0msCKP5PBG6aAQKr6kMDxNIfB
sh6KQLdjIECuCazBwz5iQLPlxj/Dk6HBk3GCQLYKTsCiEqbB5/O2QDNAecCZT6jBlMyrQJEB20BT
loHBPLiFQBff/UB554fBHzasQDgYkMDh15bB+IoIQeeJGcAnZbLBtBv+QPxiScBuy6fBCzZ0QHh4
yEBL8ZTBN19UQCIvqkBMWp7BziMGQcs7/0C0b5TBlcHrQCgL8UBDiY3B+eoAQWD2CEGdV57B+f+1
QOLkA0E1gprB4RebQGgHIr8aJqXB3FnQQIKVTD/2r63BSIbAQEyN9UD5h5DBnG3WQDR0C0HpeqHB
wBCpQPj0JT+4Q6jBSE60QKQv4r+zZqfBvErcQH7Szb/3oazB//3pQGi2pr5nzq/B8sy3QB6F5D+C
IJPBstWzQMA3hEB7VobB1aqoQGGILECVcZzBDr6kQFwkmkCnv5DBjtiLQPkodkDTJJjBDR7wQFZh
IEHME7LBDaClQPqQJUHkQKvBQaq6QFqJAkF627PB+oVTQLZefMCeZY3BxsaPQP8J7z8u6aTB/vKk
QJTjSMCYxKPBp3GdQOGJ5EBzT4nBoOqoQELOWMD1jJfB8xrKQNLhFEEdf6zBHJnQQCUlMcCT+ZHB
tqn2QP/mLMAorK7BKBWIQEzmvkDsNo7BYj37QHlHUkASYo/Bfh/bQCFL9z/wDIDB7iV3QGFTk0Bv
86DBfdSCQKXFOcDhTpLBKRMIQdgGLb4tx7TBnwH1QF7/RMBgV5fB8VvTQCNgUsBe+IfBlgnNQPKe
tb9tBJHBtL7VQOYFMEC5tYnBYLQWQcfJ+0DJIZLBBuLzQHWx4kCA8YXBBYkNQctKDkEknKPBMNiU
QPghBUHm3ZzB2eh5QBsjP7/8BKHBjL/aQA/G4z/tNrDBCcSbQIpyrD9ZH4/BwxrMQHEBez/fUpbB
9r7FQOpFm0D5a4HBiuqXQMk7cUCw1IHB1vfEQKbiSEAiS6DBrQLBQELjpUDZF5XBH65iQDTVWUDo
j5PBCovlQNa9JkFL2LnBAV77QB6dLUHHAK3B5y4FQSDtFEFvVbPBCkWdQAAaLEEeJ7PBsF2JQOfM
HUGRuafBEWSwQD2eMkHD/6XBiNGxQJ8WCUE/uLvBHInUQKaI7UC72LTB3ameQP9o9UDaPLDBFcAa
QPgcYMBfk4nBMzE/QEVBlcDTiZPBVlV6QAeyjsA1U4fBQcqJQE/EH0Bi+avBkSRiQKuqxT+4eKHB
HRWDQJmYT8AGBKbBYgC4QMO8ecCU8qfBc4GrQHkI20DZmYHB6JSFQELe/UCJ/IfBzMSqQOQ9j8C8
YZbBKZ0IQeklGcALY7LBDYT+QMkcScDhw6fB0ol0QAF2yED9BZXBavJTQB/QqUAsWJ7B

>  <OMEGA_E>  (10) 
2A8iPrALLz7wZQU+OOSpPnilrD4=

>  <OMEGA_NBR>  (10) 
     58954

$$$$
50216982
     RDKit          3D

 70 72  0  0  1  0  0  0  0  0999 V2000
    8.3519    8.0242  -18.5073 C   0  0  0  0  0  0  0  0  0  0  0  0
    7.3375    7.5562  -17.6555 C   0  0  0  0  0  0  0  0  0  0  0  0
    8.0233    8.6271  -19.7359 C   0  0  0  0  0  0  0  0  0  0  0  0
    5.6551    8.2809  -19.2682 C   0  0  0  0  0  0  0  0  0  0  0  0
    4.8784   -0.5683  -20.6514 C   0  0  0  0  0  0  0  0  0  0  0  0
    6.5413    0.7712  -21.8199 C   0  0  0  0  0  0  0  0  0  0  0  0
    5.9862    7.6891  -18.0316 C   0  0  0  0  0  0  0  0  0  0  0  0
    6.6664    8.7809  -20.1273 C   0  0  0  0  0  0  0  0  0  0  0  0
    5.3255    0.6793  -21.1124 C   0  0  0  0  0  0  0  0  0  0  0  0
    5.6455   -1.7283  -20.8643 C   0  0  0  0  0  0  0  0  0  0  0  0
    6.8771   -1.6381  -21.5590 C   0  0  0  0  0  0  0  0  0  0  0  0
    7.3108   -0.3866  -22.0504 C   0  0  0  0  0  0  0  0  0  0  0  0
    5.7812    1.7900  -18.4619 C   0  0  0  0  0  0  0  0  0  0  0  0
    5.6399    4.1157  -16.8297 C   0  0  0  0  0  0  0  0  0  0  0  0
    5.3208    2.7204  -19.6204 C   0  0  2  0  0  0  0  0  0  0  0  0
    5.1628    4.8181  -18.1197 C   0  0  1  0  0  0  0  0  0  0  0  0
    4.4028    3.8522  -19.0651 C   0  0  1  0  0  0  0  0  0  0  0  0
    5.8371    8.2633  -22.4482 C   0  0  0  0  0  0  0  0  0  0  0  0
    7.4577   10.1635  -22.1581 C   0  0  0  0  0  0  0  0  0  0  0  0
    5.1133   10.4063  -21.3231 C   0  0  0  0  0  0  0  0  0  0  0  0
    4.5632    1.9232  -20.7174 C   0  0  0  0  0  0  0  0  0  0  0  0
    5.1195   -3.0335  -20.3057 C   0  0  0  0  0  0  0  0  0  0  0  0
    4.8940    7.1224  -17.1448 C   0  0  0  0  0  0  0  0  0  0  0  0
    5.1475   -2.9928  -18.7602 C   0  0  0  0  0  0  0  0  0  0  0  0
    6.2809    9.3965  -21.4931 C   0  0  0  0  0  0  0  0  0  0  0  0
    4.2707   -4.1076  -18.1703 C   0  0  0  0  0  0  0  0  0  0  0  0
    7.6732   -2.7626  -21.7581 N   0  0  0  0  0  0  0  0  0  0  0  0
    4.2479    5.9470  -17.7834 N   0  0  0  0  0  0  0  0  0  0  0  0
    7.8783    3.3066  -17.9735 O   0  0  0  0  0  0  0  0  0  0  0  0
    6.8891    1.9179  -16.0747 O   0  0  0  0  0  0  0  0  0  0  0  0
    3.8817    4.6218  -20.1514 O   0  0  0  0  0  0  0  0  0  0  0  0
    8.4820   -0.2867  -22.7216 F   0  0  0  0  0  0  0  0  0  0  0  0
    2.9832   -3.9616  -18.5864 F   0  0  0  0  0  0  0  0  0  0  0  0
    4.7368   -5.3219  -18.5631 F   0  0  0  0  0  0  0  0  0  0  0  0
    4.3028   -4.0263  -16.8164 F   0  0  0  0  0  0  0  0  0  0  0  0
    6.7122    2.7494  -17.2716 S   0  0  0  0  0  0  0  0  0  0  0  0
    9.3875    7.9210  -18.2184 H   0  0  0  0  0  0  0  0  0  0  0  0
    7.5933    7.0950  -16.7130 H   0  0  0  0  0  0  0  0  0  0  0  0
    8.8105    8.9763  -20.3876 H   0  0  0  0  0  0  0  0  0  0  0  0
    4.6191    8.3542  -19.5643 H   0  0  0  0  0  0  0  0  0  0  0  0
    3.9363   -0.6387  -20.1280 H   0  0  0  0  0  0  0  0  0  0  0  0
    6.8828    1.7285  -22.1851 H   0  0  0  0  0  0  0  0  0  0  0  0
    4.9005    1.3496  -17.9715 H   0  0  0  0  0  0  0  0  0  0  0  0
    6.4161    0.9872  -18.8648 H   0  0  0  0  0  0  0  0  0  0  0  0
    6.1930    4.8309  -16.2033 H   0  0  0  0  0  0  0  0  0  0  0  0
    4.7702    3.7367  -16.2730 H   0  0  0  0  0  0  0  0  0  0  0  0
    6.2103    3.1824  -20.0735 H   0  0  0  0  0  0  0  0  0  0  0  0
    6.0422    5.2092  -18.6524 H   0  0  0  0  0  0  0  0  0  0  0  0
    3.5805    3.3872  -18.5016 H   0  0  0  0  0  0  0  0  0  0  0  0
    5.5608    8.6917  -23.4229 H   0  0  0  0  0  0  0  0  0  0  0  0
    6.6651    7.5516  -22.5821 H   0  0  0  0  0  0  0  0  0  0  0  0
    4.9700    7.7403  -22.0185 H   0  0  0  0  0  0  0  0  0  0  0  0
    7.1278   10.5781  -23.1220 H   0  0  0  0  0  0  0  0  0  0  0  0
    7.7811   10.9821  -21.4983 H   0  0  0  0  0  0  0  0  0  0  0  0
    8.2978    9.4730  -22.3244 H   0  0  0  0  0  0  0  0  0  0  0  0
    4.8523   10.8340  -22.3024 H   0  0  0  0  0  0  0  0  0  0  0  0
    4.2382    9.8877  -20.9046 H   0  0  0  0  0  0  0  0  0  0  0  0
    5.4223   11.2126  -20.6417 H   0  0  0  0  0  0  0  0  0  0  0  0
    4.4364    2.5630  -21.6031 H   0  0  0  0  0  0  0  0  0  0  0  0
    3.5753    1.6314  -20.3314 H   0  0  0  0  0  0  0  0  0  0  0  0
    4.0853   -3.1865  -20.6480 H   0  0  0  0  0  0  0  0  0  0  0  0
    5.7495   -3.8625  -20.6603 H   0  0  0  0  0  0  0  0  0  0  0  0
    5.3335    6.8141  -16.1847 H   0  0  0  0  0  0  0  0  0  0  0  0
    4.1348    7.8986  -16.9681 H   0  0  0  0  0  0  0  0  0  0  0  0
    6.1830   -3.1271  -18.4144 H   0  0  0  0  0  0  0  0  0  0  0  0
    4.7702   -2.0179  -18.4180 H   0  0  0  0  0  0  0  0  0  0  0  0
    8.4959   -2.5037  -22.2642 H   0  0  0  0  0  0  0  0  0  0  0  0
    7.9339   -3.1473  -20.8726 H   0  0  0  0  0  0  0  0  0  0  0  0
    3.8143    6.2554  -18.6301 H   0  0  0  0  0  0  0  0  0  0  0  0
    3.3227    5.3110  -19.8122 H   0  0  0  0  0  0  0  0  0  0  0  0
  1  2  2  0
  1  3  1  0
  2  7  1  0
  3  8  2  0
  4  7  2  0
  4  8  1  0
  5  9  2  0
  5 10  1  0
  6  9  1  0
  6 12  2  0
  7 23  1  0
  8 25  1  0
  9 21  1  0
 10 11  2  0
 10 22  1  0
 11 12  1  0
 11 27  1  0
 12 32  1  0
 13 15  1  0
 13 36  1  0
 14 16  1  0
 14 36  1  0
 15 17  1  0
 15 21  1  0
 16 17  1  0
 16 28  1  0
 17 31  1  0
 18 25  1  0
 19 25  1  0
 20 25  1  0
 22 24  1  0
 23 28  1  0
 24 26  1  0
 26 33  1  0
 26 34  1  0
 26 35  1  0
 29 36  2  0
 30 36  2  0
  1 37  1  0
  2 38  1  0
  3 39  1  0
  4 40  1  0
  5 41  1  0
  6 42  1  0
 13 43  1  0
 13 44  1  0
 14 45  1  0
 14 46  1  0
 15 47  1  6
 16 48  1  6
 17 49  1  1
 18 50  1  0
 18 51  1  0
 18 52  1  0
 19 53  1  0
 19 54  1  0
 19 55  1  0
 20 56  1  0
 20 57  1  0
 20 58  1  0
 21 59  1  0
 21 60  1  0
 22 61  1  0
 22 62  1  0
 23 63  1  0
 23 64  1  0
 24 65  1  0
 24 66  1  0
 27 67  1  0
 27 68  1  0
 28 69  1  0
 31 70  1  0
M  END
>  <OMEGA_C>  (11) 
haEFQTBjAEHxDpTBJM3qQMfM8UBhPo3BV18AQbAICkEo453Bava0QLZ+BEE6JZrB8BucQKl7Eb/6
NaXBEFLRQJdvRT8kj67BEY+/QA0N9kCgQJDBI1PVQJV+DEHFBKHBWmqqQLfjLT825qjB96e0QAQ5
3b8G6qbB8hDcQC6u0b/feKzBH/LpQO/pxb4xZ7DBRv+4QHUd5T/tsZPBx3m0QKyzg0BIo4bB1UOq
QBcbLkCJ9pzB0DWlQEAumkAt9ZDB7+OMQNCKdkBjhZjBy8m6QGc2BEHolbPB2KXuQIadIkG3Q7HB
i6CjQBaAJkHNlarBdAWSQGsq9j80vaXBrNKjQAAlQsAFcqLBT5ucQKHq40CIKInBGrikQICKP8Do
FJbB3fzIQDVYFkHk8avB9qmIQBJxg8C+XJHB6Yr1QD7OMMCOEK7Bse6HQJdNvkBdRI7Bvhr8QJKe
U0CuyY/BanPcQEt89T/5mIDBmm14QDDmk0D+NaHBKrYHQc7Mkr7cxbXB9uw+QCmLfcD3sJTBppOX
QPVMqsAwgZTBorCJQA3XgMD6h4bBHcrWQMT2L0BGLIrBAjMWQdN4/UBXv5HBrvzyQEAK40A8tIXB
9vcMQfyeD0HLGaPBSs+TQOmqBUGng5zB2Ox7QHeEI78aBqHBsz/cQFVA3T8Ne7HBztCcQDLArD+M
xY/BAFHNQBm5fD8x65bBJC3GQBmXmkBToIHBFqWYQLgmb0ABL4LB77rGQIOsS0BulqDBvFnBQGax
pkAxOJXBsiZlQODHWEBfA5TB2vGxQDwRC0EhYrvBkkjVQIqm8UAwqLTBMQqfQN6w90D6JbDBvRbk
QA9AKUHY+bjBsP74QKO2L0GE/KvBnMMEQW+RF0FOmLLB2EWbQN5XLUFOa7LBd5+HQNEzHkGgPKfB
2YOtQJ1mM0EbIqXBFveNQNAHJEBA06zBh9FkQHzR0D/CpqLBGLuCQIHvS8ARL6XBIvy3QD0zd8Bj
SKXBGKyqQEYN2kBGeoHBclCEQEzB/ECyvofBfNvFQBsjSMDFUJPBeqWYQHYkAcAjWJPBTu8HQVs9
IMAMHbLBpuL9QOxsScAg+6bBfR10QEYsyEBeCpXBdaZUQPTzqUBvf57BJQ4GQYH2/0BSaZTBQuTr
QNEx8UBef43BXp8AQbuACUFUP57BgJe1QLcPBEGyTprB++6cQAy7Eb84cqTBOADOQG63Rz+tC6/B
U4vAQMxx9UCHaJDBTrXVQCPqC0FSSqHBdXuoQHpvKz+G36jB0ny3QK4G2r/TzaXBRjzcQIiKzL99
W6zBD3PnQECQtr4f7bDBFI+3QBa14j//lZPBBgK0QNgXg0DDjIbBruCoQBDkLECi3pzBUxWlQP/D
mUBZ35DBpTuMQMeCdkBwb5jBHyq5QMmGA0G4qbPBEaruQFtSIUEIz7HBdXqkQAtJJkF2vKrBCviP
QMUO9D8/kqXB2aKwQNXfPsAMXp/Bq9KdQK3G40C9LInBEaeGQO0oQMB04JjBTunIQMCmFUEJNazB
bvmFQEIAhcAZ2ZDB0172QLcrLcB0Dq7BJm2IQO9cvkDALo7BTzD7QOAkUUBByY/BQIPbQA3P8T+M
i4DBzGV4QDszlECsJKHBYtwFQeEVdb6uwrbBcEuSQAdkqsALepXB48GgQDn5dsDxmojBfgQ7QE4N
icASEI3B1djVQIExLkBkHYrBEKoWQYKx/ED0K5LBR1j0QDuY4kD39IXB0R8NQY4HD0GBiKPBl1mU
QK4+BUF4mJzBtQt/QGphKL/e9p/B2jzXQF4+3j9QVbLB1lKbQF+eqz/CnY/B947LQIAMdj990ZbB
/+rFQGPAmUD/hIHBSgaYQLlxbkDIHILBMW7FQK1lSUBBlaDBR2rBQArOpUDdI5XB+yJjQPrgWUAQ
8ZPBAv2vQLlPCkG0c7vBJP7SQIKU70DGzrTBGVGdQLMr90BqB7DB+b7jQJflJ0FsgLnBWx36QGhq
LkEcrKzByG8EQVTqFUFvN7PBzsGbQGkNLUHIj7LBfGOIQDZoHkFwL6fB/HivQLouM0GTaqXBED+L
QLAwI0CznKzBH1BhQM2zzT8cWKLB+TywQJ5BdcB29KTBlozLQKYaRsCXxJnBsjusQAjS2UCfioHB
mOaFQNbm/ECPr4fB8omDQPZZA8DggpTBwxpXQAxqR8BCa57B4lMHQbvdHMDT2bLBYPMAQRW5QcDP
DKfBPfd0QGxFyECa8ZTBUnxVQKWiqkAMc57BDRsGQXKe/0AleZTBOQDsQBL58ECCiY3BTKgAQTlw
CUFxSJ7Bkaq1QG44BEHrRZrBR7idQNWME79RJKTBcpvNQJATQz8YJK/BLqLAQP+T9UB/ZpDBzcPV
QOUEDEGDRqHBy6KoQJgpKD8Xw6jB9+u3QHqa278wpKXB+yDcQJC3zr97ZqzBNfHmQHiUwL7/FLHB
ZY23QKda4z/gfJPB2Ae0QIZ7g0A9iobB6dKoQNvCLEB1zpzBpPmkQBn1mUBy4JDBZx2MQByIdkDD
Z5jBIXDuQJPCIUEHtrHButSjQBMBJkE3yqrBKyO6QI92A0E2srPBfAeQQD2W8j8qeqXB6eyxQJWA
PsDI6Z7BOdqdQMD+40CVK4nBIXyFQBW1RcBrnZnBQ/HIQHC2FUHxMqzBDLGDQGsCiMA+pZHBCTn2
QDkxLsBvMa7BSF+IQGWdvkAKMI7B5yr7QI2ZUUANxo/BN5LbQPfz8z8md4DBGhJ4QKwNlEChIqHB
cGEFQa5nhr50GLfBdwWWQNjyq8Ast5XBzlyYQGbseMB6g4jB4QY0QAXzj8DrYI/B19vVQO7iLkDq
EIrBr7gWQe0W/EBZRZLBgnn0QG4z4kDZBIbBHycNQaLqDkHOlaPB/2eUQAmFBUFgh5zBdfuAQG4l
KL/GYp/Bk4XWQIqD2z+yirLBIlabQCSTrD8qfo/BB4zLQPrVdj+vsJbBCfrFQApAmkB1jIHBvxmY
QOJbb0AEEoLBEVrFQLQ8SUAOiaDBj0LBQDD0pUDbK5XBf/diQOr9WUDn45PBcoPjQN1JKEHSabnB
DEP5QG3rLkEniKzBH4wEQdiZFkGoFrPB4CObQIK6LEFuoLLBwemHQDPZHUHLT6fBBCeuQHP5MkEq
bqXBRe6wQGsuCkFSf7vBjnTUQN7470DyzLTBnn+eQDR69kDWHrDBZTSLQKkuIkDbiazBWYdhQGIC
zD9RO6LBI4y2QLR6dsCQH6TBKlPKQK62PsAHkpjBdzisQEEA2kAAiYHBn/yFQFIt/UAar4fBhfJ8
QIOyCcBTXJXBEJFaQA4rUMCo3p/BHQcHQR32HcCOIbPB7jIBQXxbQsDGPKfB/e10QLuPyEAt85TB
ux1VQJqCqkAadp7BeTQFQRK2AEHbGZTBQiLqQJsj8kCKRo3B7aT/QB9nCkEX553B+vuzQEGTBEH1
HZrBtrKbQG8ZD79ylqXBf6XTQL+zRD95Dq7BCNS+QHY19kCYPZDBbyfUQLK0DEHKAaHBZsqrQEBP
MD8C1ajBGkazQGC13r8LWafBDd7bQJjp078MbazBCJPrQDKczb4F4a/BVUa5QEGJ5T+Kq5PBVciz
QONPg0DVhobBMj6rQLrNLkBc9pzBUTulQFskmkBJ3ZDBj5aNQCMvd0DkopjBYla5QO0yBEEvgrPB
SQvtQGi2IkFCVbHBkxuiQGGPJkEamKrBN5iTQDWt+D8u3qXByi6eQAo4RcB9vKTB7BacQILR40CP
H4nB2NGOQJZUTMDS+pjBxo3HQFVyFkFo8KvBDu2yQA2DZcDtQZHByZT0QNS8MsDiJ67Biq6HQO8T
vkA6Oo7BYP37QF4vVECehI/BLwHcQEtD9D/cfIDBaRh8QJyelED0Y6HBXeEIQahnob4q9LTBYcDA
QGDgmsBcqJPBiDjUQJWPLcCf35HBRuWiQERLZcAkKYfBpYvWQDXTL0BOB4rBV8wVQRtK/kD00ZHB
ZYLyQPFH40DUwoXBKlkMQV8lEEGrHaPBqMmSQKalBUGadZzBvMZ5QCUXHb+rsqHBZdDfQJfc3D95
qLDBHc+cQMNWrT8R3o/BmLTNQKRefT9J1pbB0v7EQJUOmkDHXoHB+6uXQMy/bUA1PYLBWP7HQOxl
TECYcKDB16rBQM3opkDv85TBWGllQG1uWUCGV5TBAUuwQPTxCkHIULvBzeTTQJCx8UAalLTBgbed
QGml90BHA7DBGEziQHFEKUGeC7nBC3D3QGreL0HTGKzBYPkDQUavF0FrrLLBy52ZQFROLUGhcLLB
FjKGQE1BHkHPM6fBSPurQLWIM0EyL6XBjo+QQAc5JUDY/azBmBdnQPgo1T/W+6LBsl2CQGqaTcCm
BqrBlIO1QPCDeMAQQabBVE2qQFAM2kC0c4HBMZ+DQPZ3/EBdsYfBstKBQCIGDsAYfJbBLf1qQGkZ
fcCfipjBEO4HQdZJIsA+zLHBNT37QDt2TsDfI6fB+LRzQFXOx0AHBZXBXPJXQAquqkA1wp7B6VUF
QaqmAEEEHJTBm1/qQIbo8UB+To3BLPL/QE1qCkE35Z3B/0O0QK2NBEGRI5rBNDSbQAotD78ksKXB
1CvTQMitRj++Eq7B9hO/QG8O9kDgRZDBzHfUQGepDEHMBaHBbDerQG7MMD/y4qjBgMeyQD8T3r9u
jafBzLjbQKi90r+bb6zBJGzrQDWOx74r1K/BLA65QDfz5D8JupPB/E60QJlbg0DKm4bBYeCqQAeT
LkDB/pzBCWSlQNQVmkBF7pDBMmeNQPn1dkD2nZjBc/ftQGeWIUESqbHBrrKkQLLrJ0HqQ6rByTO2
QOnPBEGcSbPBrfWSQL1W+D8t26XBaOOdQNmIRMC30qTBglOcQMW440AmKInBJRqUQHRiTsAywZjB
s8LHQGqiFkGM5KvBvFW8QJZfYMAWB5LBOcf0QKr3McCs+q3BPeOHQG4GvkD1Qo7Bqiz8QJ/lUkBL
qo/Bv//bQMcc8z/slYDBPNV6QORmlEBEV6HBnfgIQShyl76ZvLTBvJTQQLKnk8C7x5XBx8DXQCjB
HMB5PJLB3rmvQNuzbsCvyofBq6nWQP5AL0B9IYrBpOwVQVck/kCm0pHBdbnyQLzn4kD2zoXBW4EM
QbRBEEHXE6PBMxKTQNuuBUHweZzBPvh4QHtWHr8EwqHBWSnfQPQC3j9HsrDBX6ScQKIbrT8g4Y/B
FlLNQGOxez+J7ZbBoeXFQM0cmkDgiIHB3VGYQMNjbkAVOYLBLZHHQFQRTEBHhKDBQqvBQDjNpkC+
GJXByndlQIJBWUA5PJTByAXjQGVaKEFHT7nBTrv6QPp2LkHAlKzBvZoDQSazFUE8LLPB9fmbQNLe
LkH1DLLBP0eIQGaOIEHAmqbBJ/ywQICWNEH1+6TB6ROtQDHEC0H+CrvB8w3PQIsx8UCwhrTBF/+Z
QLTN+kAkjK/BZ5aPQJolJUBD9qzBnxpmQPpB1D8S56LBhGN/QLfNScBYTKnBRpyzQEVieMDYQqfB
HoaqQLru2UA9fIHBnuODQBJn/EAIuofB+UuFQFrWEsAV3pXBHiR7QKfngcAms5fB2iQIQSBoIcC3
gLHBrff6QJw1TcBM6KbBEgB0QDzMx0DNCpXBz+NWQFd4qkBkq57Bs44FQTF7AEGXMJTBst7qQFDT
8UAWVo3BeigAQe8SCkEOA57B+Km0QLlQBEGlMJrBTAacQPJUD7+cRqXBfILRQJ5DRz+Mi67BXo2/
QFzZ9UAPS5DBpNLUQJNeDEFNHKHB1neqQNL0Lz/X76jBJGe0QPVI3L+lCKfBMgrcQNfl0L/ue6zB
gB7qQHnLwr4GX7DBrKK4QPN25D90tJPB4hq0QPstg0C0kYbBwjuqQKoyLkC09pzBqimlQNH5mUDC
35DBYPKMQCbcdkCji5jB7tHtQKRNIkHfdLHBHhOjQI5pJkEypKrBzJi5QDQCBEHJnbPBFxeSQGI9
9z+ByaXBIHSjQEd3QcCik6LBQNmcQJC/40CTHYnBvL2nQEGgQcC5Q5bBljnIQJIoFkFeCazBtg+K
QHmggsBGT5HBfnz1QAaOMMBFAq7BivuHQC0kvkA7K47B3MP7QJ/qUkAmvo/BRBXcQNHQ8j9NnYDB
Y+l5QABwlEDWP6HBHdYHQZqRkL7rtbXBDPdAQGShcMABRpPBmKuSQOjGqcBUh5XBgFeQQHS8g8B7
k4bBTHDWQMMVL0BaJorBvCcWQRLe/UD96ZHBCUfzQDkd40BVzoXBh60MQbK/D0FmP6PB1XSTQBhi
BUHohZzBkNR7QFrtIL8BEqHB1YzcQI4q3j+mcLHB3k+cQKuerD8K0Y/B29jMQDa2ej8z7ZbBQrXF
QMfhmUDYe4HBySSYQAznbUAbL4LBWNrGQMyOS0DZiaDBjnbBQOGCpkCVEJXBHJFkQJxXWUBKJJTB
1RLjQGTlKEErKbnBOHL4QFVsL0EQOqzBA0gEQekvF0ET0bLB14qaQGo0LUFxebLBlxiHQHo2HkFK
OKfBuEGtQHFWM0H8PKXBJ5OwQKTUCkGUaLvBxPDTQI8X8UBTuLTBvd+dQH1590DoG7DB1D6OQMTD
JEDe3KzBYMVkQHIY0j/ov6LByI2BQGOPSMAwxqTB6um1QNsYd8BZ7KXBZDCrQG3m2UAgd4HBU56E
QMeZ/EDFpofBbA7JQNQ2UMAGFpTBoAufQFcaAsDjJ5PBdgEIQb0gIMAr/LHBIXz9QBY7ScBH56bB
TvBzQHj2x0DM7ZTBqDlWQM2SqkAwj57B

>  <OMEGA_E>  (11) 
sAg/PqCxVD5gAlU+bEqCPkgMiz7A5z4+

>  <OMEGA_NBR>  (11) 
     65886

$$$$
50216810
     RDKit          3D

 71 73  0  0  1  0  0  0  0  0999 V2000
    8.1706    8.1904  -18.2421 C   0  0  0  0  0  0  0  0  0  0  0  0
    7.1365    7.7098  -17.4208 C   0  0  0  0  0  0  0  0  0  0  0  0
    7.8795    8.7143  -19.5159 C   0  0  0  0  0  0  0  0  0  0  0  0
    5.5095    8.2705  -19.1506 C   0  0  0  0  0  0  0  0  0  0  0  0
    4.8299   -0.7953  -20.0725 C   0  0  0  0  0  0  0  0  0  0  0  0
    6.2473    0.6996  -21.3813 C   0  0  0  0  0  0  0  0  0  0  0  0
    5.8024    7.7549  -17.8714 C   0  0  0  0  0  0  0  0  0  0  0  0
    6.5401    8.7702  -19.9854 C   0  0  0  0  0  0  0  0  0  0  0  0
    5.1197    0.4963  -20.5574 C   0  0  0  0  0  0  0  0  0  0  0  0
    6.8144   -1.6668  -21.1987 C   0  0  0  0  0  0  0  0  0  0  0  0
    5.6829   -1.8795  -20.3855 C   0  0  0  0  0  0  0  0  0  0  0  0
    7.0917   -0.3800  -21.7031 C   0  0  0  0  0  0  0  0  0  0  0  0
    5.5762    1.8084  -17.9380 C   0  0  0  0  0  0  0  0  0  0  0  0
    5.5336    4.2931  -16.5658 C   0  0  0  0  0  0  0  0  0  0  0  0
    5.0739    2.6083  -19.1697 C   0  0  2  0  0  0  0  0  0  0  0  0
    4.9841    4.8679  -17.8919 C   0  0  1  0  0  0  0  0  0  0  0  0
    4.1917    3.8127  -18.7150 C   0  0  1  0  0  0  0  0  0  0  0  0
    3.8130   -4.1260  -18.4392 C   0  0  0  0  0  0  0  0  0  0  0  0
    6.2831   -4.0836  -17.8856 C   0  0  0  0  0  0  0  0  0  0  0  0
    7.4017    9.9615  -22.1122 C   0  0  0  0  0  0  0  0  0  0  0  0
    5.0980   10.4257  -21.2527 C   0  0  0  0  0  0  0  0  0  0  0  0
    5.6456    8.1758  -22.2678 C   0  0  0  0  0  0  0  0  0  0  0  0
    4.2732    1.6765  -20.1213 C   0  0  0  0  0  0  0  0  0  0  0  0
    4.6869    7.2093  -17.0017 C   0  0  0  0  0  0  0  0  0  0  0  0
    5.1191   -3.3268  -18.5514 C   0  0  0  0  0  0  0  0  0  0  0  0
    6.1853    9.3266  -21.3836 C   0  0  0  0  0  0  0  0  0  0  0  0
    7.6709   -2.7264  -21.4833 N   0  0  0  0  0  0  0  0  0  0  0  0
    4.0623    6.0089  -17.6166 N   0  0  0  0  0  0  0  0  0  0  0  0
    7.7015    3.3515  -17.7436 O   0  0  0  0  0  0  0  0  0  0  0  0
    6.8256    2.1871  -15.6488 O   0  0  0  0  0  0  0  0  0  0  0  0
    3.6646    4.4763  -19.8666 O   0  0  0  0  0  0  0  0  0  0  0  0
    5.4136   -3.1638  -19.9578 O   0  0  0  0  0  0  0  0  0  0  0  0
    8.1785   -0.1738  -22.4828 F   0  0  0  0  0  0  0  0  0  0  0  0
    6.5786    2.8825  -16.9179 S   0  0  0  0  0  0  0  0  0  0  0  0
    9.1927    8.1577  -17.8947 H   0  0  0  0  0  0  0  0  0  0  0  0
    7.3643    7.3062  -16.4452 H   0  0  0  0  0  0  0  0  0  0  0  0
    8.6816    9.0768  -20.1417 H   0  0  0  0  0  0  0  0  0  0  0  0
    4.4872    8.2849  -19.4986 H   0  0  0  0  0  0  0  0  0  0  0  0
    3.9547   -0.9574  -19.4607 H   0  0  0  0  0  0  0  0  0  0  0  0
    6.4630    1.6855  -21.7659 H   0  0  0  0  0  0  0  0  0  0  0  0
    4.7152    1.4458  -17.3573 H   0  0  0  0  0  0  0  0  0  0  0  0
    6.1783    0.9517  -18.2748 H   0  0  0  0  0  0  0  0  0  0  0  0
    6.1210    5.0647  -16.0467 H   0  0  0  0  0  0  0  0  0  0  0  0
    4.6953    3.9786  -15.9267 H   0  0  0  0  0  0  0  0  0  0  0  0
    5.9461    2.9998  -19.7139 H   0  0  0  0  0  0  0  0  0  0  0  0
    5.8303    5.2215  -18.4992 H   0  0  0  0  0  0  0  0  0  0  0  0
    3.3721    3.4271  -18.0909 H   0  0  0  0  0  0  0  0  0  0  0  0
    2.9976   -3.5664  -18.9209 H   0  0  0  0  0  0  0  0  0  0  0  0
    3.9345   -5.0988  -18.9380 H   0  0  0  0  0  0  0  0  0  0  0  0
    3.5710   -4.2857  -17.3781 H   0  0  0  0  0  0  0  0  0  0  0  0
    7.2062   -3.4926  -17.9785 H   0  0  0  0  0  0  0  0  0  0  0  0
    6.0556   -4.2430  -16.8213 H   0  0  0  0  0  0  0  0  0  0  0  0
    6.4191   -5.0562  -18.3811 H   0  0  0  0  0  0  0  0  0  0  0  0
    7.0852   10.3368  -23.0966 H   0  0  0  0  0  0  0  0  0  0  0  0
    7.7948   10.7949  -21.5113 H   0  0  0  0  0  0  0  0  0  0  0  0
    8.1869    9.2025  -22.2444 H   0  0  0  0  0  0  0  0  0  0  0  0
    4.8499   10.8174  -22.2502 H   0  0  0  0  0  0  0  0  0  0  0  0
    4.1958    9.9959  -20.7930 H   0  0  0  0  0  0  0  0  0  0  0  0
    5.4772   11.2431  -20.6218 H   0  0  0  0  0  0  0  0  0  0  0  0
    5.3915    8.5664  -23.2642 H   0  0  0  0  0  0  0  0  0  0  0  0
    6.4155    7.3962  -22.3651 H   0  0  0  0  0  0  0  0  0  0  0  0
    4.7461    7.7466  -21.8021 H   0  0  0  0  0  0  0  0  0  0  0  0
    3.9651    2.2472  -21.0098 H   0  0  0  0  0  0  0  0  0  0  0  0
    3.3806    1.3057  -19.5961 H   0  0  0  0  0  0  0  0  0  0  0  0
    5.0993    6.9355  -16.0194 H   0  0  0  0  0  0  0  0  0  0  0  0
    3.9194    7.9868  -16.8733 H   0  0  0  0  0  0  0  0  0  0  0  0
    4.9932   -2.3486  -18.0643 H   0  0  0  0  0  0  0  0  0  0  0  0
    8.4161   -2.4055  -22.0679 H   0  0  0  0  0  0  0  0  0  0  0  0
    8.0482   -3.0881  -20.6308 H   0  0  0  0  0  0  0  0  0  0  0  0
    3.6507    6.2873  -18.4843 H   0  0  0  0  0  0  0  0  0  0  0  0
    3.1272    5.2099  -19.5916 H   0  0  0  0  0  0  0  0  0  0  0  0
  1  2  2  0
  1  3  1  0
  2  7  1  0
  3  8  2  0
  4  7  2  0
  4  8  1  0
  5  9  2  0
  5 11  1  0
  6  9  1  0
  6 12  2  0
  7 24  1  0
  8 26  1  0
  9 23  1  0
 10 11  2  0
 10 12  1  0
 10 27  1  0
 11 32  1  0
 12 33  1  0
 13 15  1  0
 13 34  1  0
 14 16  1  0
 14 34  1  0
 15 17  1  0
 15 23  1  0
 16 17  1  0
 16 28  1  0
 17 31  1  0
 18 25  1  0
 19 25  1  0
 20 26  1  0
 21 26  1  0
 22 26  1  0
 24 28  1  0
 25 32  1  0
 29 34  2  0
 30 34  2  0
  1 35  1  0
  2 36  1  0
  3 37  1  0
  4 38  1  0
  5 39  1  0
  6 40  1  0
 13 41  1  0
 13 42  1  0
 14 43  1  0
 14 44  1  0
 15 45  1  6
 16 46  1  6
 17 47  1  1
 18 48  1  0
 18 49  1  0
 18 50  1  0
 19 51  1  0
 19 52  1  0
 19 53  1  0
 20 54  1  0
 20 55  1  0
 20 56  1  0
 21 57  1  0
 21 58  1  0
 21 59  1  0
 22 60  1  0
 22 61  1  0
 22 62  1  0
 23 63  1  0
 23 64  1  0
 24 65  1  0
 24 66  1  0
 25 67  1  0
 27 68  1  0
 27 69  1  0
 28 70  1  0
 31 71  1  0
M  END
>  <OMEGA_C>  (12) 
67oCQd4LA0HM75HBeF7kQIS29kDIXYvBmST8QJttC0GbIJzB202wQAlUBEFlNJnBUo6aQJSaS799
lKDB/enHQDoXMz8ADavBgq25QEAo+ECY+I7BfUjRQKJSDEEI4p/B1NSjQAgV/j6cdaTB3A/aQJxY
1b/zlqnB+Nm1QAqS8L+MFaPB8u7iQIiUwr7hn63B+W+yQCR65z8DgY/BEhOxQOhgiUDGhoTBqV2i
QDnuJkCgW5nB432fQKPFm0CDIo/BVCKGQI4CdEBhuJXBxAd0QAcIhMBvg5PBSw/JQNCsgsCwFY/B
39rsQHNiH0HJ5bDBpyKjQJfPJkGfBarBbai0QObPAkFnJLLBsb2IQAiZ1j98+KDB0/qVQLmy5kBi
A4jBn8+jQAPrVMA1aZTBBe7FQKI5FUGjEavBz3f1QFJ9LsDT3avBVf6BQMtIwEDB7ozBg3L2QKd/
VkDj8o3BH2vaQML4C0BMYXrBbIhqQBI+j0DR7p7BkDytQGl8SsCmqZ/BPtsCQagDMr7Y3LPBuYPS
QNt6OEDcV4fBVxUTQR+GAkFNKI/B+6frQMvM6UDZj4PBq+cKQaM6EUE0IqHBLJePQN2OBEET/ZvB
Uxp9QO4Ydb+Yr5vBhtDOQPC91z+PIK7BweKWQEgQuT+724rBsrTFQGmgcz+1MpLBcd/DQAcSokCT
X4DBMECWQNWgfkDZ037BSka+QHz8P0AHtp3B35G6QJ0Wp0Br/pPBr89XQK1VW0AoupDB2dg/QBVA
ZMAFXpfB9M57QKMpo8DzgJfBsYpkQBckicBMBovBQJnmQOuGX8AN1I/BOsfBQLzGh8DukYbBW2nN
QEjMocCUDJPB7bniQI9jJUHHxbjB0G75QMG3LEEoF6zBXv0CQZs9E0GS9LHBpDKbQCEULUGDALLB
HkSGQCLvH0ENWKbB0USvQLrjM0F/+aTBMIesQAsQCUEPHbrBGkzNQOqt7ECw67LBZuCXQF3k90Cc
aq7Bx8N9QLrSD0AXFKjBSVxYQBghpz/MxJzBpC2jQJbv3UCkJ4DBc9d6QAeU/0B2/IbB+8efQI9P
FsDJg5DBWagGQW30GcD4irDBXsUAQaejRcDaC6XBlKRpQPcxyUDy35PBoiNIQDm3pkCju5zB320C
QStgA0EzqZHBpofjQCZN90BzLYvBwPP7QH2xC0EK45vBZAmwQE92BEHgLJnBrB2bQE8+T7+YY6DB
kCzIQGuFLz868arBTQC5QICQ+EAz547BykbRQMx2DEEVxp/BfFKkQB459z4kRqTBoQLaQCme17+i
pKnBJCe2QNfN8r8cAqPBpO7iQCmVyr62oa3BJt6yQEHQ6D/VYI/BywaxQPfziUBWgoTBZK2iQEHg
JkDJRZnBbV2fQN0JnEATJY/Bf0KGQLTuc0CQspXBxURvQEDGgsAF35PBTDTGQCWphcCh/Y7B/cm1
QG3ZAkFAJrLBEHbtQPugH0G/s7DBxFejQPrEJkEWDKrBFyWJQCvo1D8ezqDBVhWVQPrw5kD7CojB
CMOiQIaLVsCYbpTBxmfGQCdOFUHBAKvB/g31QF/QL8BXGKzB/I6BQHViwECCAY3BJpD2QOEnWEDZ
5o3BrtLaQA/sDUDyLnrBTaBqQMDsjkDs8J7BSbqtQB3US8AhmZ/BBMACQbKwQb6w8bPB37/SQNns
OUBbRYfBDbgSQfntAkFqyY7BnoLqQPh46kDSWIPBreYKQV6KEUH90aDBq3KPQOihBEHgDJzBSbp+
QB5SeL8JZ5vBtRnPQDId1j9i/a3BSl+XQOxMuj89t4rBt0nGQCORdj9uBpLBtanDQNDVokCoYYDB
6z+WQFKkf0Bix37BuoG+QFvmP0ACqZ3Bj2K6QFNzp0CRApTBUB9YQK44W0CKspDBr609QCq2XsAv
zZfBMKt0QPDTocCi9ZfBm7NdQG/6h8AOc4vBLLrkQNp7aMA3fY/BNt29QG7hisCgiobBAVnJQO+6
pMA0DZPBEQeuQM4XCUEeJbrBLqTOQH/t7EAK2bLB0+SYQNe/90DZh67BRKjjQK2TJUEHnbjBrIn5
QDEGLUGl26vBkW0DQYCYE0FIq7HByq6bQGkGLUHrC7LBtmaGQHbKH0EhdKbBGxOvQP/gM0Hr9aTB
Mx5+QLZ6DkDK7qfBO3NZQPJMpT/KjJzBnvahQMpN3kCaJIDBVKp4QNWu/0D+GIfBE/GfQKAPGMCM
cJDBFFYGQZpFG8DY17DBNL0AQRKPR8CxWKXBqSdpQBo1yUA8+pPB6wdIQPlfpkB/xpzB4nQCQcmI
AkHdMpHBPuvjQNqD9ECXx4rB5IT7QPyNC0FyP5vBVs+vQGDaA0HUgJjBiLiZQDh5Fb/2+6DBDjjD
QFCEJz/oKa7BUkG5QLwF9kDAZY7B6q7QQH16DEFaBJ/B3xChQMhPFz8hzabBEyfXQIqw0b+NkanB
2g+2QH131L9AyKHBsn/dQGaA8r5Bxq/BMw20QJVY4z80r5HBooSxQJUphUAMT4XB1I+jQC4TKkAQ
HZvBTAagQPP7mUA8oo/Bt/+GQG6/c0B+uZbBuYTOQMW7ksC4f5LByaqBQC0IhsCiJpjBTk+1QFkS
BEHKibHBaMzrQH1KIUHmjq/BP3qhQKcdJ0Hwt6jBPWOJQFH46j/2d6PBXbyVQKct40CJnYfBAeSw
QNbTd8A4f5rB3ELFQI0cFkGxC6rBNsrzQGqiLMB1karBHRiCQIGJvUCI7ozBVo/3QD48VEA4/Y7B
I/TaQLRgAECXBH7BY49qQLpEkUCxf5/BAsG3QPdYHsAR85jBCA7/QKdgyb66mrbBEmDTQOw2MkC9
yYjBts0SQT75AUGAaY7BBkPrQPmm5kC/FIPBSI4KQdvTEUFZIqDB6iGPQCcOBEFpUJvB0gR8QHqR
KL8l25vBkjjJQIpXyD+4jrLBjp6YQFdfrT+EUo3BmObHQAt2dT9W25TBTgbEQNnrnEDMwIDBmK2W
QC5Ac0BhZoDBhlm/QBp6RkBPL5/BrxW7QDezpkAmR5TBz25aQP9fV0Bd5ZHBqgnwQKr2isDkWpTB
gvXGQM8JiMCqVIrBw77JQFmHtcB2FpPBhHFaQK+xasB9+Z3BMcZ4QFO+qMDqxpjBsDNzQJGBdsAd
BZDB0yWtQP/cCkFiZbnBAKvOQM8J8EBAgbLBZ8eYQCwE+UBUCa7Bv6HhQEnHJ0FsVbfBhmb3QI1m
LkECdKrB/tQCQT+cFUEryrDB1HOZQAHtLUHFlLDByeGEQBiNH0EeQKXBKrmsQHTtM0FBYaPBWKyD
QF56HUCGkarB6hpVQIAbxj9o55/B3AejQGY12UAst3/BhPp5QFas+0AhU4bBe+y4QNy+hcBgtKLB
xEsEQSgGIMB2cLDBytEBQSVhNMCkr6PBCQRpQImRx0AXupPBTaRHQFHJp0CI2ZzB22gCQcBAAkGi
XpHBR/fjQJ8T9EAz5IrBYTf7QAM2C0FAa5vB4YavQA2jA0HsiZjBAcWZQIxDEL/PC6HBP1bDQGdf
Kz9hP67BYTS5QHu99UDkbI7BBVHQQEgWDEFvJJ/BZDKhQJMRHD8S4qbBpjnXQDKZz78AmKnBoOe1
QG570r+126HBEZTdQARm676w1K/BShq0QBCA4z9JzZHBpDKxQGqRhECfPYXBZb6jQE3UKkAkL5vB
lxGgQMTSmUCLi4/B7CiHQC1CdEDWwpbBZzfNQJ7BlMC1pJPBvjCAQA/shsD2/pjBUX/rQDrpH0Gx
/6/B7gaiQNEHJ0F34qjBOU2zQPhoA0HLebHBBpSJQH6C7T+ulKPBf+eVQLcB40CvjYfBSVuvQAG9
eMDPSZvBvbzEQLN9FUFONqrB4OTzQE6QK8Dfk6rBDiWCQNVNvUDQzIzBmIr3QCPYU0CY2o7BLlza
QMIO/T+HG37BdJ9rQKfykUC6g5/BqDC2QIrMH8AcPpnBcfX+QNKCxb7jt7bB1CXTQAlaMUBDxYjB
pckSQXSxAUEKoY7BJX7rQJku5kAeNYPBIVoKQX95EUGiV6DBBsOOQGLqA0GQSJvBcEN8QPT8Ib9u
45vB6FvJQOgIyj/3qbLB4ZeYQM2VrD9NhI3BSBDIQPondz/oBJXB9o3DQLAfnEAYlYDB/DCWQGin
cUCAa4DBypS/QAJcR0BZOJ/BV0q7QCutpkAdG5TB2VdaQK+qV0C+BZLBHK7uQPecjMA8dpXBwebF
QBW4i8BZVovBR2zIQP5jt8DpqJTBhjdXQNgmasCnkZ7BHrt1QAJ2qcCeDJrBErBwQDGUe8AOupDB
JSThQLlBJkGzybfBRjX4QGoILUHTEavBKUwCQQbSE0HpO7HBhduZQFCwLUE6xbDBw0GFQGv9H0FX
PKXBRViuQJnaM0EDtKPB5QSrQGQHCkHLXLnBd+nLQJLx7UDMbbLBgZaWQFrC+EBWy63BcRyEQDnm
HkDwrarBTj9VQKoeyT/qD6DBGnCjQEMo2UDEn3/BpGB6QCmD+0AePYbB9iO3QB+bhMConqPBm2oE
QVXNHsDDabDBcMoBQZl5M8DmrKPBjJRoQHw9x0DukZPBOahIQJdoqEBQ2JzB

>  <OMEGA_E>  (12) 
kBSGPigvhT64xNI+WKTTPg==

>  <OMEGA_NBR>  (12) 
      9901

$$$$
50216768
     RDKit          3D

 78 80  0  0  1  0  0  0  0  0999 V2000
    8.1542    8.2109  -18.2026 C   0  0  0  0  0  0  0  0  0  0  0  0
    7.1117    7.7247  -17.3953 C   0  0  0  0  0  0  0  0  0  0  0  0
    7.8782    8.7279  -19.4826 C   0  0  0  0  0  0  0  0  0  0  0  0
    5.5067    8.2657  -19.1518 C   0  0  0  0  0  0  0  0  0  0  0  0
    4.8593   -0.8066  -20.0205 C   0  0  0  0  0  0  0  0  0  0  0  0
    6.2493    0.6868  -21.3599 C   0  0  0  0  0  0  0  0  0  0  0  0
    5.7842    7.7588  -17.8655 C   0  0  0  0  0  0  0  0  0  0  0  0
    6.5463    8.7683  -19.9739 C   0  0  0  0  0  0  0  0  0  0  0  0
    5.1333    0.4814  -20.5238 C   0  0  0  0  0  0  0  0  0  0  0  0
    6.8130   -1.6800  -21.1955 C   0  0  0  0  0  0  0  0  0  0  0  0
    5.7085   -1.8958  -20.3425 C   0  0  0  0  0  0  0  0  0  0  0  0
    7.0859   -0.3917  -21.6961 C   0  0  0  0  0  0  0  0  0  0  0  0
    5.5831    1.8118  -17.9147 C   0  0  0  0  0  0  0  0  0  0  0  0
    5.5297    4.3059  -16.5617 C   0  0  0  0  0  0  0  0  0  0  0  0
    5.0805    2.6008  -19.1530 C   0  0  2  0  0  0  0  0  0  0  0  0
    4.9803    4.8696  -17.8928 C   0  0  1  0  0  0  0  0  0  0  0  0
    4.1944    3.8060  -18.7104 C   0  0  1  0  0  0  0  0  0  0  0  0
    9.1800   -2.7086  -17.4016 C   0  0  0  0  0  0  0  0  0  0  0  0
    7.4299    9.9606  -22.0920 C   0  0  0  0  0  0  0  0  0  0  0  0
    5.1101   10.4036  -21.2675 C   0  0  0  0  0  0  0  0  0  0  0  0
    5.6953    8.1570  -22.2713 C   0  0  0  0  0  0  0  0  0  0  0  0
    4.2816    1.6594  -20.0946 C   0  0  0  0  0  0  0  0  0  0  0  0
    4.6599    7.2105  -17.0090 C   0  0  0  0  0  0  0  0  0  0  0  0
    8.1205   -3.6450  -17.9868 C   0  0  0  0  0  0  0  0  0  0  0  0
    5.7898   -4.2764  -17.7289 C   0  0  0  0  0  0  0  0  0  0  0  0
    4.8814   -3.3637  -18.5839 C   0  0  2  0  0  0  0  0  0  0  0  0
    6.2092    9.3149  -21.3804 C   0  0  0  0  0  0  0  0  0  0  0  0
    3.4896   -4.0017  -18.7724 C   0  0  0  0  0  0  0  0  0  0  0  0
    7.6479   -2.7405  -21.5356 N   0  0  0  0  0  0  0  0  0  0  0  0
    4.0494    6.0058  -17.6283 N   0  0  0  0  0  0  0  0  0  0  0  0
    7.7026    3.3631  -17.7297 O   0  0  0  0  0  0  0  0  0  0  0  0
    6.8282    2.2106  -15.6276 O   0  0  0  0  0  0  0  0  0  0  0  0
    3.6684    4.4595  -19.8685 O   0  0  0  0  0  0  0  0  0  0  0  0
    5.4899   -3.1897  -19.8912 O   0  0  0  0  0  0  0  0  0  0  0  0
    6.9083   -3.5216  -17.2202 O   0  0  0  0  0  0  0  0  0  0  0  0
    8.1604   -0.1844  -22.4924 F   0  0  0  0  0  0  0  0  0  0  0  0
    2.7276   -3.2210  -19.5825 F   0  0  0  0  0  0  0  0  0  0  0  0
    3.6109   -5.2327  -19.3386 F   0  0  0  0  0  0  0  0  0  0  0  0
    2.8700   -4.1170  -17.5690 F   0  0  0  0  0  0  0  0  0  0  0  0
    6.5804    2.8963  -16.9018 S   0  0  0  0  0  0  0  0  0  0  0  0
    9.1711    8.1879  -17.8396 H   0  0  0  0  0  0  0  0  0  0  0  0
    7.3281    7.3253  -16.4155 H   0  0  0  0  0  0  0  0  0  0  0  0
    8.6865    9.0971  -20.0964 H   0  0  0  0  0  0  0  0  0  0  0  0
    4.4897    8.2710  -19.5150 H   0  0  0  0  0  0  0  0  0  0  0  0
    3.9990   -0.9645  -19.3869 H   0  0  0  0  0  0  0  0  0  0  0  0
    6.4619    1.6741  -21.7428 H   0  0  0  0  0  0  0  0  0  0  0  0
    4.7223    1.4510  -17.3325 H   0  0  0  0  0  0  0  0  0  0  0  0
    6.1883    0.9543  -18.2440 H   0  0  0  0  0  0  0  0  0  0  0  0
    6.1136    5.0832  -16.0470 H   0  0  0  0  0  0  0  0  0  0  0  0
    4.6915    3.9930  -15.9217 H   0  0  0  0  0  0  0  0  0  0  0  0
    5.9519    2.9892  -19.7005 H   0  0  0  0  0  0  0  0  0  0  0  0
    5.8256    5.2244  -18.5007 H   0  0  0  0  0  0  0  0  0  0  0  0
    3.3738    3.4229  -18.0860 H   0  0  0  0  0  0  0  0  0  0  0  0
   10.1098   -2.7975  -17.9826 H   0  0  0  0  0  0  0  0  0  0  0  0
    8.8173   -1.6711  -17.4467 H   0  0  0  0  0  0  0  0  0  0  0  0
    9.3744   -2.9839  -16.3545 H   0  0  0  0  0  0  0  0  0  0  0  0
    7.1252   10.3279  -23.0830 H   0  0  0  0  0  0  0  0  0  0  0  0
    7.8036   10.8010  -21.4886 H   0  0  0  0  0  0  0  0  0  0  0  0
    8.2257    9.2101  -22.2080 H   0  0  0  0  0  0  0  0  0  0  0  0
    4.8723   10.7906  -22.2694 H   0  0  0  0  0  0  0  0  0  0  0  0
    4.2057    9.9663  -20.8193 H   0  0  0  0  0  0  0  0  0  0  0  0
    5.4727   11.2261  -20.6335 H   0  0  0  0  0  0  0  0  0  0  0  0
    5.4547    8.5432  -23.2728 H   0  0  0  0  0  0  0  0  0  0  0  0
    6.4741    7.3846  -22.3537 H   0  0  0  0  0  0  0  0  0  0  0  0
    4.7921    7.7204  -21.8200 H   0  0  0  0  0  0  0  0  0  0  0  0
    3.9679    2.2220  -20.9863 H   0  0  0  0  0  0  0  0  0  0  0  0
    3.3925    1.2878  -19.5640 H   0  0  0  0  0  0  0  0  0  0  0  0
    5.0607    6.9415  -16.0205 H   0  0  0  0  0  0  0  0  0  0  0  0
    3.8872    7.9847  -16.8930 H   0  0  0  0  0  0  0  0  0  0  0  0
    7.9240   -3.3705  -19.0337 H   0  0  0  0  0  0  0  0  0  0  0  0
    8.4810   -4.6833  -17.9415 H   0  0  0  0  0  0  0  0  0  0  0  0
    5.2100   -4.6811  -16.8863 H   0  0  0  0  0  0  0  0  0  0  0  0
    6.1616   -5.1049  -18.3497 H   0  0  0  0  0  0  0  0  0  0  0  0
    4.7689   -2.3923  -18.0802 H   0  0  0  0  0  0  0  0  0  0  0  0
    8.3729   -2.4135  -22.1417 H   0  0  0  0  0  0  0  0  0  0  0  0
    8.0545   -3.1237  -20.7062 H   0  0  0  0  0  0  0  0  0  0  0  0
    3.6450    6.2807  -18.5006 H   0  0  0  0  0  0  0  0  0  0  0  0
    3.1285    5.1938  -19.6005 H   0  0  0  0  0  0  0  0  0  0  0  0
  1  2  2  0
  1  3  1  0
  2  7  1  0
  3  8  2  0
  4  7  2  0
  4  8  1  0
  5  9  2  0
  5 11  1  0
  6  9  1  0
  6 12  2  0
  7 23  1  0
  8 27  1  0
  9 22  1  0
 10 11  2  0
 10 12  1  0
 10 29  1  0
 11 34  1  0
 12 36  1  0
 13 15  1  0
 13 40  1  0
 14 16  1  0
 14 40  1  0
 15 17  1  0
 15 22  1  0
 16 17  1  0
 16 30  1  0
 17 33  1  0
 18 24  1  0
 19 27  1  0
 20 27  1  0
 21 27  1  0
 23 30  1  0
 24 35  1  0
 25 26  1  0
 25 35  1  0
 26 28  1  0
 26 34  1  0
 28 37  1  0
 28 38  1  0
 28 39  1  0
 31 40  2  0
 32 40  2  0
  1 41  1  0
  2 42  1  0
  3 43  1  0
  4 44  1  0
  5 45  1  0
  6 46  1  0
 13 47  1  0
 13 48  1  0
 14 49  1  0
 14 50  1  0
 15 51  1  6
 16 52  1  6
 17 53  1  1
 18 54  1  0
 18 55  1  0
 18 56  1  0
 19 57  1  0
 19 58  1  0
 19 59  1  0
 20 60  1  0
 20 61  1  0
 20 62  1  0
 21 63  1  0
 21 64  1  0
 21 65  1  0
 22 66  1  0
 22 67  1  0
 23 68  1  0
 23 69  1  0
 24 70  1  0
 24 71  1  0
 25 72  1  0
 25 73  1  0
 26 74  1  1
 29 75  1  0
 29 76  1  0
 30 77  1  0
 33 78  1  0
M  END
>  <OMEGA_C>  (13) 
jncCQQdgA0HfnpHBb5PjQKow90CVKYvBhBr8QJWlC0FS3JvBGjewQCdABEHeNpnBSH+bQCt7Tr/n
KaDBG/rHQPTTLz8m4arB7he5QMFH+ECf7I7BaHvRQPFKDEGCyp/BqUOkQOh09j6kMKTBHATaQF0K
179skKnBvqu2QPCp8r9cvaLB7r/iQMSRyL6jka3B16iyQEHo5z87UY/BjfOwQMnJiUBLfoTBO5Oi
QORzJkBkOZnBO16fQCPUm0B6JI/BOjiGQL6Vc0DhrpXBUOESQS9aLcB5NovBhsHtQIpeH0FgvLDB
M4ajQCl1JkHvI6rB+z+2QBuDAkGfK7LBkQKJQAJn1D+zwaDBAB6VQHK85kBhEojBvu0BQUJIacDy
5I/BPUa5QBnYiMDF1I3BiTScQFxGV8Drq5TBe7HGQPIJFUElC6vB1lVfQLwNgMDhLZbBebv0QJJk
L8DsSKzB5pSBQIEvwEDEBo3BT3v2QGg9V0BT1o3BTYDaQHx6DUCICnrBv8dqQHq0jkCY8p7BYq2v
QIkkTMAjIZ/BwxDdQJ1hYcDnwonB5pACQUXWPL6J8LPBjJEuQL0kTsAIqZzBvxlnQAZyp8BrtZrB
Ha43QHa+g8BkjYzBVZLSQF1dOUDkNofByrwSQc8BA0Frt47Bv3/qQOJo6kDfUoPBE/wKQbyNEUFi
xaDBRquPQARWBEHIHpzBoe9/QJTodr9rGJvBocfOQGJH1j9G8a3BYh2XQNC6uT/zqIrBpwbGQBtN
dD+885HB16LDQJepokBYYIDB8SCWQAONf0B4v37BIna+QK1PP0CXmp3Bdmu6QAcup0BvAZTBqutX
QJURW0AfsJDB0MEhQf4JM8Bb3I/B1RMNQQ/n1b/ckovBa/0VQWb4PsD91YLBdAHkQDA/JUEVqrjB
17b5QLfQLEGQ6KvBTpwDQXRcE0H5qbHBOeqbQECmLEG4J7LBcpWGQCp2H0ECjqbBXCCvQAqeM0FR
EaXBjIyuQOqwCEGjLrrB+CvPQF1O7EBp1LLBKFmZQHkN90Buj67BlfJ9QLY0DkDs46fB9R5ZQI/W
pD8Vg5zB8/ChQNgg3kAGKoDBYsd4QOeC/0DtJIfBSJH9QG22V8D/RJjBOrIHQabdlcAgiI/BMrim
QGzLlcAXF4fBySvFQElbo8AZzJLBrJqYQHUbGcA1pJDBdfcFQWt2GsBBIrHBKd8AQQDrR8BmpqXB
wkdpQEH7yEA3AZTBnDlIQKgzpkC+zZzB+2kCQQ1tA0G8s5HBmIXjQN1b90DjN4vBJOX7QAe6C0Hk
7ZvB9AGwQP9mBEF5OZnBerObQAhETr83JKDBplHIQCV5Lz8M2arBdP64QNWF+EAi8o7B8DfRQFJz
DEGi0Z/B1pOkQK7u9j6IKaTBqiraQApg17/qi6nBhM62QIHA8r8euaLBPADjQCQ9yr6hi63Bxu6y
QDOP6D+wT4/B/PywQJDmiUBKdoTBwteiQHjCJkCyN5nBdnWfQIX3m0AIHY/Bv2mGQNTUc0BwrZXB
dqESQai1LMCpA4vBPIC2QEaRAkH4OLLB9kntQA7DH0HbtbDBQsCiQHZfJkG5MqrBKFeJQBjL1D+X
wKDBshqVQDXs5kCHEojBktUBQdvlaMDRyI/BuBa5QG3/iMAB5Y3B3OKbQFITWMBkw5TBJl/GQMQs
FUEoEqvBJ2RfQNv/gMDJb5bBasv0QG+tL8AwR6zBUp6BQFFLwED1AI3BxKD2QPraV0BWzI3BEKja
QEfHDUDKAHrBqEprQNTbjkDS8Z7BnrGvQPVHTMAsK5/B9o/cQLH/YMDLxonBybECQQgXQ76p67PB
DsMtQNezTsBhpZzBDHpoQAyNp8B8XZvBg+U3QMmmhsDa24zBIrnSQPnAOUB2MIfBOrQSQWgCA0HE
047BHoXqQBCS6kBzYoPBxdwKQe+YEUHA3KDB4m2PQM2BBEGNG5zBcCeAQJdQdr+JE5vBizbPQB4U
1j/Z5q3BjWOXQFASuj9pqorBuV/GQD8Gdj8a8pHBEpfDQAHJokBZU4DBViWWQESZf0BXuH7BVbi+
QMGzP0Dpl53BHIm6QIBep0DW9ZPBzz5YQPw1W0Bas5DBTaEhQf5dMsA9kI/BLc0MQd681L+nb4vB
V4gVQegcPsCdnILBesCuQO23CEGfPLrBiL7PQFe97EBj3rLBE7uZQPPG9kA/pK7BQYnjQAyeJUGQ
pLjBnNj4QHVBLUH22qvBmYYDQbroE0HXn7HBQCKbQBCJLEHUN7LBH+yFQEwwH0FApqbBhO6tQJCX
M0HeGqXBSMB+QJ9SDkD+5afB/rFZQPBspT9shJzBPAGiQKdj3kDgKoDB4KV4QNek/0B0JIfBC8r9
QPyLV8B0L5jBMKAHQTullcBqXI/B5oamQNsmlsDzLYfB2FbFQC1go8AH2pLBMbmXQJsfGsARt5DB
nwIGQazSGsDqH7HBbuMAQQtVSMCupaXBwkBpQAIEyUBm+5PBPahIQFtUpkCHzZzBKg8CQR5BBEGe
qpHBvvLiQDKr+EDMMYvBPxf7QGVrDEEz6pvB71qvQNSjBEFHQJnBAXqZQNAGP7/cR6HBXaTKQKSC
Nz/O36rBhnW4QGEw+UBB9I7BwnLQQAXYDEER15/B3yKlQN4cCj/xwqTBZnLZQDB11r80ranB1Lyz
QJPd7b9Up6PBO7fkQLY1x762V63BGRKzQFHG6T88oo/BXEuwQP2qiUAxc4TB4LmjQCgOKUCyfZnB
ooyfQMtWnEAfHI/BsPuGQFBbdUCg4ZXBXlcUQYEgY8C16ZHBOInsQFa1H0Gn3bDBLguiQJKXJkHS
ZKrBsJ61QGGJAkGmJ7LBup6KQMDW3T9LX6HB4MmUQDIx50DXEYjBfx0HQZzPVMDow4fBWJzGQB3+
KsBaSY3Bn4igQK8/S8BFXpTBk5XFQF9UFUEiJKvBWKiSQOmik8DeuZHBMkz0QLxzMMAiravBtYSB
QGqCwEDDA43BTav2QCtoWEC+iY3B51fZQONZDEAWEXrBoRNtQOsnkEAHHJ/BH5yqQOx3R8BQtp/B
BMTiQGPDbsCOw4nBRIcEQQEBU76NC7PBbtxbQPpGnMAbI5fBbSexQPlYsMCCwZTBai6LQHITl8Bj
DofBhTjSQD12OUCbLofB8FUSQZYTBEEuxI7B1wXqQEwa7EC1V4PBFWoKQfVqEkHo1qDBQ8yOQKSM
BEEwJpzBOqh4QDuZYr8OxpzByl7TQCPY2T8Uqq3BzDGXQIWluT9oLovBG8TGQNNqej/7TpLBkpzC
QI9NokDqJIDBFRWVQJmdfkCnAn/BYPG/QIvZQkDvpZ3B7vW6QLMBqEAPzJPBwQdZQP3aW0DGCJHB
vf0kQUB3T8Ajd5DBI+4TQROrk8DPFJTBH5sNQe3gPMAZfZjBL8HiQBtlJUGl07jBJj74QBJLLUH1
GKzBXxkDQeDIE0F1ubHB9H2aQFuMLEHddLLBHSqFQM+JH0E5zqbBCEStQNruM0HuYqXBdNWtQN93
CEFJNbrBz9POQGyc7EDhubLB2dqYQGz09kAsg67B+Q2CQBRkFED7gajBFJhaQBY2sD84bZ3B6tyh
QHSi3kAuL4DBJqx3QCm2/0AqGIfBRM4NQVcTe8D3LYHBQHsHQR+eEMBBloXB4HTZQIK0+b+A+ZHB
Xly5QGr3CsAwL4bBoBmFQDoAIcBmyJLB4awGQY4IHcB6BbDBQ6H+QOWvSMC7vKTBwxlpQHsvyUDS
/5PBNgpKQGpop0DY65zB

>  <OMEGA_E>  (13) 
QMvyPIAA5zxgheg9

>  <OMEGA_NBR>  (13) 
     13874

$$$$
50216811
     RDKit          3D

 71 73  0  0  1  0  0  0  0  0999 V2000
    8.1693    8.1969  -18.2259 C   0  0  0  0  0  0  0  0  0  0  0  0
    7.1289    7.7158  -17.4131 C   0  0  0  0  0  0  0  0  0  0  0  0
    7.8886    8.7186  -19.5027 C   0  0  0  0  0  0  0  0  0  0  0  0
    5.5157    8.2736  -19.1572 C   0  0  0  0  0  0  0  0  0  0  0  0
    4.8400   -0.8033  -20.0505 C   0  0  0  0  0  0  0  0  0  0  0  0
    6.2312    0.6964  -21.3794 C   0  0  0  0  0  0  0  0  0  0  0  0
    5.7985    7.7591  -17.8746 C   0  0  0  0  0  0  0  0  0  0  0  0
    6.5537    8.7721  -19.9845 C   0  0  0  0  0  0  0  0  0  0  0  0
    5.1146    0.4883  -20.5417 C   0  0  0  0  0  0  0  0  0  0  0  0
    6.8124   -1.6661  -21.2050 C   0  0  0  0  0  0  0  0  0  0  0  0
    5.6946   -1.8818  -20.3779 C   0  0  0  0  0  0  0  0  0  0  0  0
    7.0781   -0.3789  -21.7100 C   0  0  0  0  0  0  0  0  0  0  0  0
    5.5746    1.8084  -17.9248 C   0  0  0  0  0  0  0  0  0  0  0  0
    5.5292    4.3011  -16.5639 C   0  0  0  0  0  0  0  0  0  0  0  0
    5.0659    2.6020  -19.1579 C   0  0  2  0  0  0  0  0  0  0  0  0
    4.9778    4.8693  -17.8923 C   0  0  1  0  0  0  0  0  0  0  0  0
    4.1838    3.8080  -18.7060 C   0  0  1  0  0  0  0  0  0  0  0  0
    6.3209   -4.1180  -17.9130 C   0  0  0  0  0  0  0  0  0  0  0  0
    7.4350    9.9670  -22.1024 C   0  0  0  0  0  0  0  0  0  0  0  0
    5.1232   10.4256  -21.2649 C   0  0  0  0  0  0  0  0  0  0  0  0
    5.6860    8.1775  -22.2791 C   0  0  0  0  0  0  0  0  0  0  0  0
    4.2633    1.6633  -20.1005 C   0  0  0  0  0  0  0  0  0  0  0  0
    4.6771    7.2151  -17.0109 C   0  0  0  0  0  0  0  0  0  0  0  0
    5.1477   -3.3467  -18.5570 C   0  0  2  0  0  0  0  0  0  0  0  0
    6.2128    9.3281  -21.3868 C   0  0  0  0  0  0  0  0  0  0  0  0
    3.8167   -4.1205  -18.4785 C   0  0  0  0  0  0  0  0  0  0  0  0
    7.6658   -2.7250  -21.5032 N   0  0  0  0  0  0  0  0  0  0  0  0
    4.0558    6.0126  -17.6249 N   0  0  0  0  0  0  0  0  0  0  0  0
    7.6972    3.3568  -17.7402 O   0  0  0  0  0  0  0  0  0  0  0  0
    6.8263    2.2003  -15.6390 O   0  0  0  0  0  0  0  0  0  0  0  0
    3.6495    4.4648  -19.8582 O   0  0  0  0  0  0  0  0  0  0  0  0
    5.4442   -3.1677  -19.9581 O   0  0  0  0  0  0  0  0  0  0  0  0
    8.1562   -0.1688  -22.4999 F   0  0  0  0  0  0  0  0  0  0  0  0
    2.8198   -3.3494  -18.9902 F   0  0  0  0  0  0  0  0  0  0  0  0
    3.8932   -5.2668  -19.2083 F   0  0  0  0  0  0  0  0  0  0  0  0
    3.5250   -4.4241  -17.1887 F   0  0  0  0  0  0  0  0  0  0  0  0
    6.5762    2.8896  -16.9109 S   0  0  0  0  0  0  0  0  0  0  0  0
    9.1884    8.1662  -17.8695 H   0  0  0  0  0  0  0  0  0  0  0  0
    7.3490    7.3131  -16.4354 H   0  0  0  0  0  0  0  0  0  0  0  0
    8.6958    9.0816  -20.1217 H   0  0  0  0  0  0  0  0  0  0  0  0
    4.4962    8.2881  -19.5133 H   0  0  0  0  0  0  0  0  0  0  0  0
    3.9765   -0.9700  -19.4236 H   0  0  0  0  0  0  0  0  0  0  0  0
    6.4367    1.6830  -21.7679 H   0  0  0  0  0  0  0  0  0  0  0  0
    4.7166    1.4447  -17.3404 H   0  0  0  0  0  0  0  0  0  0  0  0
    6.1789    0.9527  -18.2603 H   0  0  0  0  0  0  0  0  0  0  0  0
    6.1161    5.0758  -16.0487 H   0  0  0  0  0  0  0  0  0  0  0  0
    4.6919    3.9884  -15.9227 H   0  0  0  0  0  0  0  0  0  0  0  0
    5.9352    2.9918  -19.7078 H   0  0  0  0  0  0  0  0  0  0  0  0
    5.8232    5.2181  -18.5035 H   0  0  0  0  0  0  0  0  0  0  0  0
    3.3679    3.4245  -18.0758 H   0  0  0  0  0  0  0  0  0  0  0  0
    7.2419   -3.5225  -17.9969 H   0  0  0  0  0  0  0  0  0  0  0  0
    6.0993   -4.3028  -16.8515 H   0  0  0  0  0  0  0  0  0  0  0  0
    6.4569   -5.0784  -18.4318 H   0  0  0  0  0  0  0  0  0  0  0  0
    7.1278   10.3415  -23.0899 H   0  0  0  0  0  0  0  0  0  0  0  0
    7.8191   10.8013  -21.4972 H   0  0  0  0  0  0  0  0  0  0  0  0
    8.2238    9.2104  -22.2264 H   0  0  0  0  0  0  0  0  0  0  0  0
    4.8839   10.8181  -22.2642 H   0  0  0  0  0  0  0  0  0  0  0  0
    4.2173    9.9943  -20.8140 H   0  0  0  0  0  0  0  0  0  0  0  0
    5.4955   11.2428  -20.6296 H   0  0  0  0  0  0  0  0  0  0  0  0
    5.4424    8.5693  -23.2777 H   0  0  0  0  0  0  0  0  0  0  0  0
    6.4590    7.4000  -22.3690 H   0  0  0  0  0  0  0  0  0  0  0  0
    4.7824    7.7453  -21.8245 H   0  0  0  0  0  0  0  0  0  0  0  0
    3.9434    2.2302  -20.9873 H   0  0  0  0  0  0  0  0  0  0  0  0
    3.3780    1.2872  -19.5668 H   0  0  0  0  0  0  0  0  0  0  0  0
    5.0833    6.9445  -16.0252 H   0  0  0  0  0  0  0  0  0  0  0  0
    3.9087    7.9929  -16.8899 H   0  0  0  0  0  0  0  0  0  0  0  0
    5.0337   -2.3741  -18.0561 H   0  0  0  0  0  0  0  0  0  0  0  0
    8.4026   -2.4028  -22.0975 H   0  0  0  0  0  0  0  0  0  0  0  0
    8.0550   -3.0879  -20.6565 H   0  0  0  0  0  0  0  0  0  0  0  0
    3.6486    6.2884  -18.4956 H   0  0  0  0  0  0  0  0  0  0  0  0
    3.1124    5.1989  -19.5842 H   0  0  0  0  0  0  0  0  0  0  0  0
  1  2  2  0
  1  3  1  0
  2  7  1  0
  3  8  2  0
  4  7  2  0
  4  8  1  0
  5  9  2  0
  5 11  1  0
  6  9  1  0
  6 12  2  0
  7 23  1  0
  8 25  1  0
  9 22  1  0
 10 11  2  0
 10 12  1  0
 10 27  1  0
 11 32  1  0
 12 33  1  0
 13 15  1  0
 13 37  1  0
 14 16  1  0
 14 37  1  0
 15 17  1  0
 15 22  1  0
 16 17  1  0
 16 28  1  0
 17 31  1  0
 18 24  1  0
 19 25  1  0
 20 25  1  0
 21 25  1  0
 23 28  1  0
 24 26  1  0
 24 32  1  0
 26 34  1  0
 26 35  1  0
 26 36  1  0
 29 37  2  0
 30 37  2  0
  1 38  1  0
  2 39  1  0
  3 40  1  0
  4 41  1  0
  5 42  1  0
  6 43  1  0
 13 44  1  0
 13 45  1  0
 14 46  1  0
 14 47  1  0
 15 48  1  6
 16 49  1  6
 17 50  1  1
 18 51  1  0
 18 52  1  0
 18 53  1  0
 19 54  1  0
 19 55  1  0
 19 56  1  0
 20 57  1  0
 20 58  1  0
 20 59  1  0
 21 60  1  0
 21 61  1  0
 21 62  1  0
 22 63  1  0
 22 64  1  0
 23 65  1  0
 23 66  1  0
 24 67  1  1
 27 68  1  0
 27 69  1  0
 28 70  1  0
 31 71  1  0
M  END
>  <OMEGA_C>  (14) 
d7UCQW0mA0GnzpHBTiDkQHTn9kD+TYvBn2/8QIh/C0GRBZzBy4CwQNxgBEHaQZnBVuGaQLujTb9i
Z6DBX2bHQIdIMj8UCavBeo25QMVK+EA4/47B8bfRQGNaDEE74J/B3aqjQFwD+j5+VaTBLv/ZQGpB
1b/Ro6nBQDq2QJHf8L/tBaPB/H/iQP78wb4trq3BAWOyQNN55z8GZo/B9e6wQKeiiUDqgoTBKhyi
QN+HJkBRQ5nBX0qfQC3Rm0BsI4/BneGFQAO3c0D6pZXB9kTKQMjGg8DTTY/BW+vtQL54H0Gg0bDB
A/GjQG7PJkF9HqrBn/O1QAXXAkGrO7LBkWyIQPPn1D/czaDBiaqVQNzh5kBhFojBIbqkQBMxVsC9
dJTBI8/GQARAFUEkGKvBuUR0QNbag8Dh05PB4k31QPhmLsCNBqzBC8mBQANnwEDO/4zBlE/2QN3V
VkD0643B/nDaQPDRDEBtOXrBFJFpQFzfjkCX3Z7B2zauQO+7SsA4qp/BwX8CQdPXLL61/7PBAHg0
QLRcVsD465fBFSp5QJuJqMCnqpnBIplhQOeRjcCOgonBAnDSQHzvOECgSYfBfAMTQdOoAkHN9I7B
CSvrQK8E6kC+e4PB8iELQW9OEUEy+aDBEOGPQCScBEEqG5zBdX9+QKpPeL92Y5vBl/nNQKNr1z+g
JK7B++2WQOXruD85uYrBQrnFQMLicz8vFZLB2rbDQMZsokDKY4DB1yOWQHVBf0B8w37BZO29QMN5
P0CRqZ3Bxle6QPj6pkBDB5TBFItXQLUrW0BEm5DB873nQPVvYcCd+Y/Bvy3DQMiwicDpz4bBGJ/O
QFKCosBRdJPBqhbkQOF2JUE2uLjBSTb6QFLSLEEw+qvBkpQDQcZdE0Guz7HBDUmcQA8XLUErHbLB
DfSGQKfoH0ECg6bBL9uvQK3iM0F7CaXB3yeuQN4bCUG7OLrBw6/OQBLN7EC387LBMwmZQMPZ90CI
mK7BBWB8QH67DkDv5afBbDFYQD3CpD/IiJzBfqqiQA453kCHM4DBISh6QJHF/0CMHofB2xOhQIbw
F8D3cpDBM3EGQf/GGcCcx7DBa+EAQaOfRcCdQKXByIJpQHA6yUAD95PB+jFHQKBdpkBwrJzB0vcC
QTB7A0HRmZHBSULkQHqb90DgNYvBwYP9QMzsC0FC1JvBKWexQIT7BEGgSpnB4h+cQEzwb7+L2p7B
rgnEQHjJJT/w76nBtd+5QFw2+UCzCY/B0vnSQNHoDEG/zJ/BuwKiQPjqwT5K2qLBbufZQIAI2L+A
OKnB44W4QJzM/L9o9qHBrQLgQDO8wb7dDa3Bd/iwQCga6T+GY47BArawQHini0AXdoTBdB6gQH0A
I0AKfJjBxtKeQOdtnEAVNo/BiNuEQLg7c0BxYZXBxQuaQCydXcC9vYzB4Qi3QO20A0GcLrLBTBLw
QJ3JH0EjtrDBfE+mQB3OJ0H0CqrBJKOFQAT9wz9pOJ/B/nOVQF/z50BVSojBD9y8QGrRdMAu9pTB
iojIQOPuFUFtBKvB0STrQDMSX8B+xJDBo030QLBcLcC84KzBwqWBQIGKwUCOTY3Bly/1QG4OV0Al
243B4V7aQNY7E0B5DHnBe1FpQLE9jUBz457BuaSwQPONU8Ajgp/BFkUAQTi31b2m2rPB/6MEQeKZ
csCKMpjBP6zvQLaWC8DI4Y3BuXXzQK4SiMCZBojBq8bRQGP2O0Dn4obBbjMTQZvmAkE0p47B7tvq
QPGY6kDAYIPB7s8LQd6zEUFzsqDBw+eQQBxdBUGuOZzBsAmCQGkRk78KcpnBAJnIQAz70j8T+6zB
58aVQNl3vz+qcYnBrObDQBSicT+hy5DBZcjDQDjlpEBcmoDB8QWWQKCRgkBDYn7BS6G7QDliOECU
R53BEcO5QA+0pkB+QpTBgHxUQFIOXkAHRJDB6cJ0QHLcbcASAZDBcnqfQMLjgMBzUIXBL2mbQOyc
GMB6B4vB8pGvQJ4SCkHTK7rBt0nPQMQP7kDD5LLB9NCZQEQh+kCqka7BIIzmQOfjJUFZnbjB0tP8
QMIBLUHy2qvBQ20EQddxE0EbsrHBYPWeQAYwLkH/CLLBkgqJQPAnIUF5dabBVaiyQFa/NEGy8KTB
qt5wQKKsAkALSKbBAZVWQFtzkT8sUJrBy+GhQCst30DTWoDBz+B5QNR7AEEvaofBEwe8QLyAncCy
nJXBdgQFQUZFFcBQ67HB+JgBQQGTSMDeqqbB1QNrQKNpykBjXZTBmitIQGuepUAECJ3BjwEDQSOV
A0GbmpHByVHkQHHD90BvOYvBNKT9QIzvC0Gw2pvB/IuxQB/gBEG4WZnB67abQIqkcL/k757BxsnD
QL8fJz/p6KnBzPa5QHMs+UCrE4/BWyTTQCPIDEHq25/BhLahQKQrwj442qLBrsnZQHo4179wPKnB
oja4QKjN/L/CDKLBh9ffQOGLvb5HCa3B4CqxQEYF6T/tZI7BA52wQASWi0ASa4TBzAugQGLzIkDI
dpjBccqeQEpZnEA3LI/B5suEQGcVc0DTVJXBSu6YQH8fXsBx9IzBXEbwQHZnH0Gx17DB6nimQDp5
J0HUNqrB71C3QP9AA0FYNbLBQmeFQB3Twz+IKp/BwIaVQEX450CnUYjB7hC8QLs2dcCbF5XB4r7I
QDKdFUGHHavB+SrqQG+wX8Dcw5DBo4L0QBuhLMDx1azBuKqBQEOAwUDvSY3Brjf1QPqaV0Clz43B
KnHaQKk4E0DIBHnBGQdpQPYsjUDj057BOFywQLCyU8BCqZ/Brz4AQdR3ub1GybPBvU0EQXEcc8Cu
HpjBpqXuQE9KDMCV1Y3BlwzyQM2HiMCPBojBOdPRQIkVPECk3IbBPzkTQQsXA0GZoY7BlePqQBnd
6kD8YIPBeuALQVS/EUEStqDBFBKRQI40BUH2TJzByHeBQBwGlL/qlpnB51HIQGjW0z/A7KzBPBaW
QKZdvj/ZcYnBrUPEQLvGcj9R1pDBb5PDQB/bpEDAiYDBFumVQOVggkB4VX7B9G27QJ9hOEAYTZ3B
D8O5QCKMpkBLOJTBsXdUQHTVXUBRNJDBBclyQGQzbsCETpDBPweeQLM+gcBJh4XBR0WaQFMrGcBT
NovBMcLmQB1eJUHXxbjBXPn8QLS2LEH4CazBi4wEQXoQE0EuxbHB5CCfQGm7LUFBO7LB1zWJQFbb
IEGWnKbBAcSyQPx/NEE/KKXBQ+GvQJ16CUETOrrB/5jPQAAo7UCc27LBmxeaQOhR+UCCk67BIf5v
QOOdAkCJM6bBJWdWQJsakT/cN5rBbPahQChL30CaYIDB0wt6QOqAAEEpdofBOzi7QDmxncD+xJXB
pisFQb9FFMCC1LHBlKIBQdeoR8Dgl6bB8fxqQAVHykDEWpTBP99HQGqJpUCD9ZzBqsICQQirAkEn
4JHBKSbkQNp39kCLUovBTY38QBMUC0E/FJzBb4CwQJR5BEFPN5nBEfmaQGTRTr+fO6DBd7nGQKIE
Mz+0AKvBPYm5QHFf+EAW+I7BlsTRQMZHDEFn3Z/BokijQK7/9z5VOqTBzcDZQGB21L8QqanBPnO2
QGo18b+n5aLBuuDhQHTdvb5Ot63B6NWxQMqY5z/DRo/B4/ewQD3diUCkgYTB38OhQKVGJkDHLpnB
QkufQA7xm0CvJI/BMMaFQG34c0D+opXBsT7EQKV9hsA1uI7Bfem2QJOTAkERRbLBa9rtQH6xH0HM
uLDBTFSjQH9ZJkH6NKrB4/OHQIkD1D9HrKDBMJyVQIwB50DZEojB0vmhQCuoVsAJeZTB5eTGQMAd
FUGqGKvB8LtrQImRgcAvrJTBGhb1QPekLcCJLKzBrsmBQOuKwEAmA43ByhH2QKwYVkBD7I3BfSva
QJUrDUD2FHrBRe9pQIHsjkAk5p7BEX2vQDdXS8AGb5/BFQoCQXWBHb4LH7TBnkcyQE+VUMB02pnB
qulwQBuTp8Ca8pnBycdPQFNniMDsiYrByS/SQOztOEC/PYfB4BYTQS3tAUG8Eo/BECnrQAyY6UCN
f4PBaTgLQfmqEEH3EqHB39aPQHfhBEFJCJzBbDl/QIxHer/aIZvBRwjNQEf71z88Ha7BZ0qWQGOO
uj9rk4rBLe7EQG4pcj9A6ZHBmO7DQEWiokAQboDBiy2WQFkcgEDSsH7B06y9QOCiPkC7mJ3BElO6
QD8Pp0AaDJTBFQBXQOH8W0Ajm5DBUPriQJqpasA4yo7BhUu6QF8vjMA7ZobB/97HQG5RpcCg3pLB
dyKvQIrJCEFSRbrB7BrQQAC47EA28rLBUiOaQGbN9kBjsK7BChvkQB2iJUGVo7jB4IL5QGsgLUEN
16vBH8UDQT3PE0ENq7HBKsKbQLuPLEFZOLLBaXaGQOcsH0EqrKbBWYyuQPKHM0E5GKXBYPF6QN8k
DkCJwafB/o1XQDCLoz/PWpzBBYuiQO1S3kCjLoDBuwt6QM7m/0BIHYfBgQKfQJBuGMCabJDBcCUG
QQeuGMDgBLHBnQYBQVbTRMBgdaXBK69pQDloyUAV/JPB49RHQNuVpkBRwZzBRdEDQR5tAkGfO5PB
FcXnQIE29UA4UozBv2/8QCgPC0HFQZ3BITqxQGb8A0HseZnBo1+eQKasN7+FZ5/B7ZvCQFNsMT84
aqzBfXW8QKH09kBnbI/BWOrQQNQEDEFSgaDBGwuiQDbHAj8+zqTBwifaQCfozr+Ks6nBcoG7QIz2
4b+8QqHBiPbdQLC5vr5rAK/BCWmvQGd13z+Vk4/BdnSuQFWShkDSTITBW2WhQCQUJUBZeJnBBTWg
QKk6mkBVEY/B8kiGQDvyc0Aq95XBAIrDQBWbnsAXdpLBB1jpQOq1HkFU57HBrXGiQMqWJ0FvtanB
tXauQGJzA0FySbLBKz2HQHcQ2D+XRqHB29yZQCmk5UASIYjBKbvZQGubb8A8opfBiErDQBZQFUFV
cqvBqgz8QDLbSsCkrI/BET/0QAqOKcDPRa3BOleEQJgQwEA1C43BrcD0QF+/S0BTnozBzzfSQBSZ
AUD7MXnBCJ1uQNkukEAAPp/BXSK2QAP7NsCcd5rBiXX8QFeMQb6xjrbBmCIGQWKv/L9Z4JLBOH7r
QLu8QcB6q4XBopoOQQKSgcCtIo/BMl/OQL5TMEAsvobB4WkUQXvPAUGY2JDB9njwQMHk50C1poTB
MJIKQdH/EEGmhKLBQAKQQLxiBEEY2pvB/7iEQD36W7/1uZnBRZjGQOZm0z/wRLDBUdOSQGDLsD+H
WYvB9bvCQKqVYz/KPpLBjVbBQAU1nkBAmn/BWA2SQMgQe0DbPH/BjTS+QFcNPEC+oZ3BY8O8QNow
pED1kZPBBABWQAzyXEDzNJHBj3qrQJKVq8A/AZjBYX7bQDBkt8CFrZDB38mzQImTlMBjAIvBNZzd
QDQKJUG0krnBVVj4QG2xK0GHS63BcIYAQaoOEkGdarPBN8eYQOQvLkE3gLHBliSGQIhAIUFhi6XB
QhyxQMJKNEFa2KTBmcKkQPUNCkErE7rB2azFQB3q7EAaibPBKiuSQHZO+kDpGq7B8vF7QOT0EUCK
UajBHqJUQP5IqT87M53B8VuoQO7u20B2fIDB+/+BQFTb/kARrYbBz0DqQFRwgsBh757BE34DQV1D
FMCxL7PBhjoDQfVhPsBKO6fBQ/JvQNpZyUAiDJTBmY5NQEo5qEAcG53B0y8DQX5JA0EPL5PBSNrm
QKyA9kAbPYzBYrv6QAb1C0EZK53BRNevQMtKBEFvVZnBwv6eQCYHNL/JkZ/BSrPEQPlFLT/BhqzB
dH67QA+W90AgT4/BXBnPQBP4DEH6TaDB5rijQJ42BT+m+qTBch3aQOmY07/wzqnBUk27QCzQ4r/I
Z6HBZkHfQOLK0r5vE6/BVj2wQKFy4D+Js4/B+lmuQGhvhkD0RYTBpNGiQCMLJkD5mpnBApGgQPhk
mkDUCo/Bck+HQGd8dEAxH5bBekfDQCnumcA8nZDB3k+6QHEpA0EKIrPBjv3jQEwaJUGMLrDBTKGX
QH4rI0EyXarByjiJQMEQ2z+QlaHBVkWZQDKK5UDwBIjBmO7YQCy1bsD9iJfB4p/BQLH9FUFWU6vB
Epj+QGfNRMB7/pDBYGzzQIfBLcC4NK3B9DyEQIvav0AAAY3BAC/1QIbkTEAzd4zBVjnSQLVeAUC3
NXnBnZdxQOO4kECZZ5/Bjla1QH8JN8BaoprBDGL+QFaAgL4ngLbBN5QIQX/eAcAsJJbB+PzwQG9N
KcDxP4fB78gOQUZlgMDcc4/B8qXOQL2gMEC/t4bB+dETQYDPAkHF2pDBUtrvQL1c6UAmkoTB/ZwJ
QePkEUHmfaLBBqWOQCcxBEGCvJvBuC6FQIgSU78o6JnB/57JQLry0D84XLDBp2qTQKVWsT+/mIvB
wr7DQCsjZj9SVZLBTtzAQNICnkCCUX/BycGRQDQiekDsaX/B+9u/QP2DPUDjnp3BVUi9QH/SpEDL
aZPBg4xXQAzfXECpgJHBKvGoQGWvqMDHI5XBh+TaQOaXssDBeY7BL4y2QLozi8BcSInB27WwQHFs
CUHE/7rBuxvYQMfg80AM9rPBTOqgQENv8UBd/q/BROHYQBgOK0HL+7fBcFDpQAGzMkE8warBew8B
QTVBHEFpPrHBcKmOQIBrKUFxR7LBdsB7QJXUGEE6UqfB0J6cQLuWMEHqzqTBE/KAQFG+E0AArqjB
RHZXQLHhrT+Csp3B9gSoQKfD20ByaYDBjRKBQIpb/kC4fIbBI43mQD2vhsAFsJ7B4koDQTM7GsBM
IbPBpZkCQcnBQsAIGKfBFchvQJElyUBaApTBDhNQQLKdqEAWR53B6z0DQXXdAUH0lZLBI1XmQEhj
9EAFuYvBta77QHpzCkGqpJzBNVGwQOlzA0EuCZnBcTGbQFqwEr9O1KDBlXfDQNkkOj9x3q3BgyW7
QA4c9kAa7Y7BuEbQQO25C0G38Z/B+YehQEHvHj+0dqbBqEXYQLR2yb/18qnBlde3QJr10L8CF6LB
DC7eQGUBxL5I0q/BZyCyQALh4T8ADJHB1DOwQLwghUCIyYTB3eyiQIXlKUB2jprB4jugQMwPmkAN
Po/By76GQNW8dEBwV5bB67RsQH0RacCIrJfBRdC9QEeBAUF/4LLBG47mQACyI0F5wK/BvpiZQF2A
IUHSgqrBgPaIQLpa6z/B9KLB92iYQLpR5EB3uIfBouSlQG/GcMCGAZvBHOXDQHR+FEHcGKvBHea+
QHDclsAjopPBdCH0QAZUKcAFYKvBFmWDQAyqvkAJtYzB8ab2QGtKT0A1z43Ba17WQJzp+z8GHnzB
sotrQCrTkUB7M5/BOwS7QNZ8IMAsx5nBQ1D/QAzPiL7hvLbBf1/oQN6rmMCn9JbBqU2+QJcViMDE
YYnBGXytQE6NvsBT95PB3hDRQC/jL0BU7IfBVMwTQd8rAUHNIpDBb7juQOFM50CNAYTB+FMKQY4f
EEE45qHBjUGPQEyWA0FEjZvBzyaAQFeVLL+jgpvBCvfIQJMr1D/ZCLLBoxOWQBNirT8Q3YzBFt3F
QHNtcD8vIJTBkfrCQNCInEDSL4DBj5eUQOIwdUCFAYDB+Ua/QKgKRUBlhJ7BNAi8QC+xpUB/ypPB
VxVZQD6TWUDFi5HB+YZLQMwFPcD4JJ3BXEhOQNA9lMA1DZjBlbdoQDg8UMBpdI/BVP+0QLiYB0Fa
1brBm9vbQOLQ8ECkdLPBn0KkQIn87UBI4K/BkEjcQO55KUEvqLfB/vfqQPllMUE/V6rBM3sCQX/5
GkEmjbDBn3aRQD+PJ0HohLLBKld/QKwbF0HTm6fB6rKdQDsML0G7/KTBypiCQAxbHkCz9anBWuRU
QEvXwj8FYJ/BebumQOWd2kB/DoDBvEWAQKxL/UARS4bB/d+nQLrXg8DqT6PBM2sEQd2mG8DcOrHB
/RMCQUYJNMDGlKTBsXJrQAhNyEACh5PB8x5JQJmuqEBLopzBJ/gDQeF3AkFJ8pPBl2fpQIX39ECZ
sozBd8D6QF56C0Gou53BxnawQK8cBEHkIZnBk1SbQDYZQr9H/Z/B/p3BQMDuKD9+razBp429QLKo
9kC6UI/B5qDOQDH5DEGaUKDBj1KgQG2n+T4HL6XBDPjWQMYE1b9NSqrBBe22QELu6r86gaLB2sHc
QKfS1L4QQK/BqaqtQBwV3j+7yo/BAV2uQDqphUAQaITB2rGgQFLgJEDvtpnBo4CgQP0omkBUGI/B
CWmGQPSJdUCCQZbBEltZQAeOX8Ai0ZzBuYe/QDA0BUHxpLPB+83dQCNCKUHTla7BcRySQNSaIEFh
CarB7GCGQMeD2D/9kaHBVfGbQCoL5UAey4fBbwqbQHSQdcAVQZnBf72/QFbZFkGo/arBYl2eQNQm
gMB/DI3B9VjzQCAmLcDHaazB1FCFQN03wECPy4zBo8rzQF1ZSUD0Bo3BKdbRQDiz/j9z1HnBFnly
QPbukUBdj5/BPuy8QEg/OcD8qJvBtwn+QMjNZ77FALbBnpDHQObxicDeYorBCXSTQE6FNcC3KYjB
ZlmEQI8doMBGq4nBBaLNQLddLkAxB4fBWMkUQUqvAUHI/5HBsYbzQB5350BTKIXBiDQJQflLEUGk
UaPBJe6OQOMYBEHoOJvBNmuCQKRjY7+EF5rBT0rGQGFnzz/Gc7DBgq+QQNi9sz9UjovByRXAQPgx
Wz/nZpLB+nzBQDLCnECtmH/Bns2RQIVSeUC8j3/Bne+9QDluOkBZzp3BG0O9QAs4pECEgJPBqYBU
QJXmX0CNuJHBM1tXQCJuWMB0kaXB4uEtQPWticBBX5rBWi5FQJtLI8CdB5nB4vS0QAMLDEFLT7vB
KADgQBBM/UAdirTByXypQFWy8EDAPrHBQk3SQLPtL0FDNLbBuv3dQKXhNUEEdKjBRHH+QB0EI0H1
pK/BN5WIQL56J0GHx7HB8Jx2QAwBFEE7v6fBgSqSQPk6LUHb56PBgBV7QFydEkBlnKjBfWZSQIXW
qz9EhJ3Be3erQD5X2kDOXIDBCJ2EQLZX/kCX8YXBUEajQIbEmcAL45zBefcDQfUPG8ADG7LBPrwB
QfTNO8AHwKXBP0txQEs6ykDCs5PBmpFSQA5pqkC6dZ3B

>  <OMEGA_E>  (14) 
uCshPuCZgT7s44E+sBIePsABuz4MOLk+UBC1PoiIoz4=

>  <OMEGA_NBR>  (14) 
     23097

$$$$
50216813
     RDKit          3D

 68 70  0  0  1  0  0  0  0  0999 V2000
    8.1770    8.2177  -18.1606 C   0  0  0  0  0  0  0  0  0  0  0  0
    7.1260    7.7222  -17.3696 C   0  0  0  0  0  0  0  0  0  0  0  0
    7.9126    8.7628  -19.4314 C   0  0  0  0  0  0  0  0  0  0  0  0
    5.5355    8.3139  -19.1225 C   0  0  0  0  0  0  0  0  0  0  0  0
    4.8704   -0.8649  -19.9158 C   0  0  0  0  0  0  0  0  0  0  0  0
    6.0883    0.6361  -21.4089 C   0  0  0  0  0  0  0  0  0  0  0  0
    5.8015    7.7739  -17.8479 C   0  0  0  0  0  0  0  0  0  0  0  0
    6.5835    8.8247  -19.9283 C   0  0  0  0  0  0  0  0  0  0  0  0
    5.0448    0.4173  -20.4882 C   0  0  0  0  0  0  0  0  0  0  0  0
    6.7552   -1.7018  -21.2247 C   0  0  0  0  0  0  0  0  0  0  0  0
    5.7360   -1.9357  -20.2769 C   0  0  0  0  0  0  0  0  0  0  0  0
    6.9426   -0.4180  -21.7729 C   0  0  0  0  0  0  0  0  0  0  0  0
    5.5364    1.8058  -17.9012 C   0  0  0  0  0  0  0  0  0  0  0  0
    5.5144    4.3164  -16.5852 C   0  0  0  0  0  0  0  0  0  0  0  0
    5.0204    2.5678  -19.1478 C   0  0  2  0  0  0  0  0  0  0  0  0
    4.9658    4.8736  -17.9192 C   0  0  1  0  0  0  0  0  0  0  0  0
    4.1623    3.8054  -18.7231 C   0  0  1  0  0  0  0  0  0  0  0  0
    7.4891   10.0401  -22.0234 C   0  0  0  0  0  0  0  0  0  0  0  0
    5.1756   10.5064  -21.1931 C   0  0  0  0  0  0  0  0  0  0  0  0
    5.7257    8.2685  -22.2361 C   0  0  0  0  0  0  0  0  0  0  0  0
    4.1914    1.5927  -20.0345 C   0  0  0  0  0  0  0  0  0  0  0  0
    4.6661    7.2160  -17.0124 C   0  0  0  0  0  0  0  0  0  0  0  0
    5.0075   -3.4193  -18.4748 C   0  0  0  0  0  0  0  0  0  0  0  0
    6.2571    9.4023  -21.3246 C   0  0  0  0  0  0  0  0  0  0  0  0
    3.6005   -4.0008  -18.6917 C   0  0  0  0  0  0  0  0  0  0  0  0
    7.6091   -2.7383  -21.5921 N   0  0  0  0  0  0  0  0  0  0  0  0
    4.0501    6.0249  -17.6583 N   0  0  0  0  0  0  0  0  0  0  0  0
    7.6662    3.3461  -17.7645 O   0  0  0  0  0  0  0  0  0  0  0  0
    6.8063    2.2261  -15.6378 O   0  0  0  0  0  0  0  0  0  0  0  0
    3.6510    4.4500  -19.8923 O   0  0  0  0  0  0  0  0  0  0  0  0
    5.6649   -3.2222  -19.7484 O   0  0  0  0  0  0  0  0  0  0  0  0
    7.9654   -0.1852  -22.6276 F   0  0  0  0  0  0  0  0  0  0  0  0
    2.8086   -3.1172  -19.3512 F   0  0  0  0  0  0  0  0  0  0  0  0
    3.0473   -4.2850  -17.4860 F   0  0  0  0  0  0  0  0  0  0  0  0
    3.6867   -5.1413  -19.4270 F   0  0  0  0  0  0  0  0  0  0  0  0
    6.5505    2.8975  -16.9181 S   0  0  0  0  0  0  0  0  0  0  0  0
    9.1915    8.1801  -17.7919 H   0  0  0  0  0  0  0  0  0  0  0  0
    7.3333    7.3023  -16.3964 H   0  0  0  0  0  0  0  0  0  0  0  0
    8.7273    9.1370  -20.0335 H   0  0  0  0  0  0  0  0  0  0  0  0
    4.5202    8.3387  -19.4897 H   0  0  0  0  0  0  0  0  0  0  0  0
    4.0774   -1.0318  -19.2020 H   0  0  0  0  0  0  0  0  0  0  0  0
    6.2320    1.6174  -21.8364 H   0  0  0  0  0  0  0  0  0  0  0  0
    4.6811    1.4603  -17.3019 H   0  0  0  0  0  0  0  0  0  0  0  0
    6.1335    0.9393  -18.2216 H   0  0  0  0  0  0  0  0  0  0  0  0
    6.1065    5.0928  -16.0786 H   0  0  0  0  0  0  0  0  0  0  0  0
    4.6758    4.0155  -15.9401 H   0  0  0  0  0  0  0  0  0  0  0  0
    5.8846    2.9231  -19.7282 H   0  0  0  0  0  0  0  0  0  0  0  0
    5.8120    5.2119  -18.5352 H   0  0  0  0  0  0  0  0  0  0  0  0
    3.3326    3.4505  -18.0941 H   0  0  0  0  0  0  0  0  0  0  0  0
    7.1915   10.4305  -23.0078 H   0  0  0  0  0  0  0  0  0  0  0  0
    7.8762   10.8630  -21.4046 H   0  0  0  0  0  0  0  0  0  0  0  0
    8.2723    9.2786  -22.1525 H   0  0  0  0  0  0  0  0  0  0  0  0
    4.9455   10.9153  -22.1880 H   0  0  0  0  0  0  0  0  0  0  0  0
    4.2637   10.0757  -20.7539 H   0  0  0  0  0  0  0  0  0  0  0  0
    5.5505   11.3112  -20.5437 H   0  0  0  0  0  0  0  0  0  0  0  0
    5.4924    8.6760  -23.2308 H   0  0  0  0  0  0  0  0  0  0  0  0
    6.4922    7.4852  -22.3314 H   0  0  0  0  0  0  0  0  0  0  0  0
    4.8152    7.8386  -21.7932 H   0  0  0  0  0  0  0  0  0  0  0  0
    3.8234    2.1338  -20.9186 H   0  0  0  0  0  0  0  0  0  0  0  0
    3.3370    1.2151  -19.4537 H   0  0  0  0  0  0  0  0  0  0  0  0
    5.0568    6.9261  -16.0258 H   0  0  0  0  0  0  0  0  0  0  0  0
    3.8977    7.9933  -16.8884 H   0  0  0  0  0  0  0  0  0  0  0  0
    4.9259   -2.4538  -17.9540 H   0  0  0  0  0  0  0  0  0  0  0  0
    5.5993   -4.1166  -17.8637 H   0  0  0  0  0  0  0  0  0  0  0  0
    8.2673   -2.4052  -22.2672 H   0  0  0  0  0  0  0  0  0  0  0  0
    8.0981   -3.0692  -20.7850 H   0  0  0  0  0  0  0  0  0  0  0  0
    3.6674    6.3161  -18.5350 H   0  0  0  0  0  0  0  0  0  0  0  0
    3.1295    5.2019  -19.6374 H   0  0  0  0  0  0  0  0  0  0  0  0
  1  2  2  0
  1  3  1  0
  2  7  1  0
  3  8  2  0
  4  7  2  0
  4  8  1  0
  5  9  2  0
  5 11  1  0
  6  9  1  0
  6 12  2  0
  7 22  1  0
  8 24  1  0
  9 21  1  0
 10 11  2  0
 10 12  1  0
 10 26  1  0
 11 31  1  0
 12 32  1  0
 13 15  1  0
 13 36  1  0
 14 16  1  0
 14 36  1  0
 15 17  1  0
 15 21  1  0
 16 17  1  0
 16 27  1  0
 17 30  1  0
 18 24  1  0
 19 24  1  0
 20 24  1  0
 22 27  1  0
 23 25  1  0
 23 31  1  0
 25 33  1  0
 25 34  1  0
 25 35  1  0
 28 36  2  0
 29 36  2  0
  1 37  1  0
  2 38  1  0
  3 39  1  0
  4 40  1  0
  5 41  1  0
  6 42  1  0
 13 43  1  0
 13 44  1  0
 14 45  1  0
 14 46  1  0
 15 47  1  6
 16 48  1  6
 17 49  1  1
 18 50  1  0
 18 51  1  0
 18 52  1  0
 19 53  1  0
 19 54  1  0
 19 55  1  0
 20 56  1  0
 20 57  1  0
 20 58  1  0
 21 59  1  0
 21 60  1  0
 22 61  1  0
 22 62  1  0
 23 63  1  0
 23 64  1  0
 26 65  1  0
 26 66  1  0
 27 67  1  0
 30 68  1  0
M  END
>  <OMEGA_C>  (15) 
GdUCQbV7A0HQSJHBBAjkQBUc90D+9IrB6DP9QGY0DEGBc5vBASOxQMoFBUHy+pjBodqbQPFqXb+W
U5/BKtPCQFPWIj98RavBOaa5QJfD+EBryI7BXazSQAQyDUEsbZ/B+26hQJar1T7Y56PB8CrYQDTV
2b81zKnBEY23QFnF978eN6LBZCneQHz/1b7XLq7BZSqxQIYl5z+YNY/BUXawQIwfikBtroTBIKeg
QExWJECwLpnB+eeeQE70m0B4Wo/BMzGFQO6Kc0D/yJXBXKbvQHSkIEH2L7DBkp6lQBEaKEFyi6nB
Njm3QNhLBEF547HBPSCGQPTeyz+RRqDBj1CVQJ/p5kBOGYjBKj2gQIPVWsBgzJPBdjrIQMFvFkHT
mKrBCW9mQLQGgMCsiJXBmX3zQLpAL8CrvKzBb5qBQBzMwEAcRI3Bk1H1QCwnVkC+HY7BEs3ZQOh4
DkCQNHrBrappQAJmjkByI5/BvUa1QNc4TsDE/J3BbOT+QNWZPb5HBbXB3L8zQC+AR8A0z5rBfAZD
QMoeicBr44vBz/JrQK6FpMCYapvB1J3RQEFwOUAuWIfBPRATQdThAkHRVY7BjarqQEms6UDnK4PB
CaMLQU8xEkGxRKDBL6WQQGBrBUH16pvBrnmCQGQThL+qnZnBKmzHQIAHzz/4sK7BrcuVQI/suj9e
aorBw0XEQC14cD/LxZHBhGjDQOD3okDloIDBwJ+VQC9/gECyCn/B4U68QHgUO0BK053B8Pu5QM/H
pkAgSJTBhEhVQJPVXEC4wJDB7iDmQFDjJkESELjBsgn8QAbPLUGMPKvBQlsEQVJ1FEFhOLHBeEGe
QDilLkH2gLHB4W+IQPQ1IUERCKbBtp2xQJ/6NEF8WaTBc8GvQOTQCkGw2LnBuL/PQCSH70C6prLB
GhaaQNbV+kCOWK7BNrJ0QCGQCEBjWafB8pBVQJmJmz8hoZvB/tChQGii3UDUNIDBPHN5QCDJ/0CL
G4fBM6GdQAULHcDboY/Bly2zQI67g8Dq6I7B4kYEQWvuGcBEI7LBx5EBQVNtRMC6R6bBGrdqQJwd
ykDHR5TBLklIQE52pkBsGZ3BELIBQZx4BEGlWZHBMhviQA2u+ECM+orB05T6QDDXDEFIkpvB1tuu
QHHRBEHiFZnBwJabQDVRUb+6WKDBTALKQEZFKT9WrKrBe7i3QDI1+UAN0I7BtQzQQJc7DUFekp/B
dtGlQNnx8T6tHKTBj0/aQDpY3L+1e6nBk7u1QAEV9r/ZBaPBkDLkQDZX3b5PWq3BbbC0QLKI6j87
aI/B1XWxQCBXikBnioTBHkOkQNA/J0DXUJnBuc6fQDg4nEC9Mo/B6l6HQPmsc0CAypXBPYm1QHSi
A0F/CrLBNznsQErSIEHGYrDB9aKhQPVKJ0Hu4KnBRdaKQEKw1D+vy6DB/eKTQIHO5kBXDojB/Rek
QFf6WsBxoJTBg0zFQNIgFkH5zKrB+f7MQPnmfcCEGI/BxPf0QO2gMsAv+avBcEeBQKH8v0AZGY3B
O6P3QF7hWkAX1Y3BEAPcQCzkD0BSIHrBodNsQNGLjkAMEp/BCo6qQGZnTcC/AKDB/3oDQdFnc77g
n7PBf8TwQDmlc8AhLZXB2sfHQHNPqcD8DI3BABLTQBXRU8DLuIXBpOHTQLapO0AzQYfBf+4RQZlM
BEHVZI7BMgPpQBbK60B8JoPBxTIKQcoEE0EcaqDBg2SOQEGyBEHqC5zB7U1/QB16dr8CZZvBPKLR
QO3M0j9hpa3BwUyZQIc7uj/ZxorBE5XIQAONfD/uCZLBv6TDQJd3o0AhYYDBZLOWQM2if0Dp7X7B
3++/QGesQEB8up3Byb+6QJEdqECWBJTBylVaQLRfWkC91pDBWd2tQKbqCUHUCLrBYs7OQI/q7kCQ
uLLBE72YQOjE+ECMgq7BPIHiQLTJJkHZTLjB2rf3QApALkEKeqvBowIDQX3/FEFrVbHBChSaQJ6U
LUGz4LHBhsqEQHcJIEEJYKbBkr6sQGFvNEHhuaTBFwiBQFfLDUAV/qfBXH1cQNN8pj9XjZzBDaGg
QG1J3kBbIoDBEEl1QPoQ/0BgJYfBcfmJQIephMCDg5PBhEabQCy3HcCz5JDBCYkGQb4pHsBqkrDB
vF0AQZi9S8BvOqXBt9BoQC6tyEC/F5TB6J9JQMnSpUD68JzB9f8BQQ5VBEFvgJHB+MLiQMF4+EAQ
GovB4BD7QBrIDEESs5vBZEqvQPoBBUFpHJnBfWabQKgtVr8mP6DByuHIQIjsKD/wqarBYEm4QM1T
+UCe347B5nPQQLhODUEmpJ/BihOlQD3d6j5w/aPB7QjaQMfw27/DkKnBgc+1QChN97+CBKPBdVDj
QBZq2b7Gca3BuAK0QG/16T8pPo/BE1SxQIKHikD9hITBVJKjQANzJkBHLpnB976fQE1AnECxMo/B
9/6GQIqZc0ANt5XB+K/sQD5bIEFemrDBL9miQA3cJ0HW2KnBcmy0QOLcA0Gv+7HBvumJQF/u0T89
jKDBw3WUQHsO50CCF4jBcOGkQPk0W8A6iZTB94vFQGY7FkEF2qrBy7zMQAj0gcBIV4/BPf/0QPLu
McAFE6zBRIyBQOdXwEAEIo3BK0D3QBLyWUDAyI3B/nXbQHEzEEDT4XnBf0hsQPtUjkA0B5/Bg3yr
QEE3TsDB6Z/BiuUCQSy2XL4ZybPBFBnxQMu1WMAO+pHBr3PQQCU+q8AYm5LBg9nHQMsFgcBIj4TB
KXDTQBaAO0BAK4fBZUMSQTUSBEG7lY7Bk8XpQFpi60C5TIPB3msKQQTrEkGPkaDBlryOQEwTBUH4
ApzBnV9/QIhEfr8rPZvBfwfQQOcC0z+hpa3Bbp+YQMSiuj+UkorBQ8PHQE4nej8U15HBwLDDQNak
o0AnZ4DBBoaWQO9OgEAQ137B6T6/QEEpP0APqJ3BBb66QHDJp0CfDZTBSndZQNgFW0DKuZDB69Pi
QPBeJkFTf7jBdyn5QH2tLUFUxavBeOYCQaYwFEGlnLHBIyubQOArLkGJ1bHBMNaFQEoDIUG4OabB
euyuQDPmNEENxKTBvKCsQBYnCkGy97nBQgTNQG+27kASt7LB1naXQNsN+kCUVK7Bz8t+QCoyDEDi
sqfBYIRbQKyJoj+7LJzBJUihQCRq3kCxL4DBhLd2QCtx/0CBJYfBbUKJQPXngsDtWpPBt32eQPsV
HcBat5DBzmgGQaEaHcAGvbDBCZIAQWKDSsAxV6XBkq1pQL0ayUD9I5TBPHtJQFjRpUCP8JzBfrEC
QbpUBEEQtZHB4lPkQJZx+EAaPovBNx/8QLbaDEFa4JvBh3GwQBEbBUESIZnB2nKbQBxtX78h6p/B
ZgzHQCbIJz/ljqrBhry5QIZP+UD28I7BZlnRQCx2DUEstZ/BA82jQIy23D70u6PB507aQPMn2r+1
danBNaC2QDlv+L/k1KLBiUPiQJPe0L65Za3BoG+yQCdR6D99AY/BwZOxQFbHikASmoTBdBaiQLzq
JEAQAZnBcMKfQKYynECvSo/BVyWGQCJdc0Cun5XBhr7sQAGiIEFitrDB7z+jQLsgKEFOs6nBImS0
QMsrBEEG9rHBLSyIQE4TzT+IN6DBgOyVQLw250DCIIjBHoG9QERra8DR4pXBeeTFQHx+FkEY26rB
uAWYQIeNd8APIo7BMG31QOtEMMB9L6zBpUqCQNnlwEBZOI3BxaT2QCKqVkAi3Y3BhZnaQNIoEED9
qXnB0TxqQE/fjUAt957BrLasQEnzTsDXB6DB+wICQQA2N74b7LPBhoiKQJHqKcBZmorBLwqlQFzq
k8BKt4XB9hluQMjRj8DcNZPBM7nSQF1xOkAWIofB1AETQZgFBEHm3I7BppDrQMpX60BwdIPBK98K
QTr6EkHxzKDB98qPQLY2BUHz9ZvB5kuAQMK9hr9GxJrBjinNQOfb0j9Qna3B9ACXQCgSvD8xPIrB
kp/FQPDicj+uiZHBjZjEQF7Qo0ABpYDBntWWQK1lgUDew37BvtW9QAlqPECejZ3BVLC6QKEMp0Bu
RJTB7etXQHQmXEAogpDBRnziQBy6JkFAj7jB9IX5QEnmLUF55KvBAeECQT10FEEa1bHBhy2bQHyE
LkHVpbHBB2qGQN5AIUE9AabBe5evQLodNUFZoKTBfy6sQFuDCkG96LnBhPDMQONV70Aby7LBV5+X
QJGg+kCnOa7BYLR5QE0wCUDQVafBvhJZQLRZnD9espvBWOuiQOMY3kANRoDB3Fh6QDfh/0DPEIfB
QbnTQDstO8BvsJLBKn/OQO0+lMAX8ZbBl3IGQUt6GsB/5LDBZAYBQRhpScA2iqXBxLZrQFsAykA1
O5TB7kNIQPO2pUCi6pzBT/MBQWK4BEFe3pHBdR/jQB/P+ECNZIvBj036QAlYDUGx/ZvB7MquQHA3
BUF5MpnBjD6bQHeNUL9wiKDBgHTJQORbJz8sBKvBkXS4QO1x+UCPBo/B7HfPQDHWDUG6x5/BEIal
QBp28j4kWKTB5A/aQBPS3L/hlqnBpV61QC7R9b+ALKPBh57jQG7P4r7Dp63B8IW0QN2j6D9pgo/B
19GxQLP4iUCDj4TBI3ikQPABJ0ArZpnB5n2gQGwHnEDsO4/B4MOHQBibc0BI0ZXBLIXqQCWqIUGZ
orDBQfagQHWoKEH/i6nB5IKyQAQSBUHIH7LBy+eKQBKg1T8+9qDB4SGVQMrT5kCSI4jBzZSlQLox
WsAfoZTB3c/DQH4uF0HO26rB1RPOQKoWgsAC6o/BW0j1QG+xMsD0wavB2z2CQMwPwECyJI3BQB/4
QAXwV0BRlY3BgbbaQM9gDUA+9HnBdxBtQI6fjkBzDJ/BmUaqQFHpTMB4DKDBqg4DQf7ag76HCbTB
xVTTQDuvqcAWM5TBPgrJQMPPhcDqLIXBvKfxQACHVMDj8ZHBuKbTQL+1OUC8LofBuksSQX1+BEFj
EY/BiqLqQEGN60BOo4PBpN4JQVakE0GE66DBrRuOQCknBUEmAZzBjZp+QHHsdL/Ik5vBW+fQQKNL
0T8IG67Bou+YQHYauD949orBF2PIQPHleD9lKpLBgFXEQNHiokAtaYDBZ9qWQNDaf0Aw/H7BLkzA
QKVPQEASw53B5pW7QNOnp0CkCpTB3FxbQABYWkCr0pDBuCngQMD4J0GXbrjBJxj3QLbSLkFgtavB
dtwBQR2fFUF82rHB0r2YQLZFL0FHcLHBKz+EQNmSIUFd5KXBby2tQBeGNUFnYKTBdzGqQN2sC0Hu
ArrBjjXLQKJZ8UBQE7PBfNeVQM36+0D1ca7Ba1eBQC/bDkAJIqjBP1NcQAT3pz9jwpzBRHGiQH8u
3kDGSIDBitB3QD8E/0D1FofBluqJQEsQgsBoK5PB2kmgQDgVHMAotJDBjbYGQayrHsCOX7DBPnkA
QZXZScC35KTBC8JqQLzByEB+I5TBvSFKQI/tpUCV3pzBnOUBQan0BEHFzJDB8GjiQD3X+EB8lorB
dB/7QPnsDUFR55rBKV+vQHjKBUHfmJjBtOCbQHu2Yb/8sZ/BwxvGQK3FFz8XLqvBXxe4QKW++UD7
eI7BMJ3QQCqeDkGa6p7B6Z6jQLbTzj4NEKTB7+PYQLBq4r/+qanBTbe2QC5C/L+/cKLBdo7gQM11
+r4h/63B5Z6zQAQS6T8yk4/BYiaxQE1AikDd2oTB4+CiQCxRJUAhhpnBFY+fQDU7nEC0gI/Bc7iG
QECUc0ARE5bB+Z63QACiBUE0krHBWq/sQCp2I0FhVq/Bq1OhQDKZKEEuFqnB3rqIQC4czT+VraDB
DQuUQNV/5kAJ8YfBYgy7QDdxW8BzLJPBqP/FQFT4F0HfDqrBFPPrQIdZaMBCMZHBCtLzQE/fNMB9
UazB/WWBQPtVwEBtVo3BP8z2QCqwWUDGPY7BXn7bQNbND0DktnrB5GpsQBp5jkDgZp/BcXWvQA1Z
T8ADXJ7BHNcAQeaolL5byrTBXlP6QIoRmMC5LpbBTYjyQEAgccAihYbBQ7sBQdhMJMD+jZTBjS/T
QBYgO0CrkYfBjxsSQe2hBEHqz43Bsy/pQE8N60A72YLBLoIKQe5VFEHYpJ/Bru6OQM3lBUGdk5vB
znGBQIEFhL98QprBEDzMQDREyT8oe67BtFmYQIv+uT8v2orBEljHQNQkeD+6KpLBe4nDQP9Bo0BX
tIDBOFmWQD/cf0CuiH/Bj2O+QI8YPUC4I57BC4e6QL7fp0ACWpTBAXJYQCGWW0BUHpHBpwawQNIy
DEESg7nBJZPRQPqr80DAT7LB9wubQLao+0D5Oa7BiiXjQIa8KUGrNLfB9Cv3QMbBMEGlM6rBm5ID
QZ8HGEGEV7DB+feZQCYsL0EsCrHB9qiEQCrIIEG7zKXBvVmrQDahNUGSuqPB6Lt7QFjCCEDN36fB
ypNZQD5onz/jJpzBiZCgQC3j3EB2E4DBLKp1QKyv/kAg3obBrhiqQAQhisCtKpDBNp+wQOOqIsCW
q47BFQgFQTqdIMB3e7HB+wcBQaLfSsAFtKXB0JRqQHrmyUCgWJTBhj5KQLo2pkDbVJ3BppABQazI
A0G3BZHBKI3hQKhd90AnvorBR8H6QD89DEEbP5vBXOKuQFhaBEEA9JjBc9GcQB4+Rr/eE6DBCmDJ
QLM2Kz/qN6vBBlC3QLkp+EDZq47BD17QQFvHDEEnVp/B9aOlQM6D/D5kfqTBVDPaQO9J2r/2p6nB
iE23QJrt778SbqLBE27jQLI2275P1K3BpVi0QOn36D+fzI/BFG6wQJYiiUD6pYTBD0akQJShJ0DZ
qZnB91ufQAKim0DRS4/BpEaHQPeZc0DIGpbBZU63QLpGA0F277HBMzTtQF/EIEFv8a/BxwiiQDq5
JkGNvqnBneqKQNr41z+QSqHBiy2TQGzS5UBmBIjBiqnSQM7bbsCPaZjBIyTGQCnEFUGKkqrB2xnK
QBrqgMD+pYzBwK7zQBbKMcAZ1qzB2LOAQOE1v0AaKY3BPCP3QD3cWUD8z43ByKXaQG+nDEBBlHrB
G/xtQOsmj0BkX5/B50CuQPIURcCNcJ3B8cMCQfHMf77NWrTBDdW1QHp0PsDO+4fBqYrwQL4zh8Dx
zofBIouxQAaRpMDIuIvBMg3TQJbEOUBjaofBCb8RQdWFA0FL/o3Bfx3oQJ9Q6kCh6YLBqGYKQZ9f
EkGLBqDBD4uOQDtEBEG0/5vBb5SBQOb3Zr/r25rBR77QQLPo0j90Xq7B8caYQAA3tz8lTIvBpmzI
QIAvez/he5LBd1XCQCcHokCdU4DB4meVQEeEfEDEan/BIRzAQC1oQUDS+p3B2426QGrap0Bj+ZPB
g29ZQCvTWUC4T5HBhACwQCOeCUFL8LnB5enQQOqG7kAtjbLBe3aaQCqc90DBi67BMenjQCrMJkGU
4LfB2wj4QJgvLkET76rBO6sDQYobFUHE0bDBlt2aQIkSLUH4wLHBDiCFQG1DH0FCYqbBfoGsQAzc
M0FYgaTBZeyBQDD6D0Aug6jB6K1bQIUYqz9mM53BV5OfQOwa3UAYE4DBcvdzQAUn/kDxI4fB677u
QG21RMDzCJnBSi3ZQEmwlcBYmpzBgR8FQYAUHcBQ4rHBescAQVjyS8BlaabBXuNnQAofyECcJpTB
iZhKQKdUpkCHOZ3Bb7QCQR+4A0FPkZHBmQDkQHu790B4JIvBlpz8QFQ4DEFpw5vBEKqwQFX2BEGX
IJnBKtqbQI65Xb/yoZ/Bo7zFQEQ4Jz8fy6rBjIK5QJAb+UAB5o7BnfbRQFgSDUFeq5/BTS2jQPrG
3D69waPBrG7ZQL7L2b87qKnBDQm3QK8s+L87oaLB8+HgQDL90L7Wsa3Bo/GxQAvI6D+dC4/BN7Ww
QH2TikCPhoTBEJahQBg1JUAqCJnBRC2fQO9AnEB9N4/BzbOFQDfOc0BypJXB09i2QCqnA0FzGrLB
6EHuQHuHIEG7fbDB5uijQJhnJ0HA56nBJ5yHQD11zT9dOaDB/2uVQO9d50CDHIjBNvWnQK4AXsA2
MJTBxS7HQAYMFkE94KrBQAx3QE5Rg8Cz/5LBL5v0QHzWL8D/dazBbbyBQP4AwUAGKo3BSNr1QMyb
V0D9443B2UTaQPrFD0CzynnBwjNqQDBhjkCB/Z7B4VOwQEaQT8ATZJ/BgDYBQYW0Nr49SbTB1qA5
QL1PSsBDeJTBzsxvQLFClMBFDYnBFkhsQP7aosAEZJrBLx/SQImXOkAlJofBUvoSQd86A0Hqq47B
FeXqQCCg6kD4VYPBtEELQfskEkEWqKDBihiQQC86BUHOA5zBCI+BQLkdhb9fM5rB/V/LQEUz0j9H
963BvIOWQIEtvD9gSYrB3jDFQHBDdD9alpHB6H3DQOmJo0CDeIDBxtyVQM7agEDkwX7BtlG9QKyb
PEAYmJ3BbUO6QAQlp0AaIpTBp5VWQOyTXEDSmZDBDyavQLz9CUGIFbrBRNPPQNKr7kBM0rLBbvaZ
QOwe+UBvia7Blo3kQN+SJkFLZLjBWSP6QHngLUGMlavB6uEDQX6PFEHyeLHBe1acQO++LUGd5LHB
hfmGQOhMIEHWXqbBWWavQEN6NEHSwqTB6Hd4QEVVCUAkV6fBZQRYQMHinD8wr5vBACuiQGBq3kBA
OIDBzYZ5QBoXAEFRIofBctuoQHazIMD/3Y/Bb1fAQOiohMCj4JDBIZAFQedJGsA5d7HB7D0BQY5V
R8C64KXB5YdqQP0FykCZLZTBdlBIQK9BpkDR8ZzB

>  <OMEGA_E>  (15) 
iGZHPjimaz4ob2w+gEVtPsDzcj5Yo4Q+2OaEPoiAQj4=

>  <OMEGA_NBR>  (15) 
     32017

$$$$
50216820
     RDKit          3D

 68 70  0  0  1  0  0  0  0  0999 V2000
    8.1508    8.2209  -18.1972 C   0  0  0  0  0  0  0  0  0  0  0  0
    7.1107    7.7247  -17.3930 C   0  0  0  0  0  0  0  0  0  0  0  0
    7.8712    8.7518  -19.4707 C   0  0  0  0  0  0  0  0  0  0  0  0
    5.5003    8.2863  -19.1383 C   0  0  0  0  0  0  0  0  0  0  0  0
    4.8447   -0.8062  -20.0549 C   0  0  0  0  0  0  0  0  0  0  0  0
    6.2360    0.6821  -21.3970 C   0  0  0  0  0  0  0  0  0  0  0  0
    5.7819    7.7629  -17.8594 C   0  0  0  0  0  0  0  0  0  0  0  0
    6.5379    8.7956  -19.9588 C   0  0  0  0  0  0  0  0  0  0  0  0
    5.1210    0.4816  -20.5548 C   0  0  0  0  0  0  0  0  0  0  0  0
    6.8095   -1.6835  -21.2128 C   0  0  0  0  0  0  0  0  0  0  0  0
    5.6880   -1.8869  -20.3843 C   0  0  0  0  0  0  0  0  0  0  0  0
    7.0792   -0.3976  -21.7250 C   0  0  0  0  0  0  0  0  0  0  0  0
    5.5900    1.8059  -17.9400 C   0  0  0  0  0  0  0  0  0  0  0  0
    5.5347    4.2953  -16.5747 C   0  0  0  0  0  0  0  0  0  0  0  0
    5.0812    2.5983  -19.1738 C   0  0  2  0  0  0  0  0  0  0  0  0
    4.9843    4.8653  -17.9025 C   0  0  1  0  0  0  0  0  0  0  0  0
    4.1978    3.8036  -18.7234 C   0  0  1  0  0  0  0  0  0  0  0  0
    5.6296    8.2224  -22.2452 C   0  0  0  0  0  0  0  0  0  0  0  0
    7.4255    9.9651  -22.0877 C   0  0  0  0  0  0  0  0  0  0  0  0
    5.1346   10.4818  -21.2233 C   0  0  0  0  0  0  0  0  0  0  0  0
    4.2759    1.6607  -20.1155 C   0  0  0  0  0  0  0  0  0  0  0  0
    4.6610    7.2028  -17.0058 C   0  0  0  0  0  0  0  0  0  0  0  0
    5.6543   -3.3089  -18.4978 C   0  0  0  0  0  0  0  0  0  0  0  0
    4.8466   -4.5121  -18.0217 C   0  0  0  0  0  0  0  0  0  0  0  0
    6.1957    9.3589  -21.3578 C   0  0  0  0  0  0  0  0  0  0  0  0
    7.6627   -2.7449  -21.4994 N   0  0  0  0  0  0  0  0  0  0  0  0
    4.0529    6.0003  -17.6327 N   0  0  0  0  0  0  0  0  0  0  0  0
    7.7057    3.3645  -17.7543 O   0  0  0  0  0  0  0  0  0  0  0  0
    6.8424    2.2003  -15.6541 O   0  0  0  0  0  0  0  0  0  0  0  0
    3.6699    4.4618  -19.8776 O   0  0  0  0  0  0  0  0  0  0  0  0
    5.4139   -3.1434  -19.9092 O   0  0  0  0  0  0  0  0  0  0  0  0
    8.1572   -0.1906  -22.5166 F   0  0  0  0  0  0  0  0  0  0  0  0
    3.5348   -4.3202  -18.3279 F   0  0  0  0  0  0  0  0  0  0  0  0
    6.5880    2.8901  -16.9248 S   0  0  0  0  0  0  0  0  0  0  0  0
    9.1686    8.1949  -17.8369 H   0  0  0  0  0  0  0  0  0  0  0  0
    7.3299    7.3145  -16.4183 H   0  0  0  0  0  0  0  0  0  0  0  0
    8.6776    9.1292  -20.0821 H   0  0  0  0  0  0  0  0  0  0  0  0
    4.4817    8.2992  -19.4970 H   0  0  0  0  0  0  0  0  0  0  0  0
    3.9865   -0.9656  -19.4190 H   0  0  0  0  0  0  0  0  0  0  0  0
    6.4431    1.6661  -21.7910 H   0  0  0  0  0  0  0  0  0  0  0  0
    4.7321    1.4402  -17.3567 H   0  0  0  0  0  0  0  0  0  0  0  0
    6.1968    0.9516  -18.2746 H   0  0  0  0  0  0  0  0  0  0  0  0
    6.1171    5.0707  -16.0555 H   0  0  0  0  0  0  0  0  0  0  0  0
    4.6973    3.9768  -15.9365 H   0  0  0  0  0  0  0  0  0  0  0  0
    5.9500    2.9878  -19.7246 H   0  0  0  0  0  0  0  0  0  0  0  0
    5.8290    5.2226  -18.5098 H   0  0  0  0  0  0  0  0  0  0  0  0
    3.3780    3.4185  -18.0992 H   0  0  0  0  0  0  0  0  0  0  0  0
    5.3855    8.6210  -23.2410 H   0  0  0  0  0  0  0  0  0  0  0  0
    6.3812    7.4253  -22.3437 H   0  0  0  0  0  0  0  0  0  0  0  0
    4.7200    7.8135  -21.7811 H   0  0  0  0  0  0  0  0  0  0  0  0
    7.1169   10.3465  -23.0723 H   0  0  0  0  0  0  0  0  0  0  0  0
    7.8379   10.7898  -21.4880 H   0  0  0  0  0  0  0  0  0  0  0  0
    8.1930    9.1883  -22.2197 H   0  0  0  0  0  0  0  0  0  0  0  0
    4.8934   10.8804  -22.2198 H   0  0  0  0  0  0  0  0  0  0  0  0
    4.2239   10.0722  -20.7620 H   0  0  0  0  0  0  0  0  0  0  0  0
    5.5338   11.2896  -20.5922 H   0  0  0  0  0  0  0  0  0  0  0  0
    3.9589    2.2275  -21.0034 H   0  0  0  0  0  0  0  0  0  0  0  0
    3.3888    1.2892  -19.5817 H   0  0  0  0  0  0  0  0  0  0  0  0
    5.0647    6.9276  -16.0202 H   0  0  0  0  0  0  0  0  0  0  0  0
    3.8856    7.9732  -16.8823 H   0  0  0  0  0  0  0  0  0  0  0  0
    5.3348   -2.4065  -17.9560 H   0  0  0  0  0  0  0  0  0  0  0  0
    6.7256   -3.4838  -18.3193 H   0  0  0  0  0  0  0  0  0  0  0  0
    5.2118   -5.4214  -18.5216 H   0  0  0  0  0  0  0  0  0  0  0  0
    4.9579   -4.6224  -16.9330 H   0  0  0  0  0  0  0  0  0  0  0  0
    8.4004   -2.4286  -22.0958 H   0  0  0  0  0  0  0  0  0  0  0  0
    8.0509   -3.0994  -20.6487 H   0  0  0  0  0  0  0  0  0  0  0  0
    3.6496    6.2796  -18.5040 H   0  0  0  0  0  0  0  0  0  0  0  0
    3.1318    5.1960  -19.6057 H   0  0  0  0  0  0  0  0  0  0  0  0
  1  2  2  0
  1  3  1  0
  2  7  1  0
  3  8  2  0
  4  7  2  0
  4  8  1  0
  5  9  2  0
  5 11  1  0
  6  9  1  0
  6 12  2  0
  7 22  1  0
  8 25  1  0
  9 21  1  0
 10 11  2  0
 10 12  1  0
 10 26  1  0
 11 31  1  0
 12 32  1  0
 13 15  1  0
 13 34  1  0
 14 16  1  0
 14 34  1  0
 15 17  1  0
 15 21  1  0
 16 17  1  0
 16 27  1  0
 17 30  1  0
 18 25  1  0
 19 25  1  0
 20 25  1  0
 22 27  1  0
 23 24  1  0
 23 31  1  0
 24 33  1  0
 28 34  2  0
 29 34  2  0
  1 35  1  0
  2 36  1  0
  3 37  1  0
  4 38  1  0
  5 39  1  0
  6 40  1  0
 13 41  1  0
 13 42  1  0
 14 43  1  0
 14 44  1  0
 15 45  1  6
 16 46  1  6
 17 47  1  1
 18 48  1  0
 18 49  1  0
 18 50  1  0
 19 51  1  0
 19 52  1  0
 19 53  1  0
 20 54  1  0
 20 55  1  0
 20 56  1  0
 21 57  1  0
 21 58  1  0
 22 59  1  0
 22 60  1  0
 23 61  1  0
 23 62  1  0
 24 63  1  0
 24 64  1  0
 26 65  1  0
 26 66  1  0
 27 67  1  0
 30 68  1  0
M  END
>  <OMEGA_C>  (16) 
hGkCQfOIA0Hpk5HB7orjQMYw90DUJIvBuuD7QHcHDEEKxJvBdAKwQJSUBEFLG5nBygebQN9fTr9x
cKDBI43HQGWeLj8bLavBEwW5QElp+EAF4I7BjjbRQJO6DEGeq5/BQt+jQByS9j5EcKTBsefZQLN7
17/Ps6nBDQS2QLeE8b8WE6PB7ojiQL6Xy77LzK3BgeGyQI4n5z8dhY/BIhyxQEtziUAPmYTBFpmi
QONKJkDbY5nBU3+fQLqwm0BPOI/BUlSGQHFuc0B0yZXBzyW0QPOOA0FA9rHBjp3tQPNwH0Grs7DB
6k6kQJW1J0FCyanBKtSIQDKR1D+Z7KDBKieVQDh95kDVC4jBIfC0QL/FU8B5+5PBphebQHljkMCH
LJDBlUPGQOu9FUHC3KrBPjX1QDysL8Cu/qvBuLGBQBACwEC3D43BfpX2QKxTV0DjCI7BQ/XaQPrQ
DEAUd3rBi99qQHfHjkBtBZ/BfD6tQDwtScASRp/B94MCQVEnQ74DIrTBQzpiQPo+isCin5LBidDS
QKb2OEAVZofBY7ISQWoeA0H9sY7BOo7qQCEQ6kCaWIPBStcKQT8REkEOqKDB0mmPQKjJBEHJ+ZvB
BSJ/QHEwd78WWpvBHC7OQJRC1T8QVK7BW22XQGFZuD+A2orB80vGQI2Zcz9wMpLBm7/DQOZCokCy
cYDBH1CWQCWEfkAG/H7Bm2a+QJo4P0Dwy53BFIe6QGQfp0AhFJTBAzFYQFTJWkARy5DBX1asQM/v
CUGK7bnBxzLMQLub7UDev7LBhwqXQNYH+kCvP67BXb3jQB2LJUH8k7jBzc/6QC6jLEFf56vBqBYD
QRsDE0EBwrHB8pacQAQWLkEPwrHBEyqHQLAnIUGpGKbBmRSxQCCiNEHavKTBrl59QCGPDkDhBqjB
wuFYQOsDpT9Ap5zBvRGiQIeu3UBoKYDBI654QEok/0D6DofB4LaqQCkEGsDnpY/BwTfXQIn2XsDk
jZLBUMemQDN8rcBALJTBU6eeQNvqk8CydofBC2gGQXltG8BNxLDBodAAQXhcRsCDMKXBl5JpQHfy
yEA/CJTBnm5IQHdFpkB72JzBXvoBQfxsBEE/b5HBXuDiQLNw+EAJBIvBz876QMXmDEGEnZvBBCqv
QI/iBEGp+5jBn+maQM4qU7/rb6DBNtnIQCGKJz+36KrBaFu4QE4R+UDBwo7BUyLQQOJbDUEYhJ/B
7eGkQL5i7j5yQ6TBhP/ZQGI03L9meanBAl61QENz9r/gC6PB8lLjQCTj3r4phq3BOT+0QPFK6T8i
io/BS5GxQNjsiUDin4TBkbKjQOnOJkBNbJnBQtufQDsKnECIP4/BUBuHQMqoc0C62JXB5WS1QAPU
A0Hm9rHBAKPrQK87IUHXTbDBIBChQOpSJ0HQrqnBewOKQBEH1D9d4qDB1aqUQM6S5kBq+IfBLAGi
QDq9W8A3xJTBgSHIQMr7hMAyi4/Bpf/EQBVSFkHHs6rBYlb1QLsZMsD8sKvB2qiBQIMFwEB2EY3B
mWL3QP/yWUDLC47BoB/cQO3SDkChf3rBBl1sQNq/jkAMGZ/Bfo6qQKjQTcBoC6DB5vICQS2mdb4c
3bPB/obsQNSXWsBBYpDBOcXTQPHAOkA/a4fBAkMSQVw6BEGDi47B5wrqQPtc60CuOIPBVzsKQQ0c
E0FngKDB2peOQBjTBEEq35vBMO19QC0Ueb/FfpvBFxTQQGaa0T8L/63BQOmYQPRfuT++34rBVfnH
QBV/eT8ENJLBUuTDQM3pokAnc4DB29WWQAPQfkAJFH/Bb1e/QJf4P0D+3p3B7cu6QD/Qp0BRFpTB
3sJZQCigWkB24ZDBA3GtQMwmCkG97rnBD9vOQIiI70AOtbLBfcyYQFHY+EBaaa7BYqvhQG0+J0HQ
MLjB3AD3QPinLkFZX6vB+80CQeOGFUFsULHBtTeZQKWqLUFfp7HB62uEQC7oH0G+KKbBHxCsQN10
NEF/gqTBpQ2AQOeXDUDKDqjBFwZbQKbfpT/SmZzBEKahQKqs3UBZGYDBbSp3QIPs/kCR8YbBCw+F
QNSXgcAB5ZPBEAudQGWvHcDBzJDBVArBQN5pisAcCIfBWgXNQNHto8A1jpPBw7QGQXe6HcA3TrDB
qosAQfRoScBA2KTB4JVpQCsCyUA5CpTBXo9JQEgipkCd8JzBdtwBQWV3BEGmi5HBP6niQAaJ+EBb
H4vB4Iv6QPL3DEEUuJvBIeiuQFnxBEFVFZnBSTabQE8KUb94gKDB76nJQDXsJz9Y46rBRSK4QAsv
+UDE247But3PQFdwDUHYnZ/BYY6lQH8R8j5rR6TBsi7aQNKx3L/6ganBp1e1QNsE9r9MJKPB9ejj
QFEG4b4Tgq3BpbK0QG6o6T/7hY/BKqWxQGAKikBek4TBdESkQAMtJ0C7Z5nBDQagQD8TnEDLN4/B
uXCHQIWTc0DS0JXBs4LrQGAjIUEyc7DB/kehQHa8J0EDvKnB/Xy0QCAXBEE9CLLBjMSKQIk31T9u
7aDBhIKUQMOz5kBiC4jBZbmjQNSrW8DbzpTBFQbLQM2zhMCPEpDBbbjEQKl7FkFxyqrBuVb1QBKx
MsCFs6vBNKyBQJP4v0BxFY3BZMn3QKsbWkBI243BAenbQOPXDkBgRHrBapZsQJekjkADDZ/Bs+up
QJdCTcDdKqDBe0wDQc08gL5E0rPB0kXvQLOkWsCdlZHBrOzTQD/lOkCKUIfBxSYSQYI+BEFiqo7B
itjpQAZz60CEVIPBuBgKQYowE0GsmqDBtFWOQDfdBEGg+JvBX2h+QMSrdb8+kpvBCS7RQOe60T9U
8a3BkE2ZQCMEuT+w6IrB+ZXIQDMuez8YMJLBHOrDQOkSo0AeZ4DB3NyWQAkdf0AnAX/BZfG/QA+4
QECNzp3BA/66QDzkp0BcCpTBjataQAkmWkBg15DBHIThQF83J0FPUrjB8ln3QLt7LkEKiavBeZIC
QZ5CFUG8f7HBc3WZQDIfLkG7srHBOoGEQCmGIEFhLKbB3L6sQFHMNEFilKTBvoasQN92CkFY/bnB
sZ/NQCm870AVz7LBe8iXQBq8+UDVcK7BDhaBQIFbDkCXHKjBFjJcQJdRpz82tJzBMIShQNEK3kC4
KIDBYaZ2QFj5/kBDDofBHyeHQBzRgcDTmJPBJUyfQKzPHcBjwZDBqAfGQHpsicAdcYfBNsjOQLH7
o8A6/5PBqcwGQeeTHsCxRbDBdmsAQeJISsDN16TByoBpQOG+yEDsEJTBn35JQKHkpUAi4JzBCoAC
QU7VA0GEmZHBHbjjQN+s90D7LYvBpQ38QONmDEHXxZvBCjWwQDrkBEF9IpnB+W+bQP8kXL9Q4Z/B
vVnGQPjIJz+F0qrBpTO5QMPk+EAw647BeWPRQFonDUFlq5/BHmejQCz63z7h5KPBX4/ZQNEu2r+m
pKnB15G2QO6497/qxKLB2mvhQJ1p0r5eqq3BqZGyQPYw6D/KKI/BtwOxQDpJikB+j4TBZBqiQCk3
JUBlHpnB4WyfQOUFnEDRPI/BxBuGQDdzc0DHsZXBDI/tQPOVIEHDhrDBdaOjQFbaJ0FTv6nBIny1
QA4OBEFEErLBBQiIQJZhzj80WKDBVkGVQET95kA0HYjBuPuqQMdnW8DcAJTBJU2BQKTLhcDxv5HB
PHPGQNFKFkEd1qrBAtb0QEY4MMA2TKzBqcKBQFeMwEBxKI3Bolz2QEuuV0Ce5o3BWK3aQH1ID0Cp
6XnB+u5qQL1NjkDbBp/BrM+uQEuoTsASap/Bt6EBQRQJPb57LLTBsqo+QJdKXMA5FpXBx5XSQMRG
OkCHM4fB0sgSQfNmA0Gct47BErrqQDx46kDKY4PBTe4KQft0EkEoqKDBt6CPQPoQBUErBJzBAKGA
QBkMhL9ymprB61fMQKd60j9b9K3B9C6XQPiguj+da4rBPvTFQJZKdD/lvJHBULbDQJhFo0BbfYDB
ODKWQG5tgECU137Besi9QKnkPEDBrZ3B7nW6QEkjp0DrI5TBr25XQNrjW0DXq5DBG7LjQPy/JkE+
ZLjBZfL5QJ/SLUF6n6vBkV4DQTV5FEGhl7HBnvCbQKZQLkEHtLHBlKiGQCjkIEE4KqbBfqCvQGvO
NEFAmaTBhqytQLmBCkHBBbrBCyvOQH4370DM3bLBeY+YQEYt+kCbdq7B2Y55QIgXCkBQc6fBXLFY
QDUWnj8205vBwBiiQAMc3kAfOoDBfPN4QC6t/0DQIIfBdmmqQKUIHcC97I/BslPGQLaMgMASFpHB
oZ6BQA2BpMDjDJbBKgR9QBC/i8DHGonBUuEFQULlGsClM7HBHBcBQeCqR8C2pKXBPUxqQHCCyUAu
KZTB8+BIQKoXpkDa9ZzB

>  <OMEGA_E>  (16) 
cK1WPgBVYz4IeGk+sPNSPg==

>  <OMEGA_NBR>  (16) 
     36657

$$$$
50216816
     RDKit          3D

 72 74  0  0  1  0  0  0  0  0999 V2000
    8.1225    8.2526  -18.1507 C   0  0  0  0  0  0  0  0  0  0  0  0
    7.0780    7.7452  -17.3593 C   0  0  0  0  0  0  0  0  0  0  0  0
    7.8536    8.7780  -19.4287 C   0  0  0  0  0  0  0  0  0  0  0  0
    5.4848    8.2824  -19.1276 C   0  0  0  0  0  0  0  0  0  0  0  0
    4.8475   -0.8479  -20.0098 C   0  0  0  0  0  0  0  0  0  0  0  0
    6.2960    0.6261  -21.3127 C   0  0  0  0  0  0  0  0  0  0  0  0
    5.7554    7.7653  -17.8439 C   0  0  0  0  0  0  0  0  0  0  0  0
    6.5264    8.8062  -19.9338 C   0  0  0  0  0  0  0  0  0  0  0  0
    5.1653    0.4400  -20.4921 C   0  0  0  0  0  0  0  0  0  0  0  0
    6.8092   -1.7533  -21.1465 C   0  0  0  0  0  0  0  0  0  0  0  0
    5.6701   -1.9549  -20.3311 C   0  0  0  0  0  0  0  0  0  0  0  0
    7.1158   -0.4672  -21.6404 C   0  0  0  0  0  0  0  0  0  0  0  0
    5.6224    1.8053  -17.9087 C   0  0  0  0  0  0  0  0  0  0  0  0
    5.5311    4.3008  -16.5594 C   0  0  0  0  0  0  0  0  0  0  0  0
    5.1182    2.5850  -19.1521 C   0  0  2  0  0  0  0  0  0  0  0  0
    4.9895    4.8594  -17.8958 C   0  0  1  0  0  0  0  0  0  0  0  0
    4.2214    3.7867  -18.7191 C   0  0  1  0  0  0  0  0  0  0  0  0
    5.7040    8.2048  -22.2438 C   0  0  0  0  0  0  0  0  0  0  0  0
    7.4176   10.0248  -22.0337 C   0  0  0  0  0  0  0  0  0  0  0  0
    5.0854   10.4372  -21.2285 C   0  0  0  0  0  0  0  0  0  0  0  0
    8.3464   -3.4120  -17.8548 C   0  0  0  0  0  0  0  0  0  0  0  0
    4.3228    1.6329  -20.0863 C   0  0  0  0  0  0  0  0  0  0  0  0
    4.6297    7.1937  -17.0049 C   0  0  0  0  0  0  0  0  0  0  0  0
    4.8803   -3.4939  -18.6148 C   0  0  0  0  0  0  0  0  0  0  0  0
    6.0185   -4.1100  -17.7837 C   0  0  0  0  0  0  0  0  0  0  0  0
    6.1970    9.3610  -21.3390 C   0  0  0  0  0  0  0  0  0  0  0  0
    7.6378   -2.8248  -21.4633 N   0  0  0  0  0  0  0  0  0  0  0  0
    4.0431    5.9852  -17.6401 N   0  0  0  0  0  0  0  0  0  0  0  0
    7.7234    3.3808  -17.7074 O   0  0  0  0  0  0  0  0  0  0  0  0
    6.8430    2.2211  -15.6115 O   0  0  0  0  0  0  0  0  0  0  0  0
    3.6988    4.4327  -19.8830 O   0  0  0  0  0  0  0  0  0  0  0  0
    5.3293   -3.2541  -19.9770 O   0  0  0  0  0  0  0  0  0  0  0  0
    6.9981   -3.0993  -17.4508 O   0  0  0  0  0  0  0  0  0  0  0  0
    8.1999   -0.2759  -22.4290 F   0  0  0  0  0  0  0  0  0  0  0  0
    6.5992    2.9024  -16.8890 S   0  0  0  0  0  0  0  0  0  0  0  0
    9.1357    8.2395  -17.7769 H   0  0  0  0  0  0  0  0  0  0  0  0
    7.2890    7.3403  -16.3806 H   0  0  0  0  0  0  0  0  0  0  0  0
    8.6635    9.1631  -20.0305 H   0  0  0  0  0  0  0  0  0  0  0  0
    4.4714    8.2793  -19.5011 H   0  0  0  0  0  0  0  0  0  0  0  0
    3.9727   -0.9898  -19.3926 H   0  0  0  0  0  0  0  0  0  0  0  0
    6.5326    1.6099  -21.6902 H   0  0  0  0  0  0  0  0  0  0  0  0
    4.7621    1.4345  -17.3322 H   0  0  0  0  0  0  0  0  0  0  0  0
    6.2407    0.9550  -18.2325 H   0  0  0  0  0  0  0  0  0  0  0  0
    6.1019    5.0838  -16.0387 H   0  0  0  0  0  0  0  0  0  0  0  0
    4.6897    3.9792  -15.9281 H   0  0  0  0  0  0  0  0  0  0  0  0
    5.9876    2.9748  -19.7018 H   0  0  0  0  0  0  0  0  0  0  0  0
    5.8367    5.2227  -18.4960 H   0  0  0  0  0  0  0  0  0  0  0  0
    3.3982    3.3988  -18.1012 H   0  0  0  0  0  0  0  0  0  0  0  0
    5.4688    8.5964  -23.2445 H   0  0  0  0  0  0  0  0  0  0  0  0
    6.4918    7.4413  -22.3248 H   0  0  0  0  0  0  0  0  0  0  0  0
    4.8013    7.7551  -21.8047 H   0  0  0  0  0  0  0  0  0  0  0  0
    7.1185   10.3971  -23.0246 H   0  0  0  0  0  0  0  0  0  0  0  0
    7.7771   10.8639  -21.4200 H   0  0  0  0  0  0  0  0  0  0  0  0
    8.2221    9.2833  -22.1483 H   0  0  0  0  0  0  0  0  0  0  0  0
    4.8535   10.8297  -22.2295 H   0  0  0  0  0  0  0  0  0  0  0  0
    4.1813    9.9869  -20.7928 H   0  0  0  0  0  0  0  0  0  0  0  0
    5.4329   11.2583  -20.5843 H   0  0  0  0  0  0  0  0  0  0  0  0
    9.0173   -2.5910  -17.5617 H   0  0  0  0  0  0  0  0  0  0  0  0
    8.6695   -4.3422  -17.3646 H   0  0  0  0  0  0  0  0  0  0  0  0
    8.3812   -3.5417  -18.9466 H   0  0  0  0  0  0  0  0  0  0  0  0
    4.0214    2.1841  -20.9893 H   0  0  0  0  0  0  0  0  0  0  0  0
    3.4262    1.2768  -19.5578 H   0  0  0  0  0  0  0  0  0  0  0  0
    5.0232    6.9226  -16.0142 H   0  0  0  0  0  0  0  0  0  0  0  0
    3.8446    7.9558  -16.8916 H   0  0  0  0  0  0  0  0  0  0  0  0
    4.0253   -4.1859  -18.6301 H   0  0  0  0  0  0  0  0  0  0  0  0
    4.5725   -2.5408  -18.1601 H   0  0  0  0  0  0  0  0  0  0  0  0
    5.6037   -4.5330  -16.8569 H   0  0  0  0  0  0  0  0  0  0  0  0
    6.5030   -4.9075  -18.3661 H   0  0  0  0  0  0  0  0  0  0  0  0
    8.3882   -2.5065  -22.0426 H   0  0  0  0  0  0  0  0  0  0  0  0
    8.0097   -3.2184  -20.6226 H   0  0  0  0  0  0  0  0  0  0  0  0
    3.6498    6.2603  -18.5174 H   0  0  0  0  0  0  0  0  0  0  0  0
    3.1526    5.1646  -19.6211 H   0  0  0  0  0  0  0  0  0  0  0  0
  1  2  2  0
  1  3  1  0
  2  7  1  0
  3  8  2  0
  4  7  2  0
  4  8  1  0
  5  9  2  0
  5 11  1  0
  6  9  1  0
  6 12  2  0
  7 23  1  0
  8 26  1  0
  9 22  1  0
 10 11  2  0
 10 12  1  0
 10 27  1  0
 11 32  1  0
 12 34  1  0
 13 15  1  0
 13 35  1  0
 14 16  1  0
 14 35  1  0
 15 17  1  0
 15 22  1  0
 16 17  1  0
 16 28  1  0
 17 31  1  0
 18 26  1  0
 19 26  1  0
 20 26  1  0
 21 33  1  0
 23 28  1  0
 24 25  1  0
 24 32  1  0
 25 33  1  0
 29 35  2  0
 30 35  2  0
  1 36  1  0
  2 37  1  0
  3 38  1  0
  4 39  1  0
  5 40  1  0
  6 41  1  0
 13 42  1  0
 13 43  1  0
 14 44  1  0
 14 45  1  0
 15 46  1  6
 16 47  1  6
 17 48  1  1
 18 49  1  0
 18 50  1  0
 18 51  1  0
 19 52  1  0
 19 53  1  0
 19 54  1  0
 20 55  1  0
 20 56  1  0
 20 57  1  0
 21 58  1  0
 21 59  1  0
 21 60  1  0
 22 61  1  0
 22 62  1  0
 23 63  1  0
 23 64  1  0
 24 65  1  0
 24 66  1  0
 25 67  1  0
 25 68  1  0
 27 69  1  0
 27 70  1  0
 28 71  1  0
 31 72  1  0
M  END
>  <OMEGA_C>  (17) 
3vUBQcgKBEGlNJHBGH/iQAHZ90DV34rBVFD7QM9yDEESbpvBJIOvQLGEBEFGBZnB3B6bQLIRWb8M
FKDBs3jJQDhFID+CgKrBOiy4QJ59+EBiwI7BT9jQQD7mDEFSeJ/BMEqlQLdE4T7a76PB4eTZQBFt
4L8ELKnBnnG1QAo5+r8fpqLBirTjQA87776JH63BGeuzQB0T5z8RRY/BCf+wQCygiUCUeYTBssij
QP1vJUBmN5nBE6qfQG+Am0CJKo/BjxWHQP9ZckDOwJXBV4e2QOBGA0Fh87HBWF3tQIJlIEEbRbDB
eLuiQOP+JkHm06nB8YoFQTVeWsCz1o7BAlSKQAcC0T/OsKDBZiaUQPwy5kAWCojBByucQB6cX8Aw
65TB3pfAQNuEg8ABRY7BwE3GQKHGFUFMtqrB2Wj0QLfINMDjtKvBDWGBQH6Gv0D0Ho3BSCb3QJ1e
WECqqI3BiPnaQPQlDkDkyHnBj7lsQPjYjUBMEJ/B1omqQMdCUMDr0J/BP/DfQJBaRsBSm4vBxTID
QaRBjb6abrPBdCzTQE/AOUCdHIfB1ysSQc7UA0EtN47BjT/pQN7j6kBjC4PBx50KQeKbEkF4PqDB
xxWPQPV3BEE7ApzBFkB+QAdlfb8YJJvB3grRQOIRzj9vha3BGmOYQJOetz9oqIrBlLPHQGJ7dD87
3JHBgULDQLeuokAtT4DB4BGWQHyrfkBW2X7BgZq/QJpjPkBEnZ3BPsa6QKogp0DP95PB8ntZQFiG
WUA5z5DBawCvQLqKCUHC9LnBpbzPQHMf7kBDmbLBRaSZQIEp+EAKcK7BucrjQLZaJkFxMrjB9d34
QJrSLUE2XKvBsY0DQZOIFEHJL7HBkE+bQJ1GLUEZ1rHB6syFQHzKH0GpV6bBuNqtQCgiNEGbrKTB
60YQQXnTJcBnfozBaLYKQULzisCv6orBUhkGQZOrYsClkpfBWK+AQI7IC0AM6qfBX0ZbQPVsoz9s
dpzBXb6gQOqF3UACHYDBBg52QCuW/kAHIofBLs+AQJXyhcCDCpXBiVGSQNebIsDmR5HByFGzQFsO
kcDl2obBpxjQQH0KncC/7ZLBMzYGQfppIMA4V7DBkScAQeT5TcAi+6TBCJdpQPpTyECxI5TBZ8RJ
QDxEpUAR+JzBc3kDQS+cAkF0CpLB8KrlQILp9UAmhIvBeNv9QKM3C0HhMpzBQ9uxQEJ+BEEBUZnB
F+qaQCKAV7/m4J/B6wHDQIaRMT8WQqvBCwG7QLT190BXII/BIwvTQEFaDEE5+J/B5eWgQNtw5z7I
HaTBV/nYQHYQ0r9D7KnBmSK3QCcT8b/Tv6LBBP7eQOOpsr5hJa7Byv+vQPcb5D83GI/BYqqwQJ+G
iUAsj4TBm/SfQCXuI0D+CZnBgjGfQK50m0AfO4/BD9eEQBw3c0DulJXBwCjvQOsTH0F8B7HBiB+m
QDt5J0Fe+6nBaG+1QKdLA0FMM7LBaJFSQBkhhcBC25LB/mSFQBztzT85TKDBJAeXQK/Z5kCyNIjB
U9bFQNpWUMB34JPB5Ru1QEMSkcBgiI7BMeTHQOpuFUGPIavB6/f0QLnkKsBBmqzBOX6CQGTBwEDD
KI3B2x31QHbSUUD54I3Bc2nYQHWHC0DdzXnB0mtoQChgjkD94p7BqaayQM0nSMBOU57BUn6JQLVG
jMBLuIrB5xQAQawAx73MzLTBVO/QQOOzNkA6KofBFdATQcriAUFIQI/BIcrsQIWY6ECjvoPBRNQL
QXIBEUFYKqHBJiSRQG4IBUGfFpzB8sSAQH58hL+acZrBUKrHQGZo1z8Ghq7BZm2UQE4VuT+hVIrB
DbTCQLibaD8UsZHBTizEQKEcokAgk4DBYMGVQIyQgED8sX7BvN67QBKeOkCelp3BUVi6QK/EpUDg
M5TBOetUQDnXXECIeJDBXx3lQB47JUHY4bjB1Zf8QII6LEHAPazBtcsDQauaEkHPI7LBx0GeQHzm
LUFI77HBJgSJQC74IEF6QKbBHCSzQBVZNEHl8KTBEXWtQOexCUHYJrrB8VvNQFP87EAFCLPB7mCY
QHKe+UAkcK7B8WQTQPf/gcB0DY/BvZBhQAQ2T8AxRJfBMtJRQHZaoMAeb5jBeBdzQCrSCkBwRKfB
ljNUQFiBmz97uJvBhxCkQCHL3UD6WYDBB519QFMGAEHkKYfB0lG9QBCAGMBz9Y7BSdfoQFYHVMCb
rpTBeh22QJhVq8D2YpTBkuHJQIHnmMAbtIfBN3YFQVIRFcBbvrHBh78BQQA+QMAv/qXBqddrQHnZ
yUDnJ5TBPGpHQKR/pkDzy5zB9dMDQS3xAUHaMZLBcTTmQNJ59UBEmIvBzr3+QDY+CkETbZzB4Jmy
QBAQBEFHepnBPhWbQLqWWL/KrZ/BLg3CQNhbNT/eJqvBMJC7QGS490BGN4/BUO/TQCKNC0FOMKDB
UVKgQGHK5z5L7qPBOL7YQOhRz7/iAKrB37q3QAxG8L8lqKLBhjHeQGuvpb5EKq7B6R+vQDjj5D/6
2Y7BsBiwQOLdiUD5aITBCDCfQAn9I0DC1JjBXsmeQAuqm0B3HI/B7j2EQAC1c0AQbpXB3SW3QI3/
AUGrb7LB/TXwQHIlHkEjQbHBZ7GmQHc4JkHGbarBzSpKQDlJhMDlGZLB9pyEQJVHzT/SDKDBdmOX
QPdZ50DSPojBwOq+QHRxTcA4HZPBaB+xQE64ksBi6o7B0vLIQM1cFEG2aavBRLf0QD8DKcDQ4azB
XGuCQDNEwUCXGI3BQG30QBjYUUDqs43B0q/XQGtUDEDDXHnBAKVnQLCTjkDOw57Bw8O0QEStSMBW
Xp7ByjiJQCaNoMC7xJPB9g//QLDQb72737TBIjrQQEQnN0Cp94bBbykUQTYbAUH9Z4/B+y3tQJyz
6EAhwoPBylUMQTGpD0GJdKHBveeRQNylBEH3QpzBoUiBQMmYhr+IK5rBokrGQKTD2T/yYa7BdIGT
QADMuj9pEorBkbPBQPYEaT+raJHBaKXDQHdzokATcIDBwR2VQEEQgUCPaH7Buii7QP9AOkAfZJ3B
OAu6QBqnpUCNFpTBvodTQFzUXUADUZDBc0qvQHc1CEGwbrrBnGPPQHaj6kDoKLPBxh2aQMDT9kBu
tK7BMFXmQHQaJEGBKLnBTyH9QKZ1K0GBfazBmX4EQSHOEUEgQLLBpveeQBRyLEEgbrLB3puJQEac
H0EBvKbBTzWzQCBFM0HEa6XBG0wRQPqdkcBtE5bB1LE9QGkpgcDEeYnBYKJYQHI2ScDwe5XBsdZw
QAlcCkBW/qbB0htTQBr6mT+fbJvBi1GkQO1/3kCMXYDBvet+QPJvAEF+RofBR7CtQIjgGsAyw47B
nJLhQLMyRcC/95HB6D3KQPo3qsDMyJDB6tSsQBvUkMCqMYbBag4FQdGuEsCdIrLBb/YBQeNjPsDU
XqbBBaFrQBc5ykCdGZTBdNxGQBHSpkAmtZzB4hQCQa28A0GUT5HBRbbiQKd390Cw84rBVoj7QAks
DEEJh5vBQaavQN6EBEEIDZnBjfSaQPLZWb9mIaDB0w/JQKRVIT+PjKrBjFa4QHZo+EC1yo7BhwLR
QJzKDEGghp/BB/WkQGfk4D4Q96PBCtPZQBWt378UP6nBPXm1QLkd+r+ws6LB6GbjQGJw674bM63B
sqKzQEG+5j/yPY/BhvGwQBWaiUC1c4TBNHqjQKc9JUAGMJnBc4+fQPJ6m0BFI4/BtOKGQIZXckB+
t5XB4I/tQCNAIEG0U7DBLBSjQBoJJ0E/2KnBN2q2QP1BA0Hj+7HB9x4FQVC+W8CjzY7BlvOJQJmT
0D/Dp6DB6EuUQI9O5kBdDYjBwgucQIQXX8Dk7ZTBurC/QLsWhMBBLY7B+nHGQD63FUEcwarB7Yn0
QAsoNMDkxKvB1V+BQLmav0BXF43BYPL2QAEYWEDwsI3BDfjaQBcEDkCTynnBpHhsQGDjjUAlB5/B
yh+rQOlJUMBFx5/Bl1ffQAexSMCtSovBWwQDQd64hr5vhLPBagvTQM+VOUB1HIfBf08SQUdqA0ES
WY7BPXvpQPV06kDkIIPBsLwKQbo5EkElXqDBdi6PQOOVBEHaApzB0OB9QJeAf7/TNZvB+37QQLXG
zj+lj63BCB6YQAKhtz+PnIrBqVbHQMlccz9I1ZHBXkbDQOCiokDrS4DBPAuWQL2zfkBuxn7B2Uu/
QOgRPkC5mJ3Bhqq6QMYIp0C085PBjwZZQNusWUBRxZDBB/vjQDJAJkHSPrjB4j35QN6iLUFvaqvB
oZYDQT1TFEG2Q7HBFaebQDNYLUHt2LHBRBmGQOzoH0EKWKbBL2auQPAiNEHbsaTBXtyuQEeLCUHL
+7nBuH/PQAn37UB2prLBbH+ZQGFC+EC0c67B7fcPQVkuKMDqQYzBtV4KQVRTjMBhQYvBamQFQTj1
YMD7k5fB2R2AQNCsC0DD2qfBvcBaQMF+oj9IZpzB6uigQH213UBsH4DBh392QH/H/kCwKIfBNDaA
QI8ThcDSJJXB2bGSQLCzIcC9T5HBkrGxQKG5kcB724bBECDPQEWnncDh1ZLBFToGQYeZH8AYbLDB
nUgAQZEKTcA7CqXBzmxpQJxayEDoGpTBY6ZJQChcpUBJ75zByxsEQR3q/0B0j5TBzRjqQHIL8UBu
D43B9136QORbCUFyMp7BXzywQMeiA0ER6JjB9+CaQHCqHr/KqqDBjAvCQFNBNz8ys63BDQC+QKjY
9ECOQY/BFxXOQKPCC0GKYaDBNz6gQBrDFT+sRKbBv5HYQKgyyb+25anBmGW4QE421L+bBqLBhoPd
QOUAwL5iuK/BGl2uQNGb3D+prpDBk+OuQCWog0BnpoTBkR+hQJorJ0A5YJrBB76gQBQ6mUCqLY/B
+3yGQKSIdUCcfJbBv8LEQG2MBUF2ErTB6XvZQApaKkGada3BOUWPQGryHEGjh6rBzrYzQK5khcAQ
j43BFf6GQH6b5T/UuaLBH8KcQMOA40CQmofB9VOmQImPdsBYJZ3BE86iQC3YlMC3xZLB9f++QGv6
FUGn8qrBRa/0QLeAKMCJf6vB96uFQE3/vkBDmIzBW2T0QHfJR0BahY3BZH3SQOs98z9Pb3vBEvNw
QN7ykkDUi5/BJRW6QNSwJ8DsVprBS8eGQAhnfsCeW4vBWzv+QETAdr57u7bBWjzOQF48K0CmoofB
IQIVQX/m/EBC7JLBSrf0QDbH4kDxpoXB09QIQWHJDkE0+aPB222OQJqHBEHgpJrBMQeAQBrHPr8k
UpvBDN3GQN1u0z/D1rHB9XeRQKUhrz+giYzB8+fAQKlWXD+DkJPB2QnCQHNQmkCh03/BUnaSQOUe
dEBFDIDBl1y+QCf1PkBERZ7Bc2W9QCG9o0Dtj5PBrYtVQNLXXUD28JHBIxm6QJSmDEF1q7vBQLjm
QIwWAUFhsrTBEZKxQI5o7kBDWLLBLkrOQPhqMUF8BLXBnXTVQMoDNkFI8qbBz4D7QI8TJkGRMa7B
CCGGQFUdJEE5PLLBYBx2QIXjDkGN86jBJNmKQGnEKEGxGqTBXGYNQIT9Z8D1l4fBi9YkQEpjcsDt
mZXBcW4kQJS3p8BcKY3B7iGAQGxnG0AetanBD3VRQIFxuz/rFZ/BkqCsQESM2EDfPYDB4b2FQA70
/EBupIXBcRK6QA6gjMAMAKPBeV2GQJgMa8AqiqDBldSVQLDKtMCUipTBCsDCQL0VmMCYKo/BYZ0E
QequGcBfWLHB8G8CQZbbM8DCvqTBEapwQKBeyUBzY5PBu3RQQKnaqkD2MJ3B

>  <OMEGA_E>  (17) 
mCcrPgAXkz5QMJY+MDojPvAR2z4=

>  <OMEGA_NBR>  (17) 
     42623

$$$$
50216821
     RDKit          3D

 68 70  0  0  1  0  0  0  0  0999 V2000
    8.1210    8.2788  -18.1828 C   0  0  0  0  0  0  0  0  0  0  0  0
    7.0870    7.7660  -17.3808 C   0  0  0  0  0  0  0  0  0  0  0  0
    7.8355    8.8104  -19.4548 C   0  0  0  0  0  0  0  0  0  0  0  0
    5.4707    8.3141  -19.1247 C   0  0  0  0  0  0  0  0  0  0  0  0
    4.8433   -0.8273  -20.0555 C   0  0  0  0  0  0  0  0  0  0  0  0
    6.2837    0.6588  -21.3497 C   0  0  0  0  0  0  0  0  0  0  0  0
    5.7580    7.7885  -17.8481 C   0  0  0  0  0  0  0  0  0  0  0  0
    6.5018    8.8408  -19.9424 C   0  0  0  0  0  0  0  0  0  0  0  0
    5.1573    0.4655  -20.5237 C   0  0  0  0  0  0  0  0  0  0  0  0
    6.8144   -1.7188  -21.1891 C   0  0  0  0  0  0  0  0  0  0  0  0
    5.6698   -1.9266  -20.3866 C   0  0  0  0  0  0  0  0  0  0  0  0
    7.1097   -0.4300  -21.6832 C   0  0  0  0  0  0  0  0  0  0  0  0
    5.6318    1.8232  -17.9290 C   0  0  0  0  0  0  0  0  0  0  0  0
    5.5483    4.3156  -16.5724 C   0  0  0  0  0  0  0  0  0  0  0  0
    5.1180    2.6044  -19.1673 C   0  0  2  0  0  0  0  0  0  0  0  0
    4.9973    4.8780  -17.9032 C   0  0  1  0  0  0  0  0  0  0  0  0
    4.2248    3.8068  -18.7257 C   0  0  1  0  0  0  0  0  0  0  0  0
    7.3710   10.0408  -22.0623 C   0  0  0  0  0  0  0  0  0  0  0  0
    5.0545   10.4807  -21.2240 C   0  0  0  0  0  0  0  0  0  0  0  0
    5.6370    8.2362  -22.2335 C   0  0  0  0  0  0  0  0  0  0  0  0
    4.3155    1.6530  -20.0980 C   0  0  0  0  0  0  0  0  0  0  0  0
    4.6429    7.2091  -17.0000 C   0  0  0  0  0  0  0  0  0  0  0  0
    5.0786   -3.4254  -18.5968 C   0  0  0  0  0  0  0  0  0  0  0  0
    6.2884   -4.1068  -17.9350 C   0  0  0  0  0  0  0  0  0  0  0  0
    6.1548    9.3937  -21.3443 C   0  0  0  0  0  0  0  0  0  0  0  0
    7.6641   -2.7818  -21.4783 N   0  0  0  0  0  0  0  0  0  0  0  0
    4.0522    6.0026  -17.6365 N   0  0  0  0  0  0  0  0  0  0  0  0
    7.7322    3.4029  -17.7409 O   0  0  0  0  0  0  0  0  0  0  0  0
    6.8720    2.2370  -15.6403 O   0  0  0  0  0  0  0  0  0  0  0  0
    3.6980    4.4567  -19.8853 O   0  0  0  0  0  0  0  0  0  0  0  0
    5.3347   -3.2167  -20.0085 O   0  0  0  0  0  0  0  0  0  0  0  0
    8.1926   -0.2300  -22.4708 F   0  0  0  0  0  0  0  0  0  0  0  0
    6.0797   -4.1560  -16.5948 F   0  0  0  0  0  0  0  0  0  0  0  0
    7.4377   -3.4197  -18.1820 F   0  0  0  0  0  0  0  0  0  0  0  0
    6.6159    2.9201  -16.9143 S   0  0  0  0  0  0  0  0  0  0  0  0
    9.1387    8.2651  -17.8217 H   0  0  0  0  0  0  0  0  0  0  0  0
    7.3109    7.3550  -16.4075 H   0  0  0  0  0  0  0  0  0  0  0  0
    8.6375    9.1985  -20.0651 H   0  0  0  0  0  0  0  0  0  0  0  0
    4.4522    8.3154  -19.4839 H   0  0  0  0  0  0  0  0  0  0  0  0
    3.9679   -0.9787  -19.4415 H   0  0  0  0  0  0  0  0  0  0  0  0
    6.5126    1.6445  -21.7270 H   0  0  0  0  0  0  0  0  0  0  0  0
    4.7759    1.4511  -17.3467 H   0  0  0  0  0  0  0  0  0  0  0  0
    6.2481    0.9738  -18.2586 H   0  0  0  0  0  0  0  0  0  0  0  0
    6.1214    5.0976  -16.0526 H   0  0  0  0  0  0  0  0  0  0  0  0
    4.7115    3.9906  -15.9367 H   0  0  0  0  0  0  0  0  0  0  0  0
    5.9832    2.9950  -19.7230 H   0  0  0  0  0  0  0  0  0  0  0  0
    5.8402    5.2441  -18.5078 H   0  0  0  0  0  0  0  0  0  0  0  0
    3.4040    3.4181  -18.1050 H   0  0  0  0  0  0  0  0  0  0  0  0
    7.0593   10.4126  -23.0495 H   0  0  0  0  0  0  0  0  0  0  0  0
    7.7502   10.8783  -21.4582 H   0  0  0  0  0  0  0  0  0  0  0  0
    8.1650    9.2899  -22.1874 H   0  0  0  0  0  0  0  0  0  0  0  0
    4.8121   10.8700  -22.2239 H   0  0  0  0  0  0  0  0  0  0  0  0
    4.1525   10.0410  -20.7733 H   0  0  0  0  0  0  0  0  0  0  0  0
    5.4185   11.3021  -20.5893 H   0  0  0  0  0  0  0  0  0  0  0  0
    5.3885    8.6236  -23.2325 H   0  0  0  0  0  0  0  0  0  0  0  0
    6.4169    7.4656  -22.3228 H   0  0  0  0  0  0  0  0  0  0  0  0
    4.7380    7.7969  -21.7766 H   0  0  0  0  0  0  0  0  0  0  0  0
    3.9998    2.2087  -20.9934 H   0  0  0  0  0  0  0  0  0  0  0  0
    3.4275    1.2894  -19.5602 H   0  0  0  0  0  0  0  0  0  0  0  0
    5.0480    6.9330  -16.0153 H   0  0  0  0  0  0  0  0  0  0  0  0
    3.8572    7.9686  -16.8734 H   0  0  0  0  0  0  0  0  0  0  0  0
    4.1913   -4.0648  -18.4787 H   0  0  0  0  0  0  0  0  0  0  0  0
    4.8980   -2.4544  -18.1124 H   0  0  0  0  0  0  0  0  0  0  0  0
    6.3627   -5.1253  -18.3438 H   0  0  0  0  0  0  0  0  0  0  0  0
    8.4171   -2.4606  -22.0527 H   0  0  0  0  0  0  0  0  0  0  0  0
    8.0310   -3.1564  -20.6268 H   0  0  0  0  0  0  0  0  0  0  0  0
    3.6530    6.2812  -18.5100 H   0  0  0  0  0  0  0  0  0  0  0  0
    3.1541    5.1887  -19.6190 H   0  0  0  0  0  0  0  0  0  0  0  0
  1  2  2  0
  1  3  1  0
  2  7  1  0
  3  8  2  0
  4  7  2  0
  4  8  1  0
  5  9  2  0
  5 11  1  0
  6  9  1  0
  6 12  2  0
  7 22  1  0
  8 25  1  0
  9 21  1  0
 10 11  2  0
 10 12  1  0
 10 26  1  0
 11 31  1  0
 12 32  1  0
 13 15  1  0
 13 35  1  0
 14 16  1  0
 14 35  1  0
 15 17  1  0
 15 21  1  0
 16 17  1  0
 16 27  1  0
 17 30  1  0
 18 25  1  0
 19 25  1  0
 20 25  1  0
 22 27  1  0
 23 24  1  0
 23 31  1  0
 24 33  1  0
 24 34  1  0
 28 35  2  0
 29 35  2  0
  1 36  1  0
  2 37  1  0
  3 38  1  0
  4 39  1  0
  5 40  1  0
  6 41  1  0
 13 42  1  0
 13 43  1  0
 14 44  1  0
 14 45  1  0
 15 46  1  6
 16 47  1  6
 17 48  1  1
 18 49  1  0
 18 50  1  0
 18 51  1  0
 19 52  1  0
 19 53  1  0
 19 54  1  0
 20 55  1  0
 20 56  1  0
 20 57  1  0
 21 58  1  0
 21 59  1  0
 22 60  1  0
 22 61  1  0
 23 62  1  0
 23 63  1  0
 24 64  1  0
 26 65  1  0
 26 66  1  0
 27 67  1  0
 30 68  1  0
M  END
>  <OMEGA_C>  (18) 
eO8BQSV2BEFKdpHBU8jiQMyC+EDwC4vBR7z6QHX3DEFlo5vBCxCvQJIGBUFk/5jBk/yaQPXKU7/B
caDByBPJQE6lKD8xzKrBjkG4QHc7+UD6yI7Bgw7QQLtzDUEBip/BWwilQMJR7j5/MKTBTA/aQE0A
3L9Jg6nB7m61QEGa9r+1F6PBxYLjQNAo3L48d63BgDe0QGJf6T+Vbo/BwIuxQKYZikAulITBlMaj
QDGvJkCMVpnBPeqfQJgYnEC2OY/BcTGHQE6ic0AlzpXBGt/rQD+nIEGWf7DBPL6hQAyxJ0HLyqnB
qGK0QJrHA0Ev3rHBMBiKQCOX0z/HyKDBbpKUQFGx5kDr/4fB5oOiQKk5W8A5xpTBPDrJQPpqg8DI
eo/BBvTEQHtMFkEWwarBlkD1QM8JMsCf06vB9KuBQP0UwEB2F43BAm73QJ7IWUBD7Y3BbufbQDkq
D0C/PnrB/6tsQCOdjkAKFZ/BqbWqQMDdTcBxEaDBCBUDQWKBa74sxLPB7IzCQBz+hMA8woTB9AHu
QNvbWsDBdJHBFrXTQPXiOkCCUIfBQTgSQfM9BEHcko7BffLpQHdc60CFQoPBZDMKQf4sE0FXhaDB
aniOQNYLBUER35vB7vF9QHqOer8miJvBTGfQQKJ+0j/g0K3BgdSYQEq8uT8XxorBrvDHQAhOeT+y
EZLBd+LDQGMfo0DCa4DBb8SWQFNmf0Cj/H7BpXa/QM6tP0CuyJ3B/eK6QPXPp0DoD5TB79pZQLDC
WkD+1pDBEubhQCWaJkFzZbjBugH4QFoNLkFzqqvBr6MCQUSjFEG2f7HBWPyZQIPrLUF8yrHBjOGE
QAaoIEGuL6bBI2StQDPVNEHLtqTBRW6sQHj6CUFA3LnB81bNQAfm7kAWlbLB2J2XQGuA+UBvNq7B
ufx/QIdbDUBm8qfBEVxbQBoKpT9Ke5zB94ihQEfb3UA8H4DB4dx2QKL+/kC3/IbBZR+GQJsSgsBS
1JPBULycQKgVHcAu5pDBZpvLQEwCpMAtwJLBRawGQeV6HcD3a7DB8H4AQVQCSsCnA6XBWstpQDn/
yEBqFJTBSN1JQJQJpkC085zBg+IBQQ17BEGtYZHB7ZjiQBKk+ECc+orB2sb6QLzgDEGWlpvBKxev
QEvjBEGNApnBFRKbQPumU7/reaDBy2DJQMUiKD9PyqrB0CK4QGc2+UB2w47BaCrQQLBIDUEgiZ/B
xzulQL+I7j5wNqTBphnaQLyM3L/EiKnBunC1QLvb9r9HHqPBubjjQA1T3r4ida3BlVe0QBbJ6T+u
d4/BXIWxQKEtikDblYTBFN2jQMjpJkBjXZnBwNafQMYonEBXOo/BYi2HQDyrc0Auz5XB4L60QPPM
A0HN8rHBDAzsQKu7IEHmarDB89mhQNOHJ0FUuKnBN02KQMDw0z951aDBOWCUQGq75kCv/ofBlluk
QM5WWsCBlpTB86bMQBssgMAPQ4/BDyjFQEw2FkF+varBIzj1QAViMsDh3KvB4IiBQCkZwEDFFo3B
hnX3QD83WkCv7o3BsvHbQPxOD0AxS3rBwGJsQLSdjkCIEp/BRMWqQCXSTcCz+p/BUT0DQdYIcr7p
ubPBawjLQJWqb8AWnYTBr1LxQBwcXsCOSZPBJr7TQK0iO0DlVIfBZiUSQSRPBEHIdY7BGKbpQAGt
60CYKoPBV0AKQW8QE0FXdaDBmI2OQDjVBEEW7JvBDwl+QDLpeb/fkpvBcdrQQCM80j9Vya3BR/mY
QOPKuT8e0YrBpiHIQEmcej/EHJLBvtXDQLU4o0CzbYDBQsWWQIB3f0Ap/n7BdIe/QIckQEBszJ3B
Z8i6QB/up0DiEJTBbPhZQNOUWkAh1pDBkOasQNkgCkEg7LnBCb7NQAj/7kCosLLBCPCXQKti+UDi
Wa7BGyPiQHO7JkGXT7jBHPP3QCYeLkEMiqvBtc0CQcjMFEHma7HBFxGaQEDcLUF/srHBFAeFQHFm
IEFMJKbBb2mtQP+dNEEpmKTBIFaAQICDDUCCAqjBA5xbQLGPpT/ajpzBVj+hQFPw3UDWGoDBXnV2
QJ0L/0BNAofBA1aJQFsyg8AmX5PBhwmdQO9IHMBG25DBUizMQFHvosDLo5DBE6sGQV3bHcDQc7DB
FHcAQRaBSsBBDqXBenppQIEAyUBXE5TBtXVJQK35pUCp7ZzBYYcCQeeOA0EXvJHBUbTjQAJ490Bc
SYvBvir8QLASDEGT65vBGzmwQD/bBEFkPJnBl9mbQBJpW78775/BEo7HQPG5KT/on6rBJiu5QLTq
+EDpAY/Bx3vRQNr0DEEuzJ/B0EOkQJ434z4PzaPBZmvaQBmo2b/jiKnB2862QAvm9r+03aLB+qHi
QOYrz778dK3BYvKyQMoV6T97FY/BwfKwQLV+ikA5d4TBhGWiQPyfJUCACZnBO1KfQFYdnECgJ4/B
YBqGQJxac0DBlpXBf9TtQBotIEFwsLDBJAikQKm3J0Ff66nBKGa1QEHIA0FHKrLBKqyIQDnmzj/h
T6DBMi2VQIpI50AaK4jBUNS+QLAYasA+5ZXBBfGZQGIlfMC4KY7BeJ3GQF0JFkE2+qrBkkz1QP5j
MMC6RKzBXqOBQDWqwEDjHY3BM3n2QDbXWEDZzY3BD/faQOXvD0BdwXnBMUtqQDIfjkA7557Ba9ms
QObHTcC67p/BhkQCQWMsOL4j8rPB77V1QJG8lMCJS5PBZkGJQEjYMMC8t4rB/cLSQBQAO0C6HIfB
ktESQRgJA0Em3Y7B66vqQF9Y6kBffIPB1wMLQW38EUFk1KDBPaGPQNYeBUEhG5zBBs+AQLEMhL8U
vZrBGs/NQOOx0z9zr63B0JqXQIXhuj+BWorBIHrGQO71dj/WqpHBsoHDQGSTo0A9ZIDBzimWQLiA
gEC6qX7BaAq+QEPdPUCDkJ3B01u6QOkvp0ASEJTB4ctXQOdbW0BfiZDB5AbkQCZPJkGtkLjBpV/6
QCRqLUG+z6vBjm8DQS78E0H4u7HBrWOcQJUiLkE+47HBuPmGQCvhIEHrUKbB2TOwQEGtNEEdzaTB
3KCtQNkuCkEJIbrBEe7NQJ2C7kAl8LLBqGiYQCPf+UBhiK7BXzh7QHRECkBjcafB8L1ZQO9Pnj+T
2ZvB7/2hQCmy3kArQoDB8tV4QOgDAEHbPofBGqHTQKLfN8CglJLB9JvRQP1jksCwJ5fBW7OmQN+K
kMB6YofBc2AGQQr2GsB/AbHBnvoAQeuNScDeoKXBscxpQChkyUCyH5TB5uBHQF/BpUCf0ZzBMuwC
QSt6A0GaZZHBd1DkQLwR90CFCYvBtzL9QPVEDEE8ipvBLiuxQI8gBUFg+5jBRMKbQO0BXr9vWJ/B
4ubCQCiFIj/JPqvB9Nu5QDrO+EDsz47BhZPSQJddDUHncp/BkXGhQIfq1D4o5qPBcCPYQGgy2r/s
yanBWm23QA0y+L//OaLBdjfeQDLv1r6eKK7BhSmxQMzk5j9TM4/BBmOwQIwMikCtqoTBmKqgQEY8
JEC+LJnBS/eeQPzqm0DkWI/BpjuFQIeEc0ACyZXBtBu4QJpKBEE797HB9wbvQFVWIUFSG7DBkmek
QE3PJ0F+nanBhyGGQJevyz/mRKDBHZqVQB/s5kA9GojBBSWgQMqmWsCKv5PBr/1lQESVf8CxV5XB
CfXHQD6XFkGhnarBFnbzQDBzL8AwuKzBZcWBQOrZwECrRI3BaU71QGUOVkClEY7BsarZQK5bDkAb
JHrBt95pQPtkjkChJJ/B+fG0QMN6TsBk/53BJf7+QMa5Pr6u+7TBp05rQOxjpcAXxprBU3Y0QIGR
SMB6B5vBlo3RQO5POUAAUYfB5C4TQR/VAkGvfY7BlBXrQDCN6UCKRIPBL5kLQR87EkG9Y6DBP6CQ
QOSJBUEh4pvByk2CQGRghL/6p5nBxJHHQIjxzj8Tpq7B0seVQNyCuj+laorBJE7EQLwqcD+aw5HB
i0rDQN3fokAfmIDBNnyVQC5pgEB/Dn/Bz1W8QCfsOkAm0Z3BpRy6QLuppkBnQ5TBaU1VQJnfXEA3
wpDBYYGwQBTFCkGP7LnBPE7RQFYv8EDgtbLBwkCbQHIC+kC8e67BQm7lQHyMJ0Gx+7fB5p76QBiZ
LkFYGavB+FoEQbZ5FUH/H7HB3P6cQPFOLkGxlLHBZXWHQLGGIEG5LabBXI2vQGbNNEG2X6TBobV0
QLt5CECqV6fB85JVQJhamz+Nn5vBGTeiQEmT3UDnOYDBVBh6QLzO/0CUE4fB8sudQP+xHMBgnI/B
JCyzQDWgg8B14I7BSQ5KQLkshcC+YI3BZUsEQbwdGsCLGrLBWYQBQVO1RMBuQabByiFrQH8xykD2
SJTBw4ZIQHh6pkAAHJ3BaR4BQdSFBEFMOpDBzNrgQOAU90AXLorBc6X5QPgMDkFRNJrBwfWtQHyB
BUHwHpjBl3CeQP/KN7/u+Z/BU0TJQIQNFD8hf6zBHZe2QLQ8+EDmF47B3z7PQDbADkEXSJ7BHEGm
QMhk+T5EeaXB+kzaQAGs479bMKnBnj65QFyN678YRaHBvb3iQJ/ODb+IeK7BMsi1QEbi5z9e/JDB
wMKwQO5eh0BmPIXBznKlQAmsKEAwtZrBiamfQI4Lm0Ctv4/B1/+HQJNKc0Af1pbB0n21QBzZBkFI
ALHBXcfrQPQBJEFXiK7BY+GgQIWnKUHaDqjB842MQMSj3D93p6LBZp+SQKAF5EB2t4fBDqLPQM0Y
fMAd55fBUF39QG+DX8BBSJTB8sbEQO6xGEEhTanBSlHyQIKmOMBhPKzBN7OAQKwdvkCqVY3BedL3
QIdmWkCLlI7BpLbbQDVuCEA7wnzBZXduQIjOj0De65/BwQOwQJWzOcBhWJrBN+QBQVwz6b7DcLXB
X0sIQWynkcAgdI/BPxT9QKqeHMDvW43Bz+XTQFfiN0CiU4jBKk4RQVMdBEG/NY3BEpfnQBFo6ECB
ioLBOcMJQVvjFEFgzJ7BMpaNQEGnBUH9JJvBWk6DQN+YSL+npprBWZXQQKsYwj86XrDBf1CaQDa9
sj8VmYzBIUDKQFKRfT9A1ZPBr07CQOTin0CFsYDBVsiVQNoYd0DsaoDBKi7BQJlBRECo457BWsy6
QIgRqECwT5TBB2BbQJidV0DcH5LBlwCuQB7ZDUHk2rjB6/DOQPqm9UA66bHBaayYQABg/kB+tK3B
Q0biQJK2KkFuULbBFPf2QGT4MEEmR6nBON0CQcpZGEFqta/Bfo2ZQLetMEGE6q/BNf2DQGr+IUFk
zaTB/KKrQL9RNkElkqLBf+OFQDiXEkCJAqrBKWRcQCcutT8O8p7BKQ2fQGLz2UB8wX/BJx5yQLLH
+0CQkYbBsIbTQESXkcAxKJ/BskLCQHbmkcBRc5HBjJIHQXX5TcDCjZvBHLoDQfRhJ8BV17HBQ/IA
QfTTT8BR4KXB+IRoQMsgyEBuRJTBCZ9KQNKDpkD0lZ3B

>  <OMEGA_E>  (18) 
4AxkPjj1ZD7QFmY+AM1RPrzRsj4=

>  <OMEGA_NBR>  (18) 
     48333

$$$$
50216814
     RDKit          3D

 71 73  0  0  1  0  0  0  0  0999 V2000
    8.1367    8.2227  -18.1897 C   0  0  0  0  0  0  0  0  0  0  0  0
    7.0911    7.7352  -17.3874 C   0  0  0  0  0  0  0  0  0  0  0  0
    7.8646    8.7503  -19.4662 C   0  0  0  0  0  0  0  0  0  0  0  0
    5.4903    8.2986  -19.1406 C   0  0  0  0  0  0  0  0  0  0  0  0
    4.8625   -0.8268  -20.0184 C   0  0  0  0  0  0  0  0  0  0  0  0
    6.2672    0.6705  -21.3391 C   0  0  0  0  0  0  0  0  0  0  0  0
    5.7643    7.7781  -17.8592 C   0  0  0  0  0  0  0  0  0  0  0  0
    6.5330    8.8036  -19.9572 C   0  0  0  0  0  0  0  0  0  0  0  0
    5.1487    0.4663  -20.5054 C   0  0  0  0  0  0  0  0  0  0  0  0
    6.8099   -1.7043  -21.2023 C   0  0  0  0  0  0  0  0  0  0  0  0
    5.6997   -1.9186  -20.3547 C   0  0  0  0  0  0  0  0  0  0  0  0
    7.0958   -0.4112  -21.6860 C   0  0  0  0  0  0  0  0  0  0  0  0
    5.6012    1.8241  -17.9050 C   0  0  0  0  0  0  0  0  0  0  0  0
    5.5239    4.3223  -16.5609 C   0  0  0  0  0  0  0  0  0  0  0  0
    5.0957    2.6022  -19.1484 C   0  0  2  0  0  0  0  0  0  0  0  0
    4.9797    4.8803  -17.8964 C   0  0  1  0  0  0  0  0  0  0  0  0
    4.2046    3.8093  -18.7160 C   0  0  1  0  0  0  0  0  0  0  0  0
    5.6970    8.2034  -22.2607 C   0  0  0  0  0  0  0  0  0  0  0  0
    7.4221   10.0150  -22.0618 C   0  0  0  0  0  0  0  0  0  0  0  0
    5.0959   10.4424  -21.2484 C   0  0  0  0  0  0  0  0  0  0  0  0
    4.2977    1.6474  -20.0787 C   0  0  0  0  0  0  0  0  0  0  0  0
    4.6379    7.2200  -17.0123 C   0  0  0  0  0  0  0  0  0  0  0  0
    6.3127   -4.1060  -17.7547 C   0  0  0  0  0  0  0  0  0  0  0  0
    5.1757   -3.3421  -18.4798 C   0  0  0  0  0  0  0  0  0  0  0  0
    6.2005    9.3590  -21.3612 C   0  0  0  0  0  0  0  0  0  0  0  0
    7.7381   -3.4869  -17.9130 C   0  0  0  0  0  0  0  0  0  0  0  0
    7.6374   -2.7654  -21.5515 N   0  0  0  0  0  0  0  0  0  0  0  0
    4.0406    6.0122  -17.6395 N   0  0  0  0  0  0  0  0  0  0  0  0
    7.7075    3.3942  -17.7190 O   0  0  0  0  0  0  0  0  0  0  0  0
    6.8362    2.2418  -15.6154 O   0  0  0  0  0  0  0  0  0  0  0  0
    3.6850    4.4568  -19.8803 O   0  0  0  0  0  0  0  0  0  0  0  0
    5.4387   -3.2039  -19.9027 O   0  0  0  0  0  0  0  0  0  0  0  0
    8.1742   -0.2012  -22.4766 F   0  0  0  0  0  0  0  0  0  0  0  0
    8.4950   -3.8238  -16.8372 F   0  0  0  0  0  0  0  0  0  0  0  0
    8.3440   -3.9890  -19.0189 F   0  0  0  0  0  0  0  0  0  0  0  0
    7.7108   -2.1291  -17.9923 F   0  0  0  0  0  0  0  0  0  0  0  0
    6.5868    2.9206  -16.8931 S   0  0  0  0  0  0  0  0  0  0  0  0
    9.1531    8.1925  -17.8257 H   0  0  0  0  0  0  0  0  0  0  0  0
    7.3044    7.3281  -16.4101 H   0  0  0  0  0  0  0  0  0  0  0  0
    8.6756    9.1177  -20.0775 H   0  0  0  0  0  0  0  0  0  0  0  0
    4.4735    8.3126  -19.5044 H   0  0  0  0  0  0  0  0  0  0  0  0
    4.0011   -0.9847  -19.3863 H   0  0  0  0  0  0  0  0  0  0  0  0
    6.4879    1.6597  -21.7121 H   0  0  0  0  0  0  0  0  0  0  0  0
    4.7416    1.4589  -17.3239 H   0  0  0  0  0  0  0  0  0  0  0  0
    6.2144    0.9701  -18.2286 H   0  0  0  0  0  0  0  0  0  0  0  0
    6.0985    5.1043  -16.0430 H   0  0  0  0  0  0  0  0  0  0  0  0
    4.6836    4.0037  -15.9264 H   0  0  0  0  0  0  0  0  0  0  0  0
    5.9650    2.9880  -19.7011 H   0  0  0  0  0  0  0  0  0  0  0  0
    5.8267    5.2384  -18.5001 H   0  0  0  0  0  0  0  0  0  0  0  0
    3.3802    3.4267  -18.0963 H   0  0  0  0  0  0  0  0  0  0  0  0
    5.4591    8.5938  -23.2612 H   0  0  0  0  0  0  0  0  0  0  0  0
    6.4803    7.4355  -22.3436 H   0  0  0  0  0  0  0  0  0  0  0  0
    4.7941    7.7596  -21.8161 H   0  0  0  0  0  0  0  0  0  0  0  0
    7.1209   10.3884  -23.0517 H   0  0  0  0  0  0  0  0  0  0  0  0
    7.7892   10.8525  -21.4504 H   0  0  0  0  0  0  0  0  0  0  0  0
    8.2217    9.2687  -22.1793 H   0  0  0  0  0  0  0  0  0  0  0  0
    4.8627   10.8346  -22.2493 H   0  0  0  0  0  0  0  0  0  0  0  0
    4.1907    9.9985  -20.8086 H   0  0  0  0  0  0  0  0  0  0  0  0
    5.4510   11.2625  -20.6070 H   0  0  0  0  0  0  0  0  0  0  0  0
    3.9773    2.2016  -20.9733 H   0  0  0  0  0  0  0  0  0  0  0  0
    3.4128    1.2772  -19.5403 H   0  0  0  0  0  0  0  0  0  0  0  0
    5.0332    6.9514  -16.0216 H   0  0  0  0  0  0  0  0  0  0  0  0
    3.8588    7.9884  -16.9002 H   0  0  0  0  0  0  0  0  0  0  0  0
    6.0721   -4.1356  -16.6818 H   0  0  0  0  0  0  0  0  0  0  0  0
    6.3412   -5.1311  -18.1525 H   0  0  0  0  0  0  0  0  0  0  0  0
    4.2336   -3.8933  -18.3440 H   0  0  0  0  0  0  0  0  0  0  0  0
    5.0813   -2.3398  -18.0365 H   0  0  0  0  0  0  0  0  0  0  0  0
    8.3666   -2.4365  -22.1517 H   0  0  0  0  0  0  0  0  0  0  0  0
    8.0388   -3.1608  -20.7254 H   0  0  0  0  0  0  0  0  0  0  0  0
    3.6436    6.2860  -18.5155 H   0  0  0  0  0  0  0  0  0  0  0  0
    3.1425    5.1916  -19.6190 H   0  0  0  0  0  0  0  0  0  0  0  0
  1  2  2  0
  1  3  1  0
  2  7  1  0
  3  8  2  0
  4  7  2  0
  4  8  1  0
  5  9  2  0
  5 11  1  0
  6  9  1  0
  6 12  2  0
  7 22  1  0
  8 25  1  0
  9 21  1  0
 10 11  2  0
 10 12  1  0
 10 27  1  0
 11 32  1  0
 12 33  1  0
 13 15  1  0
 13 37  1  0
 14 16  1  0
 14 37  1  0
 15 17  1  0
 15 21  1  0
 16 17  1  0
 16 28  1  0
 17 31  1  0
 18 25  1  0
 19 25  1  0
 20 25  1  0
 22 28  1  0
 23 24  1  0
 23 26  1  0
 24 32  1  0
 26 34  1  0
 26 35  1  0
 26 36  1  0
 29 37  2  0
 30 37  2  0
  1 38  1  0
  2 39  1  0
  3 40  1  0
  4 41  1  0
  5 42  1  0
  6 43  1  0
 13 44  1  0
 13 45  1  0
 14 46  1  0
 14 47  1  0
 15 48  1  6
 16 49  1  6
 17 50  1  1
 18 51  1  0
 18 52  1  0
 18 53  1  0
 19 54  1  0
 19 55  1  0
 19 56  1  0
 20 57  1  0
 20 58  1  0
 20 59  1  0
 21 60  1  0
 21 61  1  0
 22 62  1  0
 22 63  1  0
 23 64  1  0
 23 65  1  0
 24 66  1  0
 24 67  1  0
 27 68  1  0
 27 69  1  0
 28 70  1  0
 31 71  1  0
M  END
>  <OMEGA_C>  (19) 
HTACQTWQA0GbhJHBUOriQN6G90BrGYvB/qr7QCcBDEHVupvBpbCvQPPGBEEMIJnBTJmbQFmqU7+b
JaDBhYzIQDalKz+LtqrBY3W4QBXm+EC5347Blw7RQJLbDEFmqJ/B1sGkQHG+7j4eC6TBh+rZQAcm
2r9CnqnB0mO2QMyU9b9p1qLBdxDjQLKG0r7ZfK3BLz2zQKZ66T9+PY/BZcOwQPtPikCwfITB4Q+j
QIOKJkD1L5nBuVmfQM0rnEDJK4/B64uGQE3Lc0BdupXBJU62QDBBA0HhFbLBKoLtQIc9IEGjfrDB
xRGjQCEUJ0HP/KnBp4aJQIbe0j82oaDBgGmUQDgK50A6GYjBzgHKQD9kg8CpCY7Bb5+lQDzkVcC6
1pPBuGrGQH2+FUHO46rBvp73QL0oX8DmTY/B7GX0QH/7MMCRaazBSkyBQJhjwECoHY3BzqP2QCE7
WUCWwI3BdcLaQBR6D0DH2HnBUNdrQPKdjkDPCp/BcQmuQCINTcDJOJ/BjckCQfQOTr4m0LPBWusH
QXi5dMCnsobBNYEFQV5Mf8CuJpjBRL/2QElDCMAo8I/B9cbSQF/rOkD/JIfBB3MSQX8UA0H8mo7B
X73pQNV/6kDXR4PBSs8KQSziEUHJnqDBGiePQHsABUEVCZzBIQmAQGQVfL8QF5vB45zPQJpx1D9e
sq3BS7uXQDW9uj9Kl4rBodzGQFFXeD8r1JHBnybDQJNWo0AMWIDBJOCVQKcegECg0n7BT+G+QKA7
P0DSm53B7nO6QDShp0AqAJTBq1RYQLtPW0BBxZDBoLCuQCiACUHgFrrBiV7PQOXv7UC2v7LBAWmZ
QLhO+EBRh67Bet7jQLw2JkHtabjBSEH5QNSjLUFdmqvB94sDQbhMFEE0b7HB+JqbQG5aLUGn/rHB
/xmGQOT5H0H5d6bBdG6uQDAzNEE526TBMox+QHnnDEA8yafBUWtaQH17oz97UpzBAhChQOtx3kAu
LIDBovZ2QCuh/0CtM4fBkU7CQJxWhMBCdIXBzOrKQFUypMBaOJHBgnmHQKIsecBrwJLB85miQES/
FcC6SpDBcd0FQTjvG8DANrHBHZ8AQZBKSsCmzaXB9C9pQDknyUCzH5TB1R5JQGIhpkC985zBx2sC
QfIkA0HcqpHBKkfjQHz99kDyPYvBDEv8QJluC0Fw6pvBlkCwQA1JBEHMWpnBukGbQGOjU7+l8p/B
LCjHQAoTMj/kkqrB4d64QDRS+EA7DI/B+r/RQA9ADEG545/BjpOjQER18D7D4qPBqbzZQOd41b9B
j6nBB5+2QAB5878QraLBWDjiQFz9vL6oYK3BSmmyQDBG6D8+Go/Bs5GwQFkZikC8bITBWiKiQFri
JUDhCpnBeCOfQPHlm0BgHY/BGwGGQFyWc0B1n5XBO7fuQEZcH0HvwLDB5WmkQPWrJkFXRqrBJtm2
QIG2AkFvU7LBBymIQDmm0T+hYKDB+72UQPQC50DANIjBmXjHQFQih8AHDo7B9wqmQPhwVMCUpZPB
81nHQMMgFUFYJKvBcEL2QJyOa8DdXo7B3Vv0QG+uLcBrmazByk+BQJhMwEDJF43BwSv2QHGeV0Bh
to3BcTDaQNCMDkDqr3nBUFFrQF6HjkAp+J7BAjqvQFoZTMDv/p7BgUoCQdHRDb6WtLPBjG4HQYHg
jcA/xIfBHYIDQadMcsB/UZjBdqb4QDqdGMDpGovB7UXSQCX7OUB5EYfBUaoSQa6pAkEku47BHvzp
QBI46kD9Y4PBOSoLQUw5EUHOzaDBUcSPQN1wBEFUTZzBz+B/QIjFf7+g1prBR57NQKA72D8fjK3B
o/GWQBw/uj8zaYrBltbFQAr3dD8btJHBuynDQKASo0DZUYDBb66VQMQmgEA3o37B/uq9QGLlPUAI
iZ3BQkK6QB8cp0Bm+ZPBmvdWQLrLW0DNqJDBDEDlQOdWJUFOr7jBP8H6QLG4LEFK4avB+QIEQc9D
E0HeqrHBJR+dQBnwLEEkS7LBS0WHQA3DH0EWwKbB9hCwQDnCM0GTKaXBuGuvQMr5CEFpVrrBX6DP
QMGO7ECF+LLBTMWZQFaW90DBxa7BeY96QDk7DEADe6fBcHlYQH0+oT+J9JvBhmWhQHex3kAXQ4DB
YP13QIPR/0A/XofB7Aa+QMO/isAxoIXB3QbHQHmcpsD4/ZHB6xGGQK/GcMAVpZLB9a2mQHSdFMDm
74/B+qUFQZmBF8ClcLHBVdwAQW+nR8BvGKbBu+FoQDzbyEAQGZTBwvxIQEo7pkCX6ZzBNboBQYC9
BEF69ZDBZd/hQA/C+EAEw4rB2Bz7QF+DDUFIHpvB/UGvQBN1BUFS65jBYSybQCE6Yb9o3Z/BH9jG
QDvKHj/ezqrBtai3QL2b+UBGto7BKsPQQMQWDkFKO5/BP8mjQHpn1T6r46PBTFPYQK1c4L8q3anB
vnK1QN8q/L+j5KLBABnhQNpS675vwq3B+uazQO9z6T8/TY/B5cKwQPd+ikCDooTBiSujQDleJUDw
Q5nBlmufQDo1nECiVo/BYdiGQNZSc0Cr45XBHZ22QN0iBUF5zrHB7PPtQP/vIUGj2q/BiVKjQPa3
KEHfc6nBx/WIQBK5zT/1aKDBQXyTQN/c5kBvIYjBcw7jQO9/L8CJWI/BLrW3QFdrV8BQQ5PBmpPG
QLVaF0GqaqrBNSIEQUx9b8DW643BanPzQJqVM8Bfe6zBUguBQEI+wECPVI3BBdj2QHGeWkCQ5I3B
kVnbQMjMEEBLDXrBGQltQNsljkBqRJ/BqqKvQPdUT8DCr57BPaUBQctbe75TLrTBfo8VQSI7Q8BN
corBdFv9QPw8lcCPa4bBHCsJQXTsi8DpNpfBBybTQFXTO0B8Q4fBieURQSlvBEFA6o3BtGroQABE
60A9+oLBlJMKQUbdE0EL1J/By+mOQB+CBUF79pvB25WAQK65hL9+fZrBY4nNQMX+zT8k2a3BgqKY
QDqwuT/omorBqdXHQFjoeT8h4JHB+OLCQBuoo0B4eIDBq9yVQPAYgECnLX/BR62+QGEnPUC74Z3B
gIG6QFDIp0AXKJTB84dYQFBSW0Al9pDBIlWvQIeqC0HrxbnB7Z/PQNOq8UBmhLLBeYuZQL/s+0CE
YK7Br6PkQLcuKEG/vrfBG6b5QGQnL0H31KrBUrsDQUn4FUFn1bDBwC6cQBJDL0GobLHBAy+GQGCO
IUHrDabBEJiuQFSnNUE8MaTB4bF7QD9WCUDcj6fBhltaQOdEnz8t2pvBBNefQFn53UAbMoDBeGp0
QIAX/0BEOofBWwftQJlN/r+OPJXBjkLdQJdhEMAclofBY+S3QBL4jcAjPpHBdXidQNN6N8Du9o7B
nR4FQXe/HsAzdbHB0X0AQd6ESsDH0qXBMaNpQNUzyUBCYJTB6pFKQATbpUDiP53BrlYCQXLKA0EP
I5HB4CXjQHXq9kAj6IrB4xr8QIf6DEGuMZvBkSWwQBdZBUEj1ZjBmI6bQKqKYL9qep/BAPbEQCoy
Hz+y76rBCcG4QDuj+ECruI7BeZPRQOn7DUFFK5/BSVGiQJmb0D4q7qPBKTTZQLzu3L/JaKnBBEO3
QEkk+b/DGqLB7kfgQOzK4L5/q63B16myQDuv5j90iY/B28ewQMmAiUD90oTByKqhQCZOJEDSc5nB
eDGfQP2Vm0C1do/BCPeFQJXzckCmBJbBsEvuQJBzIkH6qK/BtfSjQAkZKUFHA6nBl662QEvSBUGi
wrHB/BCHQO+Myz+fgaDBYomUQNkp5kAOGIjBrfTvQBXEd8Cs2JLBEELAQGsjWsCYApPBAA/HQGS3
F0HxO6rBIF0HQZhFOcAm+4zBdNbzQN49McDRf6zB0lyBQKTrv0DET43BBh/2QHacV0CZUY7BFQLb
QHjBDUAd0HrBFcJrQCNYjkDFXp/BYTawQLg5TcAs2Z3BLKsAQT7IXL7xb7TBf+sbQVceUsBftY7B
fxkFQShEz7+9kZDB8IEDQYCDO8DPSILBSpjSQIBkOUBkl4fBCJMSQXwkA0FgMo7BvN/pQA7N6ECa
M4PBogsLQRRRE0Fd7Z/Bja2PQHqwBUGYyZvBhSiBQD5Dhb/8DprBgIXKQE2LzT85N67BFICXQFb7
tz/uworBYi/GQN3Ncj9YLZLBT0/DQCZookCtrIDBrPuVQBaGfkAhc3/BZRi9QF96O0BnJZ7BEza6
QJ36pkAXVZTBh4hWQCWmW0D1E5HBnrjkQKIGKUHWdrfBb0b6QPxxL0EZiarBuNcDQfp7FkEg0rDB
q5KcQBf6L0FR5rDBX+SGQIfYIUE2n6XBxYGvQADMNUHRpaPBESivQE+sDEEMpbnBpJHPQB0B80AD
prLBiq+ZQPQj/UBEVa7BFVl3QHrcB0DzqKfBd+9WQIjknD9G45vBbwyhQNrk3ECsM4DBMj53QH+0
/kAuGIfBgZTxQFEjm8Ck0Y7BR+v6QAyBfsCIKpvBMpWsQDOdhcC7D4/BbJm9QHt7HcDMl47BTuIE
QYFzG8A2prHBSz0BQeVcScBuDqbBJONpQH87yUCwTpTBrQdKQHpGpkCiUp3BzTYCQYMqBEHOrZDB
AMjiQAqI90C0gorBbi38QAgADUGB1ZrBl1GwQM7wBEFirpjBvoSbQCq7W78Dip/BxMXEQAgcID+1
KavB9Zu4QB5r+EDdfY7BhdjRQDCgDUFg9Z7B/zSiQOyK1j4sHqTBkTvZQEbV27/pXqnBuTi3QLwE
97/KEqLB9z7gQNSp377owq3Bf1SzQOQc5z9W0I/Bfu6wQLhBiUDN84TBAduhQGvoJEDjp5nBBCif
QHKEm0AMjo/BMPOFQPfXckBeGpbBGvO3QBXyBEF8mLHB5dLuQHTuIUGid6/BNA6kQP5BKEFFDanB
vCSHQPhizT8IuKDByUGUQCqy5UAq+IfB/6HvQDABeMBB2JLBAirAQNz2WMCz9ZLBa5vHQFIQF0FX
GqrBiKUHQRBIOcAqTo3BLu7zQMDgMMCAWazBDj+BQHS4v0A1V43B0G32QFi7WEA5g47BP6XbQOtz
DUA1VXvBZoNqQBpWjkCtYZ/B9vGvQNDrS8D2xp3B9rcAQboKYr7YgLTBswocQX9uU8ByMY/BpHwF
QccE0L/rCpHB90kEQfzaOcBSkILBhQnTQOGSOUARz4fBkF4SQejXA0H5nY3Bvj7pQDX26UAAu4LB
niELQd9aE0H4hp/BWACQQP4CBUEevpvBUiqBQNPngb91F5rBOCbKQOI7zT/Vkq7BaGKYQKN2tj+J
CYvBiBjHQOA7dj+yi5LBME7DQG8sokC+w4DBMjyWQGhcfUCsuX/BDw29QN6+PEDIYZ7BDBO6QAEO
p0DYb5TBrCFXQG/QWkCsHJHBEKSwQMudC0ELiLnBMCLRQPN88UCYW7LB9/OaQCs0+0DcN67BcnXl
QDpJKEEoVbfBDTz6QGkaL0ETYKrB/kcEQQEaFkHKfbDBFNWcQAvyLkEs/bDB+AaHQAvmIEErs6XB
NRevQKQfNUHht6PBo853QLPhCEBE4afBFONWQBtVnz9WHZzBSpKgQEgM3EASFoDBI6V2QPQx/kB7
74bBa/rwQDHRmsDAmo7BjhP6QAt7gMBxLJvBCDisQFaqhMDn9I7B7Q++QEQXHMAWko7BovQEQYB8
G8Aig7HB1UABQQhpSMAV3aXBcwlqQLlhyUDwU5TBI4VIQBQQpkBgQZ3B

>  <OMEGA_E>  (19) 
wGFjPqDDZz4oLII+MGCHPoggiD4=

>  <OMEGA_NBR>  (19) 
     54235

$$$$
50216835
     RDKit          3D

 72 74  0  0  1  0  0  0  0  0999 V2000
    8.2371    8.1925  -18.1766 C   0  0  0  0  0  0  0  0  0  0  0  0
    7.1828    7.7303  -17.3698 C   0  0  0  0  0  0  0  0  0  0  0  0
    7.9758    8.6990  -19.4650 C   0  0  0  0  0  0  0  0  0  0  0  0
    5.5963    8.2850  -19.1383 C   0  0  0  0  0  0  0  0  0  0  0  0
    4.8422   -0.7612  -20.1000 C   0  0  0  0  0  0  0  0  0  0  0  0
    6.3069    0.7169  -21.3717 C   0  0  0  0  0  0  0  0  0  0  0  0
    5.8590    7.7797  -17.8491 C   0  0  0  0  0  0  0  0  0  0  0  0
    6.6456    8.7632  -19.9615 C   0  0  0  0  0  0  0  0  0  0  0  0
    5.1606    0.5271  -20.5708 C   0  0  0  0  0  0  0  0  0  0  0  0
    6.8289   -1.6599  -21.2001 C   0  0  0  0  0  0  0  0  0  0  0  0
    5.6792   -1.8574  -20.4130 C   0  0  0  0  0  0  0  0  0  0  0  0
    7.1389   -0.3749  -21.6859 C   0  0  0  0  0  0  0  0  0  0  0  0
    5.5655    1.8282  -17.9355 C   0  0  0  0  0  0  0  0  0  0  0  0
    5.5257    4.3130  -16.5651 C   0  0  0  0  0  0  0  0  0  0  0  0
    5.1063    2.6353  -19.1791 C   0  0  2  0  0  0  0  0  0  0  0  0
    5.0156    4.8970  -17.9027 C   0  0  1  0  0  0  0  0  0  0  0  0
    4.2301    3.8524  -18.7466 C   0  0  1  0  0  0  0  0  0  0  0  0
    5.1466   10.2934  -21.3344 C   0  0  0  0  0  0  0  0  0  0  0  0
    5.8847    8.0661  -22.2608 C   0  0  0  0  0  0  0  0  0  0  0  0
    4.3174    1.7152  -20.1502 C   0  0  0  0  0  0  0  0  0  0  0  0
    4.7213    7.2380  -17.0065 C   0  0  0  0  0  0  0  0  0  0  0  0
    7.5169    9.9545  -22.1053 C   0  0  0  0  0  0  0  0  0  0  0  0
    5.0519   -3.3203  -18.6161 C   0  0  0  0  0  0  0  0  0  0  0  0
    6.3174    9.2693  -21.3893 C   0  0  0  0  0  0  0  0  0  0  0  0
    3.6605   -4.0083  -18.5819 C   0  0  0  0  0  0  0  0  0  0  0  0
    6.1964   -4.1361  -17.9418 C   0  0  0  0  0  0  0  0  0  0  0  0
    7.6689   -2.7348  -21.4782 N   0  0  0  0  0  0  0  0  0  0  0  0
    4.1001    6.0476  -17.6457 N   0  0  0  0  0  0  0  0  0  0  0  0
    7.7062    3.3431  -17.6935 O   0  0  0  0  0  0  0  0  0  0  0  0
    6.7681    2.1911  -15.6186 O   0  0  0  0  0  0  0  0  0  0  0  0
    3.7408    4.5235  -19.9106 O   0  0  0  0  0  0  0  0  0  0  0  0
    7.8844   11.1602  -21.4387 O   0  0  0  0  0  0  0  0  0  0  0  0
    5.3834   -3.1404  -20.0118 O   0  0  0  0  0  0  0  0  0  0  0  0
    8.2420   -0.1838  -22.4455 F   0  0  0  0  0  0  0  0  0  0  0  0
    2.7346   -3.1615  -19.1059 F   0  0  0  0  0  0  0  0  0  0  0  0
    3.2961   -4.3077  -17.3102 F   0  0  0  0  0  0  0  0  0  0  0  0
    3.6618   -5.1439  -19.3325 F   0  0  0  0  0  0  0  0  0  0  0  0
    5.9744   -4.2439  -16.6068 F   0  0  0  0  0  0  0  0  0  0  0  0
    7.3893   -3.5018  -18.1224 F   0  0  0  0  0  0  0  0  0  0  0  0
    6.2917   -5.3803  -18.4791 F   0  0  0  0  0  0  0  0  0  0  0  0
    6.5591    2.8889  -16.8933 S   0  0  0  0  0  0  0  0  0  0  0  0
    9.2515    8.1593  -17.8073 H   0  0  0  0  0  0  0  0  0  0  0  0
    7.3873    7.3382  -16.3845 H   0  0  0  0  0  0  0  0  0  0  0  0
    8.7939    9.0417  -20.0812 H   0  0  0  0  0  0  0  0  0  0  0  0
    4.5803    8.3080  -19.5040 H   0  0  0  0  0  0  0  0  0  0  0  0
    3.9576   -0.9125  -19.4992 H   0  0  0  0  0  0  0  0  0  0  0  0
    6.5466    1.7018  -21.7446 H   0  0  0  0  0  0  0  0  0  0  0  0
    4.6852    1.4796  -17.3756 H   0  0  0  0  0  0  0  0  0  0  0  0
    6.1623    0.9619  -18.2569 H   0  0  0  0  0  0  0  0  0  0  0  0
    6.1112    5.0760  -16.0311 H   0  0  0  0  0  0  0  0  0  0  0  0
    4.6682    4.0094  -15.9465 H   0  0  0  0  0  0  0  0  0  0  0  0
    5.9976    3.0142  -19.7007 H   0  0  0  0  0  0  0  0  0  0  0  0
    5.8800    5.2422  -18.4889 H   0  0  0  0  0  0  0  0  0  0  0  0
    3.3897    3.4783  -18.1435 H   0  0  0  0  0  0  0  0  0  0  0  0
    4.9203   10.6473  -22.3511 H   0  0  0  0  0  0  0  0  0  0  0  0
    4.2557    9.8092  -20.9080 H   0  0  0  0  0  0  0  0  0  0  0  0
    5.4362   11.1478  -20.7049 H   0  0  0  0  0  0  0  0  0  0  0  0
    5.6493    8.4148  -23.2772 H   0  0  0  0  0  0  0  0  0  0  0  0
    6.7033    7.3326  -22.3053 H   0  0  0  0  0  0  0  0  0  0  0  0
    4.9940    7.5952  -21.8194 H   0  0  0  0  0  0  0  0  0  0  0  0
    4.0351    2.2915  -21.0436 H   0  0  0  0  0  0  0  0  0  0  0  0
    3.4096    1.3526  -19.6458 H   0  0  0  0  0  0  0  0  0  0  0  0
    5.1107    6.9527  -16.0181 H   0  0  0  0  0  0  0  0  0  0  0  0
    3.9580    8.0212  -16.8877 H   0  0  0  0  0  0  0  0  0  0  0  0
    8.3759    9.2674  -22.1070 H   0  0  0  0  0  0  0  0  0  0  0  0
    7.2323   10.1881  -23.1419 H   0  0  0  0  0  0  0  0  0  0  0  0
    4.9749   -2.3435  -18.1161 H   0  0  0  0  0  0  0  0  0  0  0  0
    8.4322   -2.4241  -22.0446 H   0  0  0  0  0  0  0  0  0  0  0  0
    8.0214   -3.1124  -20.6220 H   0  0  0  0  0  0  0  0  0  0  0  0
    3.7156    6.3358  -18.5227 H   0  0  0  0  0  0  0  0  0  0  0  0
    3.2073    5.2646  -19.6486 H   0  0  0  0  0  0  0  0  0  0  0  0
    8.6170   11.5619  -21.8908 H   0  0  0  0  0  0  0  0  0  0  0  0
  1  2  2  0
  1  3  1  0
  2  7  1  0
  3  8  2  0
  4  7  2  0
  4  8  1  0
  5  9  2  0
  5 11  1  0
  6  9  1  0
  6 12  2  0
  7 21  1  0
  8 24  1  0
  9 20  1  0
 10 11  2  0
 10 12  1  0
 10 27  1  0
 11 33  1  0
 12 34  1  0
 13 15  1  0
 13 41  1  0
 14 16  1  0
 14 41  1  0
 15 17  1  0
 15 20  1  0
 16 17  1  0
 16 28  1  0
 17 31  1  0
 18 24  1  0
 19 24  1  0
 21 28  1  0
 22 24  1  0
 22 32  1  0
 23 25  1  0
 23 26  1  0
 23 33  1  0
 25 35  1  0
 25 36  1  0
 25 37  1  0
 26 38  1  0
 26 39  1  0
 26 40  1  0
 29 41  2  0
 30 41  2  0
  1 42  1  0
  2 43  1  0
  3 44  1  0
  4 45  1  0
  5 46  1  0
  6 47  1  0
 13 48  1  0
 13 49  1  0
 14 50  1  0
 14 51  1  0
 15 52  1  6
 16 53  1  6
 17 54  1  1
 18 55  1  0
 18 56  1  0
 18 57  1  0
 19 58  1  0
 19 59  1  0
 19 60  1  0
 20 61  1  0
 20 62  1  0
 21 63  1  0
 21 64  1  0
 22 65  1  0
 22 66  1  0
 23 67  1  0
 27 68  1  0
 27 69  1  0
 28 70  1  0
 31 71  1  0
 32 72  1  0
M  END
>  <OMEGA_C>  (20) 
MssDQasUA0GsaZHB5tnlQMhe90Bf9YrBnjn/QEUvC0FkuJvBkRSzQFiPBEEwG5nBN/OaQMTeQr/m
zKDB+dHJQOmJNz9L+arB9Hy7QPTy+EDwyo7BgajUQD02DEEgsZ/BbCOlQCbyBj/ykKTBS4baQK53
1L/imanBXby1QNy+7b/PTaPB63HkQFD0v77OfK3BZxiyQC4C6j/je4/BZdKwQB4EikBChYTB12aj
QOSoKEDNbpnBan+gQE20nEDOOI/BMl2HQGKOdkAh+ZXBS7GkQO2xJEHcrKrByU+8QNQOAUE3FrLB
DCiKQJ6L2z+CM6HB0BSXQPyd50A+DYjBv4rwQJtFH0G117DBQamhQEt/VMDZ7ZTB4ifKQApPFEFS
HavBxUVqQClEgMDCp5TB20jGQI1ahMDliI/BcWf1QCoGL8Bb06vByTODQEOGwUBfKo3BK5n2QGf1
VUBKjI3BO5TYQCI7DEDN5XnB8WhvQCvAkEDnSJ/B1Ez8QBGQMkFhgqvBxkSsQDD8SMAsGKDBY98D
QctBPL5kkLPBLwQvQNFVSsDo2JjB4PJSQGTYicAye4rBSVpqQHuapMDtqJrBnC6/QP/Nh8DC2oTB
zXTsQHMdYMC8+pDBbFXJQFYrrMBB1ZPBB+TRQPLiOEBmJYfB+QUUQWKMAkFWdY7BA2XsQDXS6kB/
E4PBvrMMQd+qEEFYpqDB+5GSQKTtBEEjCJzBGUl9QPCXab9m/pvBrX3RQKvU2T/Y9K3B/uyVQC9i
vT8jAYvBgjHFQNw9dj8vDpLBp47DQFJuokC9P4DBPmKVQFRNgEDNJH/BBuy/QDLpQEAOm53Bjii8
QEvAp0Be6ZPBfPFYQBGdXkDeJZHBRnOdQDRbKkH3zrLBAS+IQHzyHEGhQ6fBwvWtQFddMkG8o6XB
V8e0QNyiBkHEN7rBTIHWQOuk6kBXcbLBE8+fQBUM80AZjq7BvB+BQDOnEkBMWajBZDZaQCoirT+O
Kp3BKIujQCx83kALJYDBIVB9QLZWAEH1GYfB1AMGQTNHFEEY27DB8G7nQJwCI0GEIrnBTjKfQIb8
FcC47ZDBTuoGQbUjG8BUW7DBllcAQSAxR8DI+aTBcMxtQO++ykB8LpTB+kNNQE93qEBeMJ3BEd8J
QbH9OEFRIK/BxLsCQfpbAkFj55LBnq7kQIp69UCtN4zB6Jz7QB3tCkHSBZ3BmOGvQLj2A0GF1pnB
TZyaQKxrWr9Y/J/BSYzFQAqsJz/Q8KrBZ8a5QC5G90B0po/BT4nQQLcADEE0mqDBJ16iQKyT3z40
GKTBMXTZQJ4O2b/AcKnBo1i2QARp9r+7nqLBTwjhQPsW0b6Ema3BncyxQKYH5D+ZTo/BGVixQB5I
iUDetITBYhOhQGPFI0BuNJnBPSefQBbymkDXVI/B0TeFQF2WcUCIpZXBYWbrQJkxH0FZtLHB/WGj
QIivJ0GsGKrBiPOGQP6TzT9CiKDBJF2WQN5h5kA1g4jBSCqwQIfiA0FGwLLBE+2iQIqQWMANBJTB
zIDEQLt5FUEro6vBjiVsQDXbgcAuIJTBPzTGQDidhsDPJ47BMw/1QDmKL8Dt7qvB4PSBQAfAv0Dc
Mo3BFAP2QLKRVEADRY7B1/3aQFqgDEBLdnrBDL1nQGtojUBy5J7Bo/bMQGbW5EAhMrTBGdivQJDh
TcBXDZ/BooABQfJkPr4uEbTBZ70zQBIkUMAcUpnBAiVPQNQxiMCMBIrB1mBuQLzpp8ClZpnBcdW8
QFDRicDMlIPB9rzsQEclZcBaJI/B+fbJQM6HrsDKXZLBVHzSQFi5N0DEcofBmCwTQa2jAUG2RJDB
0l7sQNFm6EBMdITBoYMKQei6EEGSG6LBzwePQAA4BEG8hJzBSu9+QH46g79S0ZrBYmfLQKwH0j9m
Jq7BxY6WQA43tz8vfYrB+dPEQMTeaj9p9ZHBcnXEQC44okBYvYDBuNCWQItUf0BP5H7BD7O8QFzx
O0Dfvp3BKfe5QKC+pUB5WpTB4IVWQMzsWUCkfZDBdrLgQAieJUG9crnB8XT5QIcnLEER5qzB/sYB
QeStEkHUDbPBfcuaQNxvLkE577HBLYmGQJE+IUFCN6bBPFCxQEdMNEHUCqXBCOV3QMROCkBYnafB
KTZWQIUFnT8DFpzBIvCjQD4U3kC7qYDBFOp7QBVt/0DngYfBOMWSQJwL/EDq5a7B9kGoQBjBCkG0
m7rB6CCgQKS/GcDNGpDBiAgGQXhiGsAR07DBeCIBQR8eRsAsN6XBmfdoQBM+yEA0I5TBs8pFQCQc
pUDcvJzB3+K/QEGxz0C7kbjBbukDQXXkAUE9nJHBSPnlQPvl9UCiFIvB4Xz/QPv/CUEu6JvB7Bmz
QJR9BEHRGpnB7cqaQNEvQb+v06DBenzJQBleOD8VFKvBf4m7QE10+EBQ1I7B/NTUQMCoC0FPxJ/B
Q82kQJgUCD/hrKTBq2TaQNjN07/qmqnB2MS1QFbo7L+1PaPBnjPkQJbxvb6siq3BSNexQOLH6T8K
l4/BZu2wQErfiUCml4TBWTWjQHLKKECqhpnBpnmgQDqhnEArRo/BxUSHQES3dkAdC5bBcB6oQA8o
JkFfYarBE0G4QNiTAUHe8bHBk+SJQMpa3D+NUKHBVxaXQGh250AeEojBb+nxQEQyHUHlKLHBBX+h
QO7/UcBrpJTBHVXKQNQnFEG2GqvBwxZqQOBXfsDTaZTB45bFQFdYgsAdzo7BYVD1QIumLsCh0avB
VimDQN1mwUBfLI3BrpH2QGUnVUCwpI3BWGfYQIx9C0BhHXrB/WhvQM8AkUB0V5/Bqd0BQRFCL0HQ
xqvBv/WsQA5kSMBGy5/Bd8sDQQiBN76FlbPBf7kuQDmsSMD/rZjBUJpSQKieiMDGPIrB8bZqQBmi
o8DbX5rBybHGQMPXq8BtCJLBaRa/QOX3gMASEoTBcXfsQOrRYMCQ4ZDBsczRQFJcOEBRPofBMywU
QbcBAUF/uI7BiXjsQKJJ6UC4M4PBx+IMQe8CD0Ed7aDBrH6SQAZeBUFJ75vBc/F8QA+jZ7/wBZzB
AhjRQI0V2j/3GK7BhKSVQPd7vT/sG4vBOtHEQCdRdT+cLZLBc9HDQIY5okBmV4DBB4qVQGRBgECy
On/BLMK/QFD9QEDfsJ3BRBS8QB/Ep0Cx+JPBvahYQPvRXkAXO5HBtNOgQBkcLEFgdbLB082KQM29
H0HPtqbBLoO0QGBbM0EEdKXB87KwQIp4B0HQBLrBezjQQNF36UCBfrLBKgCbQKam9kDJLa7B9/eA
QIkvE0DedajBVI5ZQI08rj+yS53Bi3qjQKll3kDpJoDB04N9QP5QAEFvJofB4TMFQVWbEEG3ubHB
dAvoQIcNIkEaQLnBeYieQNSyEsD73JDBDs0GQbjZGsDpZrDBpmUAQfhsRsDg96TBnXJtQASmykAm
LJTB0F9NQCS8qEDXOp3BOeENQa9hNEENqq/BX5kEQakKAkE6opHBKQbnQIMA9kD1OIvBtrkAQXkE
CkHQ/pvBsQi1QDH8A0EYhJnBI3WbQFkBTb+cup/Bf9nEQNqHPD/M1arBLNG8QBIi+EAaJY/BfxXX
QH0uC0FxE6DBgQ+iQNKU/D7g6qPBTV3ZQMLHzb++xqnBJ4y3QLyY7L9ElKLBaoPgQObdnr5ouK3B
WYWvQEaD5z9K3o7BLravQIJTikAdYoTBU+2gQCjuJUD87pjBD/KfQJBjnEAfNI/B+QqGQLcGdkCp
xZXBoPmpQFzPJEFIDavBxzK8QIwzAEFTQrLBnIWGQBJo0z+bSKDBQNuXQOgB6EDXaIjB14T0QNyK
HEFai7HBUGi3QC5qUcAEKZPBaxfNQEkzE0Eih6vBR6WWQAKAi8DF/o/B1mjnQL43aMCBKZDBASD0
QIBbKcBG6qzBc2ODQG74wUBoY43BvQn1QAi7UUC5GY3BIZ3VQAxcDED+unjBuspuQG77j0AqQ5/B
V40BQS/IL0EsnazB9gGyQICUR8CQp57B3yMBQTBPgL30MLTBVP5dQAwcf8CTa5PBZ1aVQE5FkMBI
NIXB0BqhQEBQscAnuJTBEE3qQNgLlcATGonBsRT7QNZcI8DmqYvBC1D+QK5zf8B36ZjBrs3PQBGY
N0D8sIbB48MUQT1VAUE5mo7B3x3tQCyT6UA6ToPBefgNQY1KD0G24KDBy6KUQPeTBEFfgpzB2wmB
QN5Gfb/vXZrBqD3KQFOM3T/X7K3BT0aTQLievT8IUYrBHj7CQDTkbT89U5HBn+vCQJ63okCGPIDB
f/2TQA6xgUAJ0X7BxHm9QOJiO0DfU53BIeK7QExipkAb8JPBAENVQLfFYEDR7pDBRO6iQBx7KkG9
MbPB3LyMQEYiHkHbdqfBPmq1QJNFMkFNKKbBi/u0QAK2BUF2a7rBrK3UQF0k50DslLLB1+2eQKeh
80Cvjq7BQrN2QAarDUBvUKfBX5FVQH0Loj951JvB4t+jQEg030C+b4DBHdB/QEPOAEG6n4fBgUQH
QWGwEEFfcLHBtnPrQGX7H0El37nBHNuuQBZuFcB8FI/B8BQFQUUUE8DVALLBXlABQbb7QcCFe6bB
+BRvQHTqykCweZTBBfpNQOFrqEAiXZ3BDY8NQQsnNUFNbLDBWJAEQeX0AUHkXJHBn9jmQPj/9UD5
9orBGcQAQcHVCUGgwJvB9hW1QBXZA0E5VZnBBmCbQP5gTb83xJ/BljjFQPamPT/zt6rB/7W8QKEG
+ECl8I7B/jPXQBsOC0HK3J/BaQuiQDjI/D557aPBKazZQG1Kzb8IsKnBaqa3QKuC7L+Pj6LBdRzh
QANim740h63BrlyvQLYT6D8n8o7BOrGvQHVBikAkcITBWI6gQDwvJkDg/ZjBjpufQFlxnEAaOI/B
3aOFQGsydkAUzJXBJz+oQLBiI0EzLavBybO/QHPU/kBBPLLBbEyGQA9h0z/YVqDBjqKXQN7V50Dt
QYjBt030QHF7HUH2DLHBu0u4QHt6UcDoJ5PBFHbNQHLWEkGkX6vBW3GYQIwnjMA23I/BnKHoQBt1
ZsCOSpDBLTf0QAg1KcCe56zBdBqDQB8BwkA0VI3B2bv0QBuSUkCjZo3Bd2rWQHGIDED+KHnBCvtt
QGgnkEBERp/BABkAQZXQMEGvxqvBqSGyQE+OR8DFoZ7BGqsBQci+U71m1rPBtvhgQEdhgcDRTZPB
UViXQGhBkMACDYXBcc+jQJQAssCSbpTBMyb8QAflH8BYL4zBFQL/QOnGf8BrCZnBkm3sQOoSk8BE
8ojBjO3PQDvtN0CY3obBVrUUQXNCAUFlTY7BN8zsQEvJ6UA5BYPBfQ4OQd39DkGgoqDBQr6UQOdd
BEHnXZzBgcSAQKtXfr8eeJrBDrvKQOBF3j/TxK3B5TqTQP6cvj+9VYrBCPLBQKF+bj/Ya5HBTuHC
QDqmokA+SYDBMiGUQBBhgUCH3n7BiAm9QLndO0BUZZ3B4227QFSKpkCH+5PB34BUQGDZYEDA9JDB
i4ShQJ/VKEGTX7PBIXCLQJTaG0FUzafBPHqxQDkqMUFJNqbB/LG4QFrBBEF6b7rBgbvZQPkk50Aq
aLLBk+WiQJA08ECeva7B6U52QP5vDUDJY6fBthdVQB7goT+25ZvByomjQOC/3kAmS4DBMYV/QBu/
AEFjcIfBrMgHQTlaEkEP77DB16LrQPgZIUGwYrnBcWOvQLjiFcCkCI/BpDkFQbDAEsBO7bHB1D0B
QefEQsAQf6bBo5tuQGg5y0AjZpTBwyFNQFWQqECEXJ3BQPYLQWUPN0E/W6/B5eECQUVpAUGXnpLB
P1zkQMwu9EDIC4zBS7/8QC86CkEdvJzBP5awQAgUBEGKx5nB/lObQFg+YL91RJ/Beq3CQLQMJT+g
+arBqKq5QD769kCsmI/B7eTRQKvXC0EebqDBfMmgQJMN0T6GwaPBONHYQNBY1799eKnBCr23QBJQ
9b+qEqLBPrXeQI16y76Gyq3BgMOwQHQC4z9gFo/BY9GwQPxliUD5vITBDNefQPIvIkAOCpnBSaOe
QIbEmkAdZY/BSn+EQNAVcUAIopXBZlbuQM3tHkGUa7HBe+ulQBq9J0FHKKrBaSOFQERpyD8oGaDB
bauVQMxP5kA6nYjBl7GyQCbbA0HptbLBFrO6QO1zVMD5j5LBm9bGQC1hFUFfhavBbBedQK9Uj8B7
HY/B/J7rQMPGZcBdEpDBvA70QEX7LcAoaKzB23aBQLivv0D0Wo3BDiP1QB+HU0BiVY7BeW/aQJU2
DUCnTHrBUG1nQOXojEBB+p7BR57PQAbr5EADM7TBhB2zQI97S8Aa+Z3Bn6//QKZNIL4eh7TBZMtp
QEeJiMA8ApPBILiaQEd0kcCRSYTBTxSsQAL4tMBYGZPBAO3wQH2qi8CEO4fBgVoAQSLyGsAzS47B
zwn/QMpVh8CmWJjBW8LRQMORN0D3Z4fBuz4TQQFFAEGu5o/Bk2jrQE7M5kATR4TBdlILQbfPD0GH
uqHBHt+PQNu/BEFOi5zB9YiBQHrmh79RtpnBFBnHQNeP0D8VWa7B/5yVQFCvtz9KL4rB9ZvDQC8W
Zz9zrZHBlAzEQJhkokBL1IDBREmWQCkNgEB65X7B6Fu7QI77OECHup3BhHO5QORRpUACc5TB6XVU
QPesWkDnfJDBnknkQI1mJUFeNbnBFUr8QHjTK0GRjazB4S0DQbxOEkGOqrLB+RSeQIiBLkF7CrLB
v6eIQCdvIUEwa6bBhamzQKVNNEGvCqXBdRZyQJToBkDtIafBbwVUQDjolj/ka5vBu5+iQNoT3kDo
sYDB4JF6QHl1/0Abv4fBYEyVQOTH+0DW5a7BYtKqQA/TCkFUjLrB9uiwQNvaGcD0V47B0cQEQUxj
GMDOr7HBpJsBQUwPRMCk7KXB4rdoQLovyEBiVpTB7A5GQEj4pEDF7pzBlafCQFXbz0BunrjB

>  <OMEGA_E>  (20) 
DNSWPhD5mD74zJU+EKO6PmBwuz4ImL0+

>  <OMEGA_NBR>  (20) 
     69265

$$$$
50216834
     RDKit          3D

 69 71  0  0  1  0  0  0  0  0999 V2000
    8.1458    8.2213  -18.2718 C   0  0  0  0  0  0  0  0  0  0  0  0
    7.1202    7.7373  -17.4408 C   0  0  0  0  0  0  0  0  0  0  0  0
    7.8480    8.6927  -19.5648 C   0  0  0  0  0  0  0  0  0  0  0  0
    5.4892    8.1935  -19.1966 C   0  0  0  0  0  0  0  0  0  0  0  0
    4.8330   -0.8159  -20.0218 C   0  0  0  0  0  0  0  0  0  0  0  0
    6.1956    0.6876  -21.3769 C   0  0  0  0  0  0  0  0  0  0  0  0
    5.7873    7.7348  -17.8979 C   0  0  0  0  0  0  0  0  0  0  0  0
    6.5120    8.6809  -20.0450 C   0  0  0  0  0  0  0  0  0  0  0  0
    5.0878    0.4734  -20.5303 C   0  0  0  0  0  0  0  0  0  0  0  0
    6.8032   -1.6661  -21.1880 C   0  0  0  0  0  0  0  0  0  0  0  0
    5.6957   -1.8897  -20.3487 C   0  0  0  0  0  0  0  0  0  0  0  0
    7.0517   -0.3800  -21.7042 C   0  0  0  0  0  0  0  0  0  0  0  0
    5.5631    1.7967  -17.9251 C   0  0  0  0  0  0  0  0  0  0  0  0
    5.5419    4.2911  -16.5773 C   0  0  0  0  0  0  0  0  0  0  0  0
    5.0461    2.5858  -19.1580 C   0  0  2  0  0  0  0  0  0  0  0  0
    4.9731    4.8539  -17.9003 C   0  0  1  0  0  0  0  0  0  0  0  0
    4.1708    3.7942  -18.7060 C   0  0  1  0  0  0  0  0  0  0  0  0
    5.0429   10.1813  -21.4658 C   0  0  0  0  0  0  0  0  0  0  0  0
    7.3524    9.6649  -22.2840 C   0  0  0  0  0  0  0  0  0  0  0  0
    4.2343    1.6449  -20.0889 C   0  0  0  0  0  0  0  0  0  0  0  0
    4.6792    7.1955  -17.0159 C   0  0  0  0  0  0  0  0  0  0  0  0
    5.1092   -3.3621  -18.5336 C   0  0  0  0  0  0  0  0  0  0  0  0
    6.1529    9.1028  -21.4812 C   0  0  0  0  0  0  0  0  0  0  0  0
    3.7207   -4.0608  -18.5242 C   0  0  0  0  0  0  0  0  0  0  0  0
    6.2476   -4.1777  -17.8474 C   0  0  0  0  0  0  0  0  0  0  0  0
    7.6628   -2.7184  -21.4907 N   0  0  0  0  0  0  0  0  0  0  0  0
    4.0512    5.9924  -17.6198 N   0  0  0  0  0  0  0  0  0  0  0  0
    7.6923    3.3382  -17.7759 O   0  0  0  0  0  0  0  0  0  0  0  0
    6.8447    2.1941  -15.6581 O   0  0  0  0  0  0  0  0  0  0  0  0
    3.6343    4.4498  -19.8583 O   0  0  0  0  0  0  0  0  0  0  0  0
    5.6673    7.9484  -22.1688 O   0  0  0  0  0  0  0  0  0  0  0  0
    5.4694   -3.1806  -19.9217 O   0  0  0  0  0  0  0  0  0  0  0  0
    8.1201   -0.1639  -22.5054 F   0  0  0  0  0  0  0  0  0  0  0  0
    2.8221   -3.2828  -19.1851 F   0  0  0  0  0  0  0  0  0  0  0  0
    3.2764   -4.2386  -17.2547 F   0  0  0  0  0  0  0  0  0  0  0  0
    3.7761   -5.2631  -19.1582 F   0  0  0  0  0  0  0  0  0  0  0  0
    5.9425   -4.4194  -16.5470 F   0  0  0  0  0  0  0  0  0  0  0  0
    7.4138   -3.4737  -17.8889 F   0  0  0  0  0  0  0  0  0  0  0  0
    6.4505   -5.3609  -18.4848 F   0  0  0  0  0  0  0  0  0  0  0  0
    6.5808    2.8778  -16.9302 S   0  0  0  0  0  0  0  0  0  0  0  0
    9.1659    8.2316  -17.9170 H   0  0  0  0  0  0  0  0  0  0  0  0
    7.3536    7.3679  -16.4532 H   0  0  0  0  0  0  0  0  0  0  0  0
    8.6413    9.0658  -20.1956 H   0  0  0  0  0  0  0  0  0  0  0  0
    4.4684    8.1728  -19.5487 H   0  0  0  0  0  0  0  0  0  0  0  0
    3.9792   -0.9849  -19.3823 H   0  0  0  0  0  0  0  0  0  0  0  0
    6.3871    1.6732  -21.7747 H   0  0  0  0  0  0  0  0  0  0  0  0
    4.7092    1.4419  -17.3293 H   0  0  0  0  0  0  0  0  0  0  0  0
    6.1587    0.9352  -18.2614 H   0  0  0  0  0  0  0  0  0  0  0  0
    6.1370    5.0674  -16.0740 H   0  0  0  0  0  0  0  0  0  0  0  0
    4.7130    3.9829  -15.9231 H   0  0  0  0  0  0  0  0  0  0  0  0
    5.9119    2.9709  -19.7167 H   0  0  0  0  0  0  0  0  0  0  0  0
    5.8097    5.2064  -18.5215 H   0  0  0  0  0  0  0  0  0  0  0  0
    3.3562    3.4159  -18.0710 H   0  0  0  0  0  0  0  0  0  0  0  0
    4.7984   10.4713  -22.4983 H   0  0  0  0  0  0  0  0  0  0  0  0
    4.1450    9.7761  -20.9764 H   0  0  0  0  0  0  0  0  0  0  0  0
    5.3964   11.0631  -20.9113 H   0  0  0  0  0  0  0  0  0  0  0  0
    7.0197    9.9432  -23.2948 H   0  0  0  0  0  0  0  0  0  0  0  0
    7.7521   10.5528  -21.7722 H   0  0  0  0  0  0  0  0  0  0  0  0
    8.1377    8.8980  -22.3548 H   0  0  0  0  0  0  0  0  0  0  0  0
    3.9049    2.2075  -20.9748 H   0  0  0  0  0  0  0  0  0  0  0  0
    3.3549    1.2683  -19.5458 H   0  0  0  0  0  0  0  0  0  0  0  0
    5.0993    6.9273  -16.0353 H   0  0  0  0  0  0  0  0  0  0  0  0
    3.9127    7.9738  -16.8860 H   0  0  0  0  0  0  0  0  0  0  0  0
    5.0199   -2.3874  -18.0316 H   0  0  0  0  0  0  0  0  0  0  0  0
    8.3908   -2.3919  -22.0935 H   0  0  0  0  0  0  0  0  0  0  0  0
    8.0637   -3.0745  -20.6466 H   0  0  0  0  0  0  0  0  0  0  0  0
    3.6298    6.2668  -18.4842 H   0  0  0  0  0  0  0  0  0  0  0  0
    3.1007    5.1864  -19.5843 H   0  0  0  0  0  0  0  0  0  0  0  0
    5.4381    8.1833  -23.0603 H   0  0  0  0  0  0  0  0  0  0  0  0
  1  2  2  0
  1  3  1  0
  2  7  1  0
  3  8  2  0
  4  7  2  0
  4  8  1  0
  5  9  2  0
  5 11  1  0
  6  9  1  0
  6 12  2  0
  7 21  1  0
  8 23  1  0
  9 20  1  0
 10 11  2  0
 10 12  1  0
 10 26  1  0
 11 32  1  0
 12 33  1  0
 13 15  1  0
 13 40  1  0
 14 16  1  0
 14 40  1  0
 15 17  1  0
 15 20  1  0
 16 17  1  0
 16 27  1  0
 17 30  1  0
 18 23  1  0
 19 23  1  0
 21 27  1  0
 22 24  1  0
 22 25  1  0
 22 32  1  0
 23 31  1  0
 24 34  1  0
 24 35  1  0
 24 36  1  0
 25 37  1  0
 25 38  1  0
 25 39  1  0
 28 40  2  0
 29 40  2  0
  1 41  1  0
  2 42  1  0
  3 43  1  0
  4 44  1  0
  5 45  1  0
  6 46  1  0
 13 47  1  0
 13 48  1  0
 14 49  1  0
 14 50  1  0
 15 51  1  6
 16 52  1  6
 17 53  1  1
 18 54  1  0
 18 55  1  0
 18 56  1  0
 19 57  1  0
 19 58  1  0
 19 59  1  0
 20 60  1  0
 20 61  1  0
 21 62  1  0
 21 63  1  0
 22 64  1  0
 26 65  1  0
 26 66  1  0
 27 67  1  0
 30 68  1  0
 31 69  1  0
M  END
>  <OMEGA_C>  (21) 
WVUCQYqKA0GQLJLBUNjjQEKY90C6hovB9iL7QIEVC0HBhJzBuqevQIkYA0GikpnBG6iaQJ7fUL+U
LKDBlkLGQKEFMD/RA6vBbDG5QNaD90DyLo/BG2LQQBDlCkEgXKDBEM+iQKNf8j4SPqTBsrPZQBNC
1b/9gKnBR0O2QBng8b8LyqLBzqfhQAyJwr4roq3B7wSyQI/65T+UZo/BkFexQHVQiUBCnoTB13mh
QF5+JUChQ5nBoiOfQFpTm0DbM4/BOHeFQN7UckDzpZXB11+hQHXmIkHtuavB/kbrQI6jGkGJRbLB
cn+HQLeL0j/9taDBHryVQKZB5kCNIIjB536jQOQrV8DTRJTBOeTEQBylEUF22avBSSBuQBvygcCd
MZTBqezHQL2vhcBux47BUjX1QLb5LcDu7KvBK6OBQL7Bv0Bp9YzBfyf2QMqkVUD/NI7BigfbQGBr
DECih3rBo5hoQKFkjkDI3Z7BRVq1QENZ/kCkWbHB7wSvQMCOS8ClX5/BEOwBQczLJ77/CrTBvZ00
QNwYUsD/epnBWLBRQD6ih8CKCYrBjatxQIRrqMAORJnBLSm+QFVrjcBJYITBkD3tQCRRXsCGHI/B
pmrOQGOMq8DU4JPB7ZXSQNItOED3cIfBa6cSQYW0A0EeVo/BzlDrQJzF60AVoIPB4kIKQbgNEUGL
kKHBdf2OQOvDAkG6Y5zBpqt+QAwlfL8JD5vBRmPMQGgs1j9+Mq7BvrGWQEqRuD9goorBLBTFQCNr
bz9UF5LBfWLEQOUnokCnl4DB1dCWQCzofkAwxX7BZy69QMwiPkDcu53BVum5QL2apkDzK5TBoMxW
QGydWkBUkZDBuoyZQGaKJ0GG/LPBhqOEQOZqHEG/z6fBM6+sQG8CMUFVSqfBGKHgQHkXH0HEW7rB
VBH4QGTYKEF/La7BNDQCQQpeDkGN1rLBNep5QL1HDUB8zKfBL7dWQL9Yoj/TXZzBPS2jQH+s3UA+
SIDBWWp6QPYo/0CRFofBpKKgQB3LGMCgQJDBl0AGQTYUGcCCv7DB2gQBQTnERMBJLKXBHU9oQKOJ
yECw35PBGHFGQDX3pUCwrJzBCQWuQOHuAkF3e7jBS9kDQU5EAkG9apHBwEzlQHvk9UAHK4vB9hcA
QSMQC0HQm5vBQo6zQBPxBEEUYZnB3DGbQL2XSb8Ce6DB8dPIQOMpMj+G96rBtiO7QJOk+EBuHY/B
bu/VQHq8DEE8qp/BdrqkQP45AD/FXaTBYTXaQFR91r9OmKnBPBW2QOVy8L9NEqPBIIHjQCISyL5Y
k63BloayQE/F6T++YY/BDOywQGl9ikAWmITBRBajQJeSJ0A6VpnBFRCgQFl/nEDSUo/BydWGQCYN
dUAt3ZXBM7S+QM5kBEHjh7LBO92qQJPqJ0GXPqrBDKeJQDeL1z/F9KDBCzqWQIvR50AhdIjBVH2i
QOMxVsDaopTBwGPNQFM5FkES0qrBEJJsQJDLgcDOa5TBHWDHQGjPhMAIOI/BXhT1QAPCL8AT9KvB
DZqCQJdPwUDDZo3BTbj2QPADV0BMq43BRG7ZQHwRDkAU4XnB3nlsQIZgj0BSKZ/BBzjzQPXBH0Fe
LK/Bk1atQAqESsDJyZ/BFCUDQS+VR75307PB3q0yQEgiU8DT15nBaURQQOefhsDtOorBDdZwQIG4
qMAoQpnBwli9QGccjsC+6YTBTwjsQLlmWsBSQo/BoS7PQJ3aqcBkk5TBfkjSQOTxOUDOK4fBVv4T
QYUjAUGUY47BYyzrQImG6EBEVoPBC2cNQSCVEEHmYKDBEU6TQFiaBUGCd5zBi6x+QDg/cb8EhZvB
yQHQQOQm1z8NBq7Bfq6WQAdIvD9gz4rBONnFQL0Qdz8c9ZHBeKHDQO5Bo0ChcYDBS7+VQJTRgEDA
GX/BuUK/QBoXQEB5oZ3BqX67QMNTp0ChIJTBL+RYQE7oXEAj4pDBnqW4QCRFC0EUfbrBCdnXQIFF
8EDgIbPBpiWhQBUe+kB3d6/BMEilQGN1LkE6S7LBJOiMQAUZIUEyIKfBYde1QDnHNEGv5qTBQwGA
QBEZEEANGajBoe5ZQCOHqD+7yZzB5ySiQDhn30DvcYDBVYN7QHN7AEHiv4fBR4qfQA7IF8DjoZDB
2H8GQWmxG8B+o7DB6osAQQKaR8D6KaXBg21sQIwCykAjc5TBug1KQND5pkDuDZ3B/RXtQKp6JUGd
C7bBm+YBQbMzA0Hd/pHBZC/jQEy69kDyTYvBpKP5QEz8C0H/DZzBGPGtQBoqBUGXtZjBJPeaQPbn
S78iTaDBrp3GQCSxOD+b/arBcCW4QJzG+EAQpo7BiWvOQOI3DUE0fJ/B3TmjQPfL/z7DNqTBXNfZ
QJqW0b8qwqnBQXy2QJM177/BBqPB0tPhQCOksL7Hw63BBTeyQKv66D9LS4/Bou2wQP7ViUD3ZoTB
ZZ+hQCwbJ0DAIpnBCNWeQPYTnEAs+Y7B1myFQNs8dEAffpXBtc3mQDIeIkELO7DBFmGxQBU5BEF3
trHBVc2HQMha1T/RmaDBPemUQG2v5kAaqYfByMejQFhIVsDGiZTBxMfBQKRvFkFRb6rB+LBvQNBt
gsDHcZTBi5bIQLomhMDk6I7B6kH1QG72K8CvUazBtyWBQAJbwEASr4zBwgD2QFkTWEBG/o3BrvXa
QG68DUChO3rBdpBoQLUuj0Dasp7BzhSgQLKYJUHJ4qjBk0OvQPZsSsDfp5/BjvIBQcLm+L0PM7TB
LeczQOZmUcDWCJnB5GpWQKg5i8DRS4rBejRzQA1lp8BdL5rB4i/AQD0viMA/TYTBrDDuQOD/XMAI
ApDBRJ/NQM2wq8CjQJPBXHnSQNHNOUAZRYfBm18SQVl7AkESaY/BdBrrQDIi6UCPnIPBWnAJQeXQ
EUHYL6HB7faMQDjABUEFR5vB9zJ/QIPueL8zN5vBQdjMQEoo2z/QDq7BUemWQNaCuj9Xj4rBgnvF
QCnPdj+2AJLB5b/DQE2ookDlTYDB0FqWQApTf0CScX7BlUm9QDgPQEAXmJ3B06G5QBqYp0Ae5pPB
RqxWQD+eW0Alc5DBNWbbQOw/KEGN+LfBNP3xQByJL0EERavB56sAQbneFkGDkbHBOVSoQFTRCkE5
jbnBlM7KQM168ECrxrLBR1KVQO9E+UAJ/q3BkiJ6QM/ODkAhqafBQZNXQEM1pD9IP5zBw3qiQI2e
3UAHun/Be1N4QNxG/0ATfobBXBygQO/QF8C5lZDBxT0GQV6iFsAyIrHBcBgBQYx7Q8BCnqXB5uhn
QD97yUApm5PBIDhGQJyqpkB3fpzBEeaXQJxyK0FlmK/BVnkEQcUDAUHMRJHBa+flQNGY9EAFE4vB
2S0BQRuQCUEwjZvBxVu1QJxnBEG8hJnBKcKbQO00Vr9+dJ/Bm2nEQNr/Nz87lKrBIwa8QJ0K+EDx
K4/BB2XYQGiaC0HVv5/BLMuhQELg7D4poqPBLkPZQBbmz79swKnBoAu4QIZe8L+3aaLBAETgQCSK
o748jK3BLcGvQKaY6D9Tt47B0KmvQKQJi0ATc4TBiT+gQEMbJUAiy5jBwhGfQOh6nECwQ4/BDh6F
QPD4dEA3o5XBQfDCQH2PAkEYprLB1kCuQKFdJkGt0KrByOSFQOqizj/w9p/Bb2aWQBRN6EBzmojB
ei+6QFVFUcAJz5LBE97QQAOwFEFXBqvBzmmZQAG6isAqLY/BQUzqQN18Z8BcuI/BzJDzQMA4KsC9
MK3BaEeCQAj5wUCJhY3Bvbf0QPtqVECaeo3B+GrXQE10D0B09njBh1prQPHZjkDsIJ/BrhL3QIkf
HkGROK/BQuuzQGuPScAeUJ7B9Q4BQXCyab069LPBJ6FiQJ1we8Bb85HBYBibQOS8j8AUZoTB6lCh
QEbEsMAcHZTBZdT4QGizL8AlM4jBTn8CQSnOYcDQOpjB+uTuQHjsm8CztovBr0vQQPK7OUAu0YbB
x4IUQQE5/0DeII7BuRDrQNCg50CaK4PB0boOQZ+bDkFNSKDB202VQMpXBUHQtpzBa6SBQAVrhL+i
BZrBkoXJQJm82z8foK3Bau+TQP6/vj9SAIrBN47CQJRLcD8CKJHBFcHCQA/To0C5aoDBUlqUQH8p
gkB6uH7BgGi8QJDYOkANUp3Bcam6QIpqpkCVIZTBKUBUQGqWX0BoqZDB4pe9QC4iCUGzs7rBwinc
QLeb7EDu/bLB2SClQGyh9kCzr6/BBG2pQJWcLEEQ9LLBJgaQQGyiH0Gy0KfBgq64QIxtM0FYhqXB
kfFzQL1WCkAf/qbBqU9VQJ85nD/MXZvB4aqhQJsB4EBCh4DB2tV8QNX8AEFrD4jBUO+xQA5DFMCi
7o7B6ZwEQRloE8CsV7LB70UBQXH4Q8B75abBDtlsQH6jykAqoZTBtkBKQEI0p0D0PJ3BlJnxQL2a
I0EiLbbBe8MCQRCLAkESS5LBljPkQNl99kCKrIvBRI78QAssCkH7ppzBmaKwQBUtA0FSx5nBtvCb
QOPeYL+yI5/BohTDQPbBLT/mlarBH6C5QFps90B+Yo/BfNzRQKWJCkGjh6DBBRuhQL8g1j46dKPB
ye7YQO7P078tranB/nC4QEa29L8KJqLBARjfQJaBtL5jna3B/zSwQGoY5T8cr47BmCiwQOMpikBP
eYTBq62fQMzFIkDktJjBuGieQL9dm0BCMI/B32CEQPczckCSc5XBBGClQIYPJEFwo6vBlvDtQAS4
GUEHbrLBOh2FQNpcyD94uJ/BupyVQITp5kDDZojBTaO8QEdmUsDqd5LBRcXGQOXIEUHm9avBAH6c
QNd5i8DPmI7BryPtQEm+Z8CJp4/BqlvzQHnOK8AoKq3BiVOBQMNnwEBiM43BJr/0QLUjVECP1I3B
qy7ZQNcHD0C7UHnBNkdoQGRRjUBm4Z7BvOG0QC7Y/0BAhbHBezK1QCeGS8Ac8J3B2iUAQXC7r73p
N7TBOShoQMk/fsAFRpHB8NKeQKbjj8CYz4PBQpSkQOWvscBvbZPBF4j8QF8oLsA7dYjBpWUDQZ05
ZMCwYZjBhknyQFGGm8D1XovBNgXRQFvLOEBk+obBOQ8TQb5LAkH4a4/BSDnrQOeU6kBpwYPBOikL
QTTID0FSrqHBzAGQQN9HA0FYoJzBwlSCQMUzir/RkJnBqZLHQP1i1j+Nuq3B5dyUQJZ6uj8X04nB
JRTDQIdvaj8SMZHB0FXDQPYvo0BTj4DBzGaVQKkKgUD/dX7BV1+7QLb1OECIYJ3Bt2m5QMnKpUAQ
MpTBC51TQGRbXEDgXZDBZ7adQIMZKUF82bPB9ByIQPtbHkHyqafBHY+yQP+2MUGCK6fBYJTjQA2b
HkEserrB2of8QLJ0J0HUT67B2sUCQSO7DEEqGLPBICFxQGOnBkD/uKbBRptUQDpvlT9Y/ZrBJoii
QDuH3kANfYDBdqV6QAsSAEGsg4fBBIO0QANRFcD5l47B/zgEQYTlFMDzdLLBuoEBQbamRMCt6qbB
Lf9oQPYByUAINZTBYf1GQOKFpUCJ7JzBdMatQOkKBEHvnbjB/I8CQUkOAkHd8pHB7cHjQPhF9UAd
X4vBJv77QAHTCkF3EpzB9tavQPCtBEEqDZnB2ymcQIrCVb8lUZ/BAdDDQFMbPT8qf6rBBgG5QH/8
90C86I7BlxHRQGJtDEFisJ/B2X2hQIyF7j7ef6PB3XHZQEaAzL8uz6nByJ64QIus7r9/YaLBEOzf
QG2Ak778j63Bc16wQB2c5z+vtY7Bb8SvQNxCikD5S4TB83qfQKO5JEC5pJjBadCdQIzLm0B29o7B
zduDQD8/c0ABRJXB6fvqQNjFIUGXIbDBHme2QPCZA0E8LLLBADOFQF0OzT8+v5/BPvCUQFwM50AU
AIjB7se7QO5GUcCS4JLBNYrFQNnAFUFdsKrBu0ybQO/gisDgJ4/BSSrsQGrFZ8CcJpDBU8TzQKnj
J8BBa63Bd7WAQCq7wECl6IzBynj0QLd3VkBj1I3BspbZQDNID0AHb3nBgKRmQAUHjkD3op7Bt1qj
QE62JEFqUKnBU6u0QG7bSMDnV57B+K8AQaCsNryUD7TB0PxlQIvqe8Ciw5HBlYidQEkZkMDwYoTB
cxijQHvEsMAeK5TBdvP8QBbVK8CFd4nByX8CQXmXacAiB5nBxavwQJ6tmsDJXYvBNwfRQDffOUCP
9obB/O0SQUoGAUHgOY/Bt+HqQDvP50C0nYPBw+UKQcZbEEE7HKHBiBiPQLhuBUElypvBpm2CQFB1
hb9ry5nBs33IQFXG3j+4ga3BsTOVQO1Quz/F2InBxGbDQDGCcT8VUZHBWrvCQANFo0AMUIDB9x+V
QKWigECBJX7Bhwi7QAzsO0ARSp3BAsC4QOBmpkAM+JPBJPdSQA+SXECMLJDBOmzgQA76J0F/7rfB
xy71QJQqL0HqBavB0PsCQZm3FkEETrHBFymuQHpNCkFyC7rBPTLQQAeK70DOGbPBOhKaQKmY90CS
s67BMHJxQElWCUAzu6bB07BUQN72mD/NFJvB3M6hQHRR3kAPG4DBcDV5QGAZAEFyDYfBdu2zQPSD
FMDW447B6IoEQc9fEMBgnLLBxJMBQfX3QcBINafBUu5nQM6ayUBZ55PBJulEQF39pUD2nJzBRdCb
QFSkKkGgDbDB

>  <OMEGA_E>  (21) 
AA6KPkhyiz6gpIs+kNC1Plx1tz4I7Lk+

>  <OMEGA_NBR>  (21) 
     76121

$$$$
50216827
     RDKit          3D

 63 65  0  0  1  0  0  0  0  0999 V2000
    8.1211    8.1509  -18.5048 C   0  0  0  0  0  0  0  0  0  0  0  0
    7.1729    7.6062  -17.6163 C   0  0  0  0  0  0  0  0  0  0  0  0
    7.6933    8.8581  -19.6466 C   0  0  0  0  0  0  0  0  0  0  0  0
    5.3704    8.4398  -19.0324 C   0  0  0  0  0  0  0  0  0  0  0  0
    4.8283   -0.7809  -20.0842 C   0  0  0  0  0  0  0  0  0  0  0  0
    6.2545    0.7035  -21.3931 C   0  0  0  0  0  0  0  0  0  0  0  0
    5.7940    7.7559  -17.8809 C   0  0  0  0  0  0  0  0  0  0  0  0
    5.1195    0.5058  -20.5783 C   0  0  0  0  0  0  0  0  0  0  0  0
    6.8182   -1.6611  -21.1930 C   0  0  0  0  0  0  0  0  0  0  0  0
    6.3082    9.0138  -19.9045 C   0  0  0  0  0  0  0  0  0  0  0  0
    5.6811   -1.8678  -20.3900 C   0  0  0  0  0  0  0  0  0  0  0  0
    7.1030   -0.3778  -21.6979 C   0  0  0  0  0  0  0  0  0  0  0  0
    5.5507    1.7852  -17.9470 C   0  0  0  0  0  0  0  0  0  0  0  0
    5.5369    4.2501  -16.5567 C   0  0  0  0  0  0  0  0  0  0  0  0
    5.0736    2.6029  -19.1779 C   0  0  2  0  0  0  0  0  0  0  0  0
    5.0042    4.8474  -17.8791 C   0  0  1  0  0  0  0  0  0  0  0  0
    4.2029    3.8155  -18.7227 C   0  0  1  0  0  0  0  0  0  0  0  0
    4.2754    1.6896  -20.1478 C   0  0  0  0  0  0  0  0  0  0  0  0
    4.7541    7.1712  -16.9529 C   0  0  0  0  0  0  0  0  0  0  0  0
    5.0317   -3.3314  -18.5914 C   0  0  0  0  0  0  0  0  0  0  0  0
    3.6305   -4.0029  -18.6083 C   0  0  0  0  0  0  0  0  0  0  0  0
    6.1439   -4.1711  -17.8912 C   0  0  0  0  0  0  0  0  0  0  0  0
    6.2672    9.5295  -22.2538 C   0  0  0  0  0  0  0  0  0  0  0  0
    7.6710   -2.7265  -21.4688 N   0  0  0  0  0  0  0  0  0  0  0  0
    4.1012    5.9931  -17.5785 N   0  0  0  0  0  0  0  0  0  0  0  0
    7.6963    3.2962  -17.7258 O   0  0  0  0  0  0  0  0  0  0  0  0
    6.7886    2.1273  -15.6460 O   0  0  0  0  0  0  0  0  0  0  0  0
    3.7000    4.4999  -19.8731 O   0  0  0  0  0  0  0  0  0  0  0  0
    5.4172   -3.1540  -19.9735 O   0  0  0  0  0  0  0  0  0  0  0  0
    5.8191    9.8162  -20.9143 O   0  0  0  0  0  0  0  0  0  0  0  0
    8.1992   -0.1778  -22.4650 F   0  0  0  0  0  0  0  0  0  0  0  0
    2.7508   -3.1903  -19.2525 F   0  0  0  0  0  0  0  0  0  0  0  0
    3.1733   -4.2070  -17.3474 F   0  0  0  0  0  0  0  0  0  0  0  0
    3.6700   -5.1877  -19.2757 F   0  0  0  0  0  0  0  0  0  0  0  0
    5.8106   -4.4274  -16.6006 F   0  0  0  0  0  0  0  0  0  0  0  0
    7.3191   -3.4814  -17.8990 F   0  0  0  0  0  0  0  0  0  0  0  0
    6.3438   -5.3483  -18.5404 F   0  0  0  0  0  0  0  0  0  0  0  0
    6.1513    8.2018  -22.5381 F   0  0  0  0  0  0  0  0  0  0  0  0
    7.5455    9.9475  -22.4521 F   0  0  0  0  0  0  0  0  0  0  0  0
    5.4569   10.2261  -23.0871 F   0  0  0  0  0  0  0  0  0  0  0  0
    6.5616    2.8341  -16.9125 S   0  0  0  0  0  0  0  0  0  0  0  0
    9.1762    8.0264  -18.3109 H   0  0  0  0  0  0  0  0  0  0  0  0
    7.5001    7.0753  -16.7346 H   0  0  0  0  0  0  0  0  0  0  0  0
    8.4202    9.2808  -20.3244 H   0  0  0  0  0  0  0  0  0  0  0  0
    4.3155    8.5245  -19.2481 H   0  0  0  0  0  0  0  0  0  0  0  0
    3.9531   -0.9379  -19.4712 H   0  0  0  0  0  0  0  0  0  0  0  0
    6.4727    1.6864  -21.7837 H   0  0  0  0  0  0  0  0  0  0  0  0
    4.6784    1.4340  -17.3763 H   0  0  0  0  0  0  0  0  0  0  0  0
    6.1406    0.9203  -18.2843 H   0  0  0  0  0  0  0  0  0  0  0  0
    6.1309    5.0081  -16.0252 H   0  0  0  0  0  0  0  0  0  0  0  0
    4.6897    3.9404  -15.9270 H   0  0  0  0  0  0  0  0  0  0  0  0
    5.9578    2.9877  -19.7070 H   0  0  0  0  0  0  0  0  0  0  0  0
    5.8580    5.2009  -18.4758 H   0  0  0  0  0  0  0  0  0  0  0  0
    3.3703    3.4363  -18.1120 H   0  0  0  0  0  0  0  0  0  0  0  0
    3.9864    2.2703  -21.0362 H   0  0  0  0  0  0  0  0  0  0  0  0
    3.3715    1.3237  -19.6389 H   0  0  0  0  0  0  0  0  0  0  0  0
    5.2392    6.8608  -16.0156 H   0  0  0  0  0  0  0  0  0  0  0  0
    3.9923    7.9345  -16.7362 H   0  0  0  0  0  0  0  0  0  0  0  0
    4.9533   -2.3565  -18.0879 H   0  0  0  0  0  0  0  0  0  0  0  0
    8.4229   -2.4110  -22.0477 H   0  0  0  0  0  0  0  0  0  0  0  0
    8.0392   -3.0889  -20.6126 H   0  0  0  0  0  0  0  0  0  0  0  0
    3.6844    6.2911  -18.4373 H   0  0  0  0  0  0  0  0  0  0  0  0
    3.1699    5.2382  -19.5963 H   0  0  0  0  0  0  0  0  0  0  0  0
  1  2  2  0
  1  3  1  0
  2  7  1  0
  3 10  2  0
  4  7  2  0
  4 10  1  0
  5  8  2  0
  5 11  1  0
  6  8  1  0
  6 12  2  0
  7 19  1  0
  8 18  1  0
  9 11  2  0
  9 12  1  0
  9 24  1  0
 10 30  1  0
 11 29  1  0
 12 31  1  0
 13 15  1  0
 13 41  1  0
 14 16  1  0
 14 41  1  0
 15 17  1  0
 15 18  1  0
 16 17  1  0
 16 25  1  0
 17 28  1  0
 19 25  1  0
 20 21  1  0
 20 22  1  0
 20 29  1  0
 21 32  1  0
 21 33  1  0
 21 34  1  0
 22 35  1  0
 22 36  1  0
 22 37  1  0
 23 30  1  0
 23 38  1  0
 23 39  1  0
 23 40  1  0
 26 41  2  0
 27 41  2  0
  1 42  1  0
  2 43  1  0
  3 44  1  0
  4 45  1  0
  5 46  1  0
  6 47  1  0
 13 48  1  0
 13 49  1  0
 14 50  1  0
 14 51  1  0
 15 52  1  6
 16 53  1  6
 17 54  1  1
 18 55  1  0
 18 56  1  0
 19 57  1  0
 19 58  1  0
 20 59  1  0
 24 60  1  0
 24 61  1  0
 25 62  1  0
 28 63  1  0
M  END
>  <OMEGA_C>  (22) 
9O8BQetpAkHUCZTBWYjlQCBm80Az7ozBjS/2QJO6DUFFLJ3BIdqrQF0JB0FOQpjBd4GaQCzqR79p
rKDBvCTIQPIXND8bJavBT2i5QO0v+EAvDI/B4tKjQBp6AT9boKTBoi7aQPmf1L9Ni6nBt9zJQIY4
EEFRPJ/Bd8u1QB0V77+oHqPBgkvjQMhywb5kla3BXZ+xQNSC5D9tk4/B6i2xQG4AiEAidITBmVqi
QFiVJkBRbJnBTSKgQEMem0BjCI/BSH6GQGYwdEAXyJXBItCIQOlF2D+dLqHB8SGYQDh65UByn4fB
lwOhQAQ1VcBCu5TBZVpoQJwXgMDX3ZTBpZrEQOd5hcAoIY/BHY3IQPJ4GEHPB7LBOnn1QNx+LsAe
wKvB1zyDQEHHv0DJoIzBSUj2QED1UkBjzo3BPjzZQOglCEAgVnrBEcxsQJL/j0AC/J7BAFqtQDLb
ScDAyZ/BCTa6QFQPHUF9UKfBGzADQRQHNr5puLPBnQ0wQGQtTMA1BZrBlRZLQBGghsCNx4rBiuBq
QEIBpsC4NJrBOfC5QC+tjcD3zYTBsDXqQNrOXsAlMY/B0QDLQCslq8DWUpTBY9fEQHc6A0HzTbTB
DXXxQOUoH0HbnbPBk56uQD6eI0FUsrjBx/jRQGJhNUC1TIfBztESQURsAEG4fJLB4QDwQAJp4kBh
4IXB/7gGQTt+FEFMmKLB3xiKQGRkCEEW/JnBRP98QPUccL8PxZvBryDPQPzc1z8dRa7BabWVQEuN
tz+fAovBNIDEQJ2Xaz9TRpLBmzDEQC9CoECsM4DBQxKWQGMvfEAf1X7Bb6a+QNg2P0D3p53BsnS7
QJptpkCBzpPBUrJXQBHtW0Be5ZDBnyB/QBxMEUAhSqjBKsZXQHNuqT9jHJ3BXKenQJuL20D+H4DB
gYJ/QI/n/UCn44XBOYGeQEfRFsAHtJDBZ8QGQSRNGsChYbDBaaAAQeOwRcCN5qTBxM1rQLJQyUCS
f5PB9t9KQO+ep0AgxZzBFv0BQSuIBEEUAJPB1wLkQJao+0AoyYvBb0/5QPUICUHRt53BMGmuQEAl
AUGU4ZnBSSabQJHQSb9of6DBjo/IQCA6NT876arB8RS5QBB9+EBfOI/BD2GkQCjzAD8aXKTBmHLa
QPSb1L8bmanBJ3jOQA/5BkF4MaHB0Uy2QITW77/eGaPBz4fjQNZZvr79hK3BBMGxQF6x5z+FV4/B
1dCwQAVFiUDbVoTBZ3WiQDxcJ0BZPZnB2qmfQHL7m0B38I7BX2OGQCQTdUDprpXB3RqJQBCY1z/U
6qDBe9aWQFEr50At04fBIdmiQE0uVsDOsZTBPB9sQCSlgMDAgZTB/STHQLXKhcClWI/BraXEQJlS
HEEu3rDB/of1QORsLsAw/qvBqk2CQAqEwEDDlIzBkTf2QCANVUANlo3BPfvYQIrxCkDu2HnBGsds
QIQZkECh8p7BPt+tQDViSsC81J/BiwHEQEeXB0H536vB8DMDQTgXKL58trPBaXQyQDKmTMDRTpnB
AbFRQLTAh8CHUorBix9tQK4/psBc/ZnBn729QDmtjcA37oTBl6nsQL05X8D6uY/BwPLMQE6Xq8A9
h5TBiZirQENwKkG1aqvBOHW0QH2kGUER1rrBVTftQGkHJEFWsbHBGdPRQAm5N0BVF4fBJlMSQVM3
BkESUJDBa1nsQGnQ80AyooPBdOkIQZQNDkF/RKPBPHGNQPZrAEGLcpzBJ6J+QA5mc78hi5vBJJfP
QEsG2T8w763BpdiVQCWeuj9Bx4rBTdHEQG41cj+U+pHBrcPDQEO7oUDdJIDBYMKVQA3kfkBqjH7B
w7W+QLjnP0DEf53BU+S6QD6Cp0DWtpPBQ11XQLfTXEA60ZDBE/p+QJNhEECBCqjBTc5YQJX9pz80
yJzBCHSlQNKH3kC7HYDBi7p8QL3w/0DbiYbBpLGgQFjcF8ADo5DB6bYGQTniGcATp7DBv8cAQZdx
RsAAN6XBOMFoQKtHyUBGcZPBN6BKQJu8p0CZzJzBqgUDQaBYAUFHLZTBkv7mQJwB8kB9JY3B6EP5
QJ7LDEEgWp3BnW+uQLnaBkFfrJjBciebQCEqVb+Bt5/BI/TEQGwbNT+utKrBKBW7QOO090CwZo/B
UbehQOGP7D4P7qPBQYbZQNBt0b+xmanBri3NQIG+D0GJip/BrZG3QBhu8L+gc6LB2+zgQFCCrL4Q
eK3BydyuQA4C4z87747BnLKvQL6QiED6WITBPy+gQNUYJEBj9pjBIqCfQAYam0D2FY/BLGaFQPhA
dECZt5XBofmFQJq3zz/8W6DBwAeZQJ8l5kDyBojB3Ce4QEBdUcB02ZLBjnqXQK4pi8Biao/BITzo
QP7yZsBnt4/B2v7KQPOAF0EfWLLBVB30QDFOK8DHyazBKoyDQByowECb+IzBeHf0QLFVT0APV43B
+/HVQB4SCUCWGXnB25htQKOIj0C1Jp/BAJCyQNJJScDtXp7BWKm+QCH3HEFklafBbJ4BQUhEsL1A
wLPBE1dfQBRIfsCLspLB9Q2XQBJSj8C3moTB2D6hQPxZscDZC5TB+tj5QAZBJMAlR4rBzWwAQbi/
dcBYdJjB2KrrQP3HlsC9bInBDvj0QATnG0G+K7TBKQqzQIvoI0E56rjB7YjCQPyLAkHffLTBJ5vP
QN2xNEAX1IbB1dETQX/v/UDuiJLBosLwQJfk4EBYDIbB2oYIQbFPE0HOtKLB+NaMQFR7CEFmh5rB
1YWAQIrygr/IbJrBWXPKQO/a2T/1x63B26uSQPrsuT8wVYrBP0jBQN7KYz+Vb5HBlwPDQDPHoECy
KoDBVB6UQBNmf0CIsn7BX7y8QAXKOUBZVp3Bkm27QKxGpUCP2JPBePlTQNjrXkAh4pDB7hF2QKHF
C0CuaqfByS5UQD1wnj+V9ZvBZvGnQAlI3EBycoDB6B6BQPMz/0BYdIbBZ32vQDSxFMBs8o7BASYF
QYn1FMAY1bHBEzkBQRKRRMC8XqbB/PNtQFQPykA48ZPBxfVMQEHzp0D9L53BJ/oEQZWL/0AmKo/B
dl/kQJNQ8kAOA4rBzd8DQdpUCUFfS5nBa++5QKU+BUGWUZnBB7GbQLRrXb/neJ/BIQHEQNgmLj/h
varB8ka8QCK190B6/47BUPahQCk23j4SlaPBffrYQK/v1L9Nz6nBRDXgQLJKDEEveJ7BOXW3QO5q
9L+mkqLBx4rfQDv3ur6+z63BOUexQN/D5z/ivY7BosevQGk5i0CPhITBl4egQKTgI0AfwZjBP6Ge
QGginECNWI/BSs+EQDCbckDodpXBzSiGQLmjyj9t0J/BS2WUQHKw6EBXHYnBBju5QHJxVsBLYJPB
8LiZQKUJj8DCHZDBsHbpQOGSa8Cuz5DBEuu8QKy7GEEd0q7BoDX0QD/aLMBcxqzBaVeBQMGJwUBE
4o3Bqyr1QHFNV0DJy43BaNDZQLdXEUD5VnnBDERnQD7njEAs3Z7BFkyyQFK7S8BYwZ7BI7PiQAmB
FkEWU6jBKFkAQdwq6r1WeLTBDThiQJCzgcCQQpLBzd2cQI7cl8Akh4XBAm2hQP06s8A/3JXB8zHv
QElLdsA5H4bBUcwBQaRrKsBu3pPBfoX2QKrkmcB87ZXBCQCfQNI9JUEC+anBMXqsQLtIBUH4gLHB
ctLJQJK7IkHn5LfBq3rRQCYwO0BP+obBBEwUQesC+0DuVIvBySbmQPLl40ASLILB42kSQdd/DkH0
Lp3BrGGbQPsMB0EXQZ3BPMOBQMunh78S+pnB+O7IQNhi1j8Q4K3ByQqWQKExuz+36YnBrp/EQDFu
cj/yQJHBG2nCQEhypEABhYDBdsmUQH3GgUBUxn7BTRy8QOzFOkDLaZ3BWwC6QCvOpUCjUpTBbHlV
QNAnXEDEQpDBK2pzQL0BCECAz6bB6I9WQH2llz8kHJvBfPycQFvb4UDewIDBFdt4QNw5AUHYWInB
MnuwQDFsG8BZG4/BBgsFQQ/lFsCQ7bHB5HEBQWnzQ8B2R6bBZYhrQOhmyUAQFJXBBXJFQAznpEBB
5JzBFd4CQTy6AUGDGZTBmsTmQJq38kC9Do3BfNz4QDbyDEEkVp3BSxmuQBnlBkEApZjBVLabQKFX
V7+Vsp/B5nnFQJSbMj8OsqrBHde6QK0Z+EDrVY/BUGSiQJ8s6T5P3aPBTWvZQKa107+0zKnBM7nM
QA2wD0EUk5/BG8m3QHJI8r8ei6LBZwjhQOZUtL7zmK3B/DCvQBh14z+xzY7Bfb2vQBHliEAzRITB
tbGgQDwNJECX3ZjBVcafQEFDm0A3CI/BPLqFQH8pdEDxp5XBt6uGQMYNzz8LRqDBTtaYQAda5kDj
+ofBugC5QPIgUMBCx5LB9i+YQPPuicDkCI/B7PPoQPCBZcCih4/BIFbNQDawF0EfaLLB8rDzQCW2
LMCrF63BWY+DQKjHwEBW9IzBXLn0QE3ET0A6H43BBsrVQNn8CUCps3jBXQBuQPhRj0CrGZ/B8kCz
QPgCSsD5T57BD869QA5eHEGbzafBIJ8BQYgU070a67PBjyFgQH5MecACspHBuW+aQBQAj8CoQ4TB
iH+fQLULsMDk/ZPB3Ij1QFVKMsBnUYfBfE4CQVrbV8C7sZfBq1LuQLQRnMC0Z4zBgpXJQBpzAkHj
rrTBBn32QNk5HkFnubPBaVa0QNTlIkFnQ7nBpbLPQBBCNUCSqYbBNa0TQVEX/0Bga5LBoJrwQJDP
4UA574XBiE0IQU5zE0HVtKLBj3qMQHR6CEGMe5rBnTyBQDm+g78UWprBry/LQM3W2D9Hta3BX+qS
QANNuj+pPIrBBrvBQM3TZD/oQpHBgADDQIcvoUAmGYDBhxqUQJEcgEBwjn7Bbk29QDbROUAbNp3B
j5u7QC92pUAfx5PBQ7hUQJyuXkAS0ZDBJ3B3QPNoC0ARVafBpJdVQGiVnT/c4JvB7b+nQACB3EAD
ZoDBYc2AQDJJ/0DmZ4bB+YiwQD+VEsAxEY/BjtUEQaaBFsC9M7LBzyQBQQw6RsBCuqbBOD1uQC4m
ykBt8ZPBMC9NQFGxp0A2Jp3BZDMDQSPeAkF0dZPBfyjmQDJy+UBPMozBnMv7QOt5B0EkKp7B7oaw
QA+lAEE3QprBXB6cQJz4U79fqJ/B0GrEQH25ND8yB6vBrxi7QDFo90BLmI/BLy+iQNom7z5R7qPB
qTHZQHrh0b+LAarBws/QQK0dBkH+k6HBdT64QI5l8L/Qj6LBk7TfQF94sL5MFa7BbfeuQA8P5T+Z
0Y7BjdquQLgfiUDBIITBLHqgQCMDJUA23JjBCSKfQP+vm0DF347B8WaFQHYidUDzn5XBdIGGQBes
0D9IR6DBEWWYQJOX50DnIYjBDvu6QJyGTMDknJLBJV2XQI71g8CtTY7BJfjpQEufacB5g4/BUt/C
QNj4HUGu9K/BFuvzQDlaK8BGNK3BldCCQGREwUBBw4zBejT0QH8yUUAY/IzB8CrVQKAUCkB8oHjB
yzduQJgMkEBzE5/Btq20QIy5SMCBI57Bi1PGQBhFCEHgMazB+EAAQXiS070Y37TB9xxhQFc3aMCp
R5HB7kGZQKvBhcCjdoPBkSebQP79q8CMfJLBhIj5QJAoNsD5pYfBFJ0CQfK1Y8BC7JfBrM/rQEvf
ncBC9YvB507pQBAkKEFka6/BHBSlQLMDKUEfOarBwUm2QDsQHUEuUbrB8CLPQDYDNkBklYbBNpwT
QY8KBEG70JDBll/uQJCX8UB/CYTBGkEKQXALDEF2waPBuoaPQDg6AEHo0JzBahGCQCQjgr84L5rB
prLJQBak2T91Ia7BaaySQMzPuj9KTIrBZbjBQMNfaT+PS5HB+OTBQPVeoUAcw3/BSCGTQJQOgEB3
Z37BchG9QB/uOkB+M53BqxK7QJMXpkBYjZPB7aVTQOZlX0AC4ZDBMul2QM5QDEDhUafBe2NVQKPh
nj9R35vBCL+mQK8A30CpY4DB9qOAQJqQAEGj8YbBA+e1QI5sDMARNI/BLagEQWJMFcDNebLB4pkB
Qcj8QsCm06bByN9qQGPyyUDWspPBE05NQEBmqEADIp3B4/kBQfoeBEHs65LBxObjQHUe+0CXs4vB
9FD5QB6hCEGKop3B0T2uQOM2AUFYw5nBaaaaQFqYSL9FpKDBUG7IQEQYNj8a/arBnei4QL1u+EAj
HY/BchGkQKJMAj9HfaTB0HDaQCDW07+TianBCW7OQHbGBkFmF6HBKvi1QEkN77/tKKPBeI3jQDuU
vL6ngK3BpdexQIFm5z/yfI/Bj/SwQPP8iEB7YoTBCGeiQLmSJ0AcWJnBw6ifQKDqm0Ac8o7BTGCG
QMokdUC/t5XBNfCIQFiw2D/xC6HBm6mWQA4A50CtvYfB1A6jQBW1VsBTzpTBWcVuQJoAg8DHiZTB
X7TIQOl0hMCigY/BskrEQCXeG0FBzrDBJsz1QMnwLcAMxqvBVTmCQNtbwEBbiIzBNjv2QLUYVUDC
w43BZHHZQEgyCkBZN3rBcaBsQJpSkEDf8Z7By0KtQO0LSsBh+Z/BUCzEQE8wB0GQx6vBwUoDQYql
J77spbPB5dMzQKM3V8CIA5rBSblSQNmvh8DeVIrBnsZ0QK0NqsARSZnBmr6+QISCj8AeToXB/3/s
QBIsV8D8Ro/BtwLSQMSDqMCyIZXBdGLsQLhTJEFGMLHByDupQK1/KUGtp6vBzia2QAPSGEFY8LrB
cgPSQABfN0CQPIfB5lMSQQCxBUGDPZDBaDjsQJkd80DJjoPBDfMIQeF+DUH6MqPB8DiNQJrFAEH7
TZzB0Sl9QOZBcr+axZvBY3nPQAJB2T8OC67BjQGWQNX5uT8s6YrBA+HEQEkKcj+/K5LBAerDQLVg
oUCDKoDBWPmVQIr+fUBGoX7Bp5i+QMpMQEBrnJ3BntG6QH2Xp0D4uJPBC2lXQPKvXEAr25DBRet+
QCIbEUDrKqjBJU1YQF6JqT+u7ZzBfT+lQJFO3kBOCIDBy0h8QB24/0CTcobBHZefQJClGMAuvpDB
k/UGQYN2GcCFXbDBCL4AQcl4RcCH7qTB2nZoQNQ0yUACYZPBsIVKQJfrp0D6wZzB

>  <OMEGA_E>  (22) 
XLOZPnxlmj4Ysr0+BPi+PlhcwT64V8c+4HWZPg==

>  <OMEGA_NBR>  (22) 
     83531

$$$$
50216847
     RDKit          3D

 75 77  0  0  1  0  0  0  0  0999 V2000
    8.1759    8.1671  -18.1879 C   0  0  0  0  0  0  0  0  0  0  0  0
    7.1282    7.6897  -17.3822 C   0  0  0  0  0  0  0  0  0  0  0  0
    7.9060    8.6882  -19.4675 C   0  0  0  0  0  0  0  0  0  0  0  0
    5.5298    8.2478  -19.1395 C   0  0  0  0  0  0  0  0  0  0  0  0
    4.8312   -0.8054  -20.0524 C   0  0  0  0  0  0  0  0  0  0  0  0
    6.2282    0.6856  -21.3859 C   0  0  0  0  0  0  0  0  0  0  0  0
    5.8016    7.7351  -17.8540 C   0  0  0  0  0  0  0  0  0  0  0  0
    6.5748    8.7429  -19.9595 C   0  0  0  0  0  0  0  0  0  0  0  0
    5.1064    0.4818  -20.5558 C   0  0  0  0  0  0  0  0  0  0  0  0
    6.7957   -1.6797  -21.2096 C   0  0  0  0  0  0  0  0  0  0  0  0
    5.6886   -1.8901  -20.3633 C   0  0  0  0  0  0  0  0  0  0  0  0
    7.0689   -0.3937  -21.7145 C   0  0  0  0  0  0  0  0  0  0  0  0
    5.5484    1.7883  -17.9343 C   0  0  0  0  0  0  0  0  0  0  0  0
    5.5124    4.2733  -16.5633 C   0  0  0  0  0  0  0  0  0  0  0  0
    5.0567    2.5906  -19.1685 C   0  0  2  0  0  0  0  0  0  0  0  0
    4.9714    4.8511  -17.8922 C   0  0  1  0  0  0  0  0  0  0  0  0
    4.1780    3.7991  -18.7186 C   0  0  1  0  0  0  0  0  0  0  0  0
    5.7223    8.1452  -22.2591 C   0  0  0  0  0  0  0  0  0  0  0  0
    7.4720    9.9336  -22.0730 C   0  0  0  0  0  0  0  0  0  0  0  0
    5.1548   10.3949  -21.2515 C   0  0  0  0  0  0  0  0  0  0  0  0
    8.2815   -3.3998  -17.8649 C   0  0  0  0  0  0  0  0  0  0  0  0
    4.2577    1.6616  -20.1230 C   0  0  0  0  0  0  0  0  0  0  0  0
    4.6730    7.1922  -16.9995 C   0  0  0  0  0  0  0  0  0  0  0  0
    5.9704   -4.1645  -17.7316 C   0  0  0  0  0  0  0  0  0  0  0  0
    4.9586   -3.3325  -18.5579 C   0  0  2  0  0  0  0  0  0  0  0  0
    6.2445    9.2967  -21.3650 C   0  0  0  0  0  0  0  0  0  0  0  0
    3.5897   -4.0369  -18.6643 C   0  0  0  0  0  0  0  0  0  0  0  0
    7.6337   -2.7441  -21.5309 N   0  0  0  0  0  0  0  0  0  0  0  0
    4.0514    5.9953  -17.6234 N   0  0  0  0  0  0  0  0  0  0  0  0
    7.6803    3.3190  -17.7316 O   0  0  0  0  0  0  0  0  0  0  0  0
    6.7890    2.1584  -15.6410 O   0  0  0  0  0  0  0  0  0  0  0  0
    3.6571    4.4644  -19.8722 O   0  0  0  0  0  0  0  0  0  0  0  0
    5.4763   -3.1760  -19.9021 O   0  0  0  0  0  0  0  0  0  0  0  0
    7.0072   -3.3045  -17.1984 O   0  0  0  0  0  0  0  0  0  0  0  0
    8.1489   -0.1886  -22.5033 F   0  0  0  0  0  0  0  0  0  0  0  0
    2.7393   -3.2723  -19.3997 F   0  0  0  0  0  0  0  0  0  0  0  0
    3.7304   -5.2451  -19.2734 F   0  0  0  0  0  0  0  0  0  0  0  0
    3.0559   -4.2114  -17.4280 F   0  0  0  0  0  0  0  0  0  0  0  0
    6.5515    2.8564  -16.9105 S   0  0  0  0  0  0  0  0  0  0  0  0
    9.1922    8.1340  -17.8241 H   0  0  0  0  0  0  0  0  0  0  0  0
    7.3399    7.2884  -16.4022 H   0  0  0  0  0  0  0  0  0  0  0  0
    8.7184    9.0497  -20.0804 H   0  0  0  0  0  0  0  0  0  0  0  0
    4.5131    8.2633  -19.5035 H   0  0  0  0  0  0  0  0  0  0  0  0
    3.9646   -0.9656  -19.4281 H   0  0  0  0  0  0  0  0  0  0  0  0
    6.4424    1.6719  -21.7701 H   0  0  0  0  0  0  0  0  0  0  0  0
    4.6825    1.4309  -17.3576 H   0  0  0  0  0  0  0  0  0  0  0  0
    6.1471    0.9280  -18.2679 H   0  0  0  0  0  0  0  0  0  0  0  0
    6.1019    5.0419  -16.0418 H   0  0  0  0  0  0  0  0  0  0  0  0
    4.6697    3.9636  -15.9276 H   0  0  0  0  0  0  0  0  0  0  0  0
    5.9337    2.9778  -19.7081 H   0  0  0  0  0  0  0  0  0  0  0  0
    5.8219    5.2011  -18.4957 H   0  0  0  0  0  0  0  0  0  0  0  0
    3.3544    3.4172  -18.0974 H   0  0  0  0  0  0  0  0  0  0  0  0
    5.4862    8.5357  -23.2600 H   0  0  0  0  0  0  0  0  0  0  0  0
    6.4947    7.3665  -22.3422 H   0  0  0  0  0  0  0  0  0  0  0  0
    4.8149    7.7152  -21.8100 H   0  0  0  0  0  0  0  0  0  0  0  0
    7.1720   10.3066  -23.0634 H   0  0  0  0  0  0  0  0  0  0  0  0
    7.8524   10.7688  -21.4666 H   0  0  0  0  0  0  0  0  0  0  0  0
    8.2613    9.1764  -22.1902 H   0  0  0  0  0  0  0  0  0  0  0  0
    4.9225   10.7865  -22.2529 H   0  0  0  0  0  0  0  0  0  0  0  0
    4.2457    9.9646  -20.8062 H   0  0  0  0  0  0  0  0  0  0  0  0
    5.5234   11.2126  -20.6147 H   0  0  0  0  0  0  0  0  0  0  0  0
    8.9969   -2.7126  -17.3895 H   0  0  0  0  0  0  0  0  0  0  0  0
    8.6582   -4.4306  -17.7899 H   0  0  0  0  0  0  0  0  0  0  0  0
    8.1621   -3.1292  -18.9244 H   0  0  0  0  0  0  0  0  0  0  0  0
    3.9531    2.2330  -21.0122 H   0  0  0  0  0  0  0  0  0  0  0  0
    3.3630    1.2909  -19.6012 H   0  0  0  0  0  0  0  0  0  0  0  0
    5.0720    6.9155  -16.0125 H   0  0  0  0  0  0  0  0  0  0  0  0
    3.9069    7.9725  -16.8797 H   0  0  0  0  0  0  0  0  0  0  0  0
    5.4435   -4.6566  -16.9008 H   0  0  0  0  0  0  0  0  0  0  0  0
    6.4280   -4.9273  -18.3787 H   0  0  0  0  0  0  0  0  0  0  0  0
    4.8241   -2.3508  -18.0802 H   0  0  0  0  0  0  0  0  0  0  0  0
    8.3630   -2.4240  -22.1356 H   0  0  0  0  0  0  0  0  0  0  0  0
    8.0345   -3.1170  -20.6940 H   0  0  0  0  0  0  0  0  0  0  0  0
    3.6496    6.2772  -18.4947 H   0  0  0  0  0  0  0  0  0  0  0  0
    3.1219    5.2003  -19.5993 H   0  0  0  0  0  0  0  0  0  0  0  0
  1  2  2  0
  1  3  1  0
  2  7  1  0
  3  8  2  0
  4  7  2  0
  4  8  1  0
  5  9  2  0
  5 11  1  0
  6  9  1  0
  6 12  2  0
  7 23  1  0
  8 26  1  0
  9 22  1  0
 10 11  2  0
 10 12  1  0
 10 28  1  0
 11 33  1  0
 12 35  1  0
 13 15  1  0
 13 39  1  0
 14 16  1  0
 14 39  1  0
 15 17  1  0
 15 22  1  0
 16 17  1  0
 16 29  1  0
 17 32  1  0
 18 26  1  0
 19 26  1  0
 20 26  1  0
 21 34  1  0
 23 29  1  0
 24 25  1  0
 24 34  1  0
 25 27  1  0
 25 33  1  0
 27 36  1  0
 27 37  1  0
 27 38  1  0
 30 39  2  0
 31 39  2  0
  1 40  1  0
  2 41  1  0
  3 42  1  0
  4 43  1  0
  5 44  1  0
  6 45  1  0
 13 46  1  0
 13 47  1  0
 14 48  1  0
 14 49  1  0
 15 50  1  6
 16 51  1  6
 17 52  1  1
 18 53  1  0
 18 54  1  0
 18 55  1  0
 19 56  1  0
 19 57  1  0
 19 58  1  0
 20 59  1  0
 20 60  1  0
 20 61  1  0
 21 62  1  0
 21 63  1  0
 21 64  1  0
 22 65  1  0
 22 66  1  0
 23 67  1  0
 23 68  1  0
 24 69  1  0
 24 70  1  0
 25 71  1  1
 28 72  1  0
 28 73  1  0
 29 74  1  0
 32 75  1  0
M  END
>  <OMEGA_C>  (23) 
ZdACQUOsAkHjgJHBSRrkQBQS9kDRDovB6f38QPACC0FZvZvB3fOwQNT2A0GeHZnB/5iaQE4vTr9R
a6DBvE3HQLSBLz9RFqvB1qa5QEyG90AF1Y7BFGXSQLjiC0EXrZ/BkGejQBqz9j5EcqTBqXbZQMf/
1r8rranBywi2QC3w8b8H6KLBVTTiQMyTyb4yt63BL4yxQAPo5D9peY/BVGWwQDq/iECLgYTB4dCh
QLPMJUAjWZnBHRafQAA8m0AyI4/B0rGFQNYjc0Cvv5XBvxy3QONSAkGZErLB3BrvQATwHkGFlbDB
VvSkQJdRJkErA6rBHoEEQVKWWcBV647BxD6IQKau1D/z+6DB4IiVQNUm5kDv/ofBjw2/QMBDhcA/
2o3B9ayeQKRHVcCpdpTBH9PHQDa/FEGB66rBCL5lQJIugcCGUJXBi0f0QLKeL8A+P6zB4aSBQGvZ
v0C4/IzBXMX1QAprVEBE2o3BuT/ZQLAjCkCtQXrBkg5qQP/bjkBS+p7BeT2vQLhDS8BzN5/BSjvg
QFh8U8BNlonBGGICQZ0pQb6xBrTBa1EvQHptUcCcMpvBzb5uQKHXp8DWL5rBv5NDQLDDhsB7bIvB
fKXRQFHPNkDKSIfBORMTQbMkAkGql47BGuDqQCw66UCnN4PBpH4LQazLEEGgpKDBSGuQQJs2BEEz
B5zBGLx9QHc0d7+0bJvBPSjOQE8C1j8hKa7BTNeVQBsptz9I3IrBQ7XEQAiQbT+WJJLBb0LDQPBW
oUCsVYDBQG6VQDusfUCd137BiuC9QJuUPkAcqp3B8Uy6QBBvpkA+95PBdK5WQI+zWkBix5DB9Y6v
QCySCEF3FLrBf9TPQFG660DbvLLBQxOaQLPi9kDreq7B8oDlQMbnJEHTgbjBiEb7QBBNLEGLu6vB
HS4EQW7SEkF8hbHB04SdQFSVLEHwBbLB2dyHQAVvH0EYc6bBzb+wQMdmM0Hv6qTBTPMPQaybLcCp
HYvB+4cKQTzHjcC0UY7BJZgCQWZFSMAxZZfB2v98QEnqDkAHGajB+TtXQFg9pT9Sz5zBd02iQJtL
3UCFGYDBCwt6QOAe/0CLCYfBdzGuQEIDlcDHNIfBdbLNQHSsncCCB5PBpV6aQOxzFsBMpJDB1c4F
QWIiG8DEFbHBNY0AQa99R8BpjaXB15NpQJPeyEAi9ZPB/c1HQJxopkBUy5zBfbICQe7gAkGalJHB
LPLjQOor9kBfJ4vBHaD8QNt2C0FbwpvBAp6wQDBgBEEyHJnB/9SaQKXgT79MXqDBM7nHQAkoLD8n
DavBeHC5QPXY90BU447BQvjRQA5uDEENp5/Bl9+jQOHs8j7TYaTB/3XZQP4h2b8HqqnBRei1QOx9
87/466LBnnHiQABm0r4JsK3BRxGyQFyh5T84b4/BQU2wQGoEiUDggYTB31KiQHbJJUDEVpnB+zaf
QABdm0CMLI/B0xCGQOEcc0C8y5XBSJfuQBN1H0GskbDBXjmlQPueJ0Ejq6nBdxW1QCaXA0FG/LHB
poUEQa1FV8DV+47BwcqIQOkX1D//8qDBM1aVQIVM5kCwE4jBOQDAQIbihsAZPI7BYCifQB7GVsBd
f5TBACnHQMemFUEozqrBqsNlQM46gcDQCZXBiyb0QFvqMMAUOazBaaaBQDruv0C/Fo3BAfz1QNe8
VUBoxY3B1XjZQD9kC0ByGnrB9yBrQFu1jkDeD5/B7V6uQLUlTMD+Xp/BIIfgQKbDV8Aae4nBwIEC
QVLSV760AbTBhMMtQPerTsA5Q5rBBXtrQIP3psBCa5rBqmpHQEJziMAdBIvBpdzRQKq9N0DHOofB
GfoSQT1HAkH6so7BV9HqQHjs6EBkXIPBIUcLQQZeEUFDpqDBjwqQQHe3BEGL/ZvBwmB+QPGHd787
VZvBJ63OQA4n1D/UI67ByFyWQO1ktz/X1orBTG7FQMK7bz/MEZLBVenCQGK4oUA3ToDBPD+VQOrv
fUBK8H7B3V6+QEaKPkDdqZ3B5oS6QMaRpkAr+JPBBEBXQCqrWkDy2pDBd9DkQKO1JUFubLjB1bv7
QIGPLEHcsqvBg5QDQcILE0E9qrHBUJqdQPAlLkGinbHBDgeIQOEDIUErB6bBkvixQNZxNEFyjaTB
xVqtQOoYCkEq7rnBax/NQA+u7UBUz7LBMu+XQO//+UCHUK7BLbcPQZ2hLMCbxorB9BoLQf5FjMCh
KI/BODYCQRxHQMBxOJfBpyF+QHhqDkCxFKjByU1YQL/8pD/iw5zB/xGiQDF33UD6LIDB+2t5QFkp
/0BSIIfBa02vQJGWmMBw4IfB2EfPQIqpncAbwJPBqt6bQKw5GMAji5DBAMwFQYibHMBUCrHBCWsA
QbD1SMCEhaXB0fFpQArjyECsFZTB47RIQEdBpkAx65zB

>  <OMEGA_E>  (23) 
wAlcPUBxRT0=

>  <OMEGA_NBR>  (23) 
     86230

$$$$
50216843
     RDKit          3D

 78 80  0  0  1  0  0  0  0  0999 V2000
    8.2699    8.0796  -18.2438 C   0  0  0  0  0  0  0  0  0  0  0  0
    7.2106    7.6365  -17.4330 C   0  0  0  0  0  0  0  0  0  0  0  0
    8.0105    8.6192  -19.5181 C   0  0  0  0  0  0  0  0  0  0  0  0
    5.6215    8.2735  -19.1714 C   0  0  0  0  0  0  0  0  0  0  0  0
    4.9371   -0.8831  -19.7684 C   0  0  0  0  0  0  0  0  0  0  0  0
    5.8537    0.6456  -21.4425 C   0  0  0  0  0  0  0  0  0  0  0  0
    5.8828    7.7353  -17.8948 C   0  0  0  0  0  0  0  0  0  0  0  0
    6.6784    8.7307  -19.9977 C   0  0  0  0  0  0  0  0  0  0  0  0
    4.9264    0.3826  -20.4135 C   0  0  0  0  0  0  0  0  0  0  0  0
    6.7492   -1.6107  -21.2354 C   0  0  0  0  0  0  0  0  0  0  0  0
    5.8774   -1.8712  -20.1638 C   0  0  0  0  0  0  0  0  0  0  0  0
    6.7585   -0.3476  -21.8541 C   0  0  0  0  0  0  0  0  0  0  0  0
    5.4171    1.7815  -17.8173 C   0  0  0  0  0  0  0  0  0  0  0  0
    5.4914    4.3181  -16.5691 C   0  0  0  0  0  0  0  0  0  0  0  0
    4.9002    2.5210  -19.0755 C   0  0  2  0  0  0  0  0  0  0  0  0
    4.9386    4.8610  -17.9075 C   0  0  1  0  0  0  0  0  0  0  0  0
    4.0864    3.7980  -18.6736 C   0  0  1  0  0  0  0  0  0  0  0  0
    2.6199   -3.6921  -19.2353 C   0  0  0  0  0  0  0  0  0  0  0  0
    7.6076    9.8691  -22.1260 C   0  0  0  0  0  0  0  0  0  0  0  0
    5.3373   10.4665  -21.2627 C   0  0  0  0  0  0  0  0  0  0  0  0
    5.7518    8.1889  -22.2828 C   0  0  0  0  0  0  0  0  0  0  0  0
    4.0455    1.5224  -19.9131 C   0  0  0  0  0  0  0  0  0  0  0  0
    4.7367    7.2314  -17.0389 C   0  0  0  0  0  0  0  0  0  0  0  0
    3.4220   -3.9487  -17.9558 C   0  0  0  0  0  0  0  0  0  0  0  0
    5.7623   -4.5559  -17.6525 C   0  0  0  0  0  0  0  0  0  0  0  0
    6.3545   -3.2289  -18.2004 C   0  0  1  0  0  0  0  0  0  0  0  0
    6.3572    9.3057  -21.3966 C   0  0  0  0  0  0  0  0  0  0  0  0
    7.9110   -3.2561  -18.0357 C   0  0  0  0  0  0  0  0  0  0  0  0
    7.6156   -2.6061  -21.6729 N   0  0  0  0  0  0  0  0  0  0  0  0
    4.0699    6.0518  -17.6584 N   0  0  0  0  0  0  0  0  0  0  0  0
    7.5918    3.2530  -17.7601 O   0  0  0  0  0  0  0  0  0  0  0  0
    6.7339    2.2114  -15.5926 O   0  0  0  0  0  0  0  0  0  0  0  0
    3.5828    4.4303  -19.8527 O   0  0  0  0  0  0  0  0  0  0  0  0
    5.9275   -3.1307  -19.5956 O   0  0  0  0  0  0  0  0  0  0  0  0
    4.4924   -4.8682  -18.2613 O   0  0  0  0  0  0  0  0  0  0  0  0
    7.6514   -0.0783  -22.8335 F   0  0  0  0  0  0  0  0  0  0  0  0
    8.2599   -3.8103  -16.8410 F   0  0  0  0  0  0  0  0  0  0  0  0
    8.4789   -3.9945  -19.0263 F   0  0  0  0  0  0  0  0  0  0  0  0
    8.4216   -1.9984  -18.0667 F   0  0  0  0  0  0  0  0  0  0  0  0
    6.4779    2.8618  -16.8833 S   0  0  0  0  0  0  0  0  0  0  0  0
    9.2869    8.0060  -17.8879 H   0  0  0  0  0  0  0  0  0  0  0  0
    7.4141    7.2207  -16.4573 H   0  0  0  0  0  0  0  0  0  0  0  0
    8.8315    8.9511  -20.1362 H   0  0  0  0  0  0  0  0  0  0  0  0
    4.6028    8.3381  -19.5243 H   0  0  0  0  0  0  0  0  0  0  0  0
    4.2312   -1.0936  -18.9785 H   0  0  0  0  0  0  0  0  0  0  0  0
    5.8686    1.6157  -21.9170 H   0  0  0  0  0  0  0  0  0  0  0  0
    4.5629    1.4786  -17.1940 H   0  0  0  0  0  0  0  0  0  0  0  0
    5.9821    0.8888  -18.1237 H   0  0  0  0  0  0  0  0  0  0  0  0
    6.1147    5.0876  -16.0901 H   0  0  0  0  0  0  0  0  0  0  0  0
    4.6543    4.0582  -15.9044 H   0  0  0  0  0  0  0  0  0  0  0  0
    5.7643    2.8346  -19.6798 H   0  0  0  0  0  0  0  0  0  0  0  0
    5.7853    5.1545  -18.5453 H   0  0  0  0  0  0  0  0  0  0  0  0
    3.2540    3.4878  -18.0248 H   0  0  0  0  0  0  0  0  0  0  0  0
    1.7990   -2.9923  -19.0199 H   0  0  0  0  0  0  0  0  0  0  0  0
    3.2801   -3.2582  -20.0008 H   0  0  0  0  0  0  0  0  0  0  0  0
    2.2049   -4.6416  -19.6044 H   0  0  0  0  0  0  0  0  0  0  0  0
    7.3127   10.2610  -23.1106 H   0  0  0  0  0  0  0  0  0  0  0  0
    8.0481   10.6789  -21.5260 H   0  0  0  0  0  0  0  0  0  0  0  0
    8.3477    9.0661  -22.2578 H   0  0  0  0  0  0  0  0  0  0  0  0
    5.1110   10.8733  -22.2593 H   0  0  0  0  0  0  0  0  0  0  0  0
    4.4121   10.0903  -20.8017 H   0  0  0  0  0  0  0  0  0  0  0  0
    5.7652   11.2595  -20.6317 H   0  0  0  0  0  0  0  0  0  0  0  0
    5.5220    8.5948  -23.2791 H   0  0  0  0  0  0  0  0  0  0  0  0
    6.4750    7.3658  -22.3802 H   0  0  0  0  0  0  0  0  0  0  0  0
    4.8283    7.8126  -21.8184 H   0  0  0  0  0  0  0  0  0  0  0  0
    3.6064    2.0493  -20.7731 H   0  0  0  0  0  0  0  0  0  0  0  0
    3.2411    1.1132  -19.2841 H   0  0  0  0  0  0  0  0  0  0  0  0
    5.1276    6.9435  -16.0518 H   0  0  0  0  0  0  0  0  0  0  0  0
    3.9981    8.0378  -16.9199 H   0  0  0  0  0  0  0  0  0  0  0  0
    3.8411   -3.0019  -17.5846 H   0  0  0  0  0  0  0  0  0  0  0  0
    2.7659   -4.3852  -17.1882 H   0  0  0  0  0  0  0  0  0  0  0  0
    6.4679   -5.3735  -17.8615 H   0  0  0  0  0  0  0  0  0  0  0  0
    5.6223   -4.4612  -16.5656 H   0  0  0  0  0  0  0  0  0  0  0  0
    5.9497   -2.3881  -17.6180 H   0  0  0  0  0  0  0  0  0  0  0  0
    8.1624   -2.2612  -22.4358 H   0  0  0  0  0  0  0  0  0  0  0  0
    8.2211   -2.8739  -20.9234 H   0  0  0  0  0  0  0  0  0  0  0  0
    3.6900    6.3419  -18.5368 H   0  0  0  0  0  0  0  0  0  0  0  0
    3.0890    5.2049  -19.6109 H   0  0  0  0  0  0  0  0  0  0  0  0
  1  2  2  0
  1  3  1  0
  2  7  1  0
  3  8  2  0
  4  7  2  0
  4  8  1  0
  5  9  2  0
  5 11  1  0
  6  9  1  0
  6 12  2  0
  7 23  1  0
  8 27  1  0
  9 22  1  0
 10 11  2  0
 10 12  1  0
 10 29  1  0
 11 34  1  0
 12 36  1  0
 13 15  1  0
 13 40  1  0
 14 16  1  0
 14 40  1  0
 15 17  1  0
 15 22  1  0
 16 17  1  0
 16 30  1  0
 17 33  1  0
 18 24  1  0
 19 27  1  0
 20 27  1  0
 21 27  1  0
 23 30  1  0
 24 35  1  0
 25 26  1  0
 25 35  1  0
 26 28  1  0
 26 34  1  0
 28 37  1  0
 28 38  1  0
 28 39  1  0
 31 40  2  0
 32 40  2  0
  1 41  1  0
  2 42  1  0
  3 43  1  0
  4 44  1  0
  5 45  1  0
  6 46  1  0
 13 47  1  0
 13 48  1  0
 14 49  1  0
 14 50  1  0
 15 51  1  6
 16 52  1  6
 17 53  1  1
 18 54  1  0
 18 55  1  0
 18 56  1  0
 19 57  1  0
 19 58  1  0
 19 59  1  0
 20 60  1  0
 20 61  1  0
 20 62  1  0
 21 63  1  0
 21 64  1  0
 21 65  1  0
 22 66  1  0
 22 67  1  0
 23 68  1  0
 23 69  1  0
 24 70  1  0
 24 71  1  0
 25 72  1  0
 25 73  1  0
 26 74  1  1
 29 75  1  0
 29 76  1  0
 30 77  1  0
 33 78  1  0
M  END
>  <OMEGA_C>  (24) 
mVEEQTtGAUFm85HBhL3mQPVd9EDOdovB3SoAQQvoCUH+JJzB8OKzQB9gBEEFX5nBcPydQJIVYr+V
JZ7BRFG7QGhGJT88iqvB9z+8QNqH90B3KI/BWLXVQNWwC0FC+5/BT6WdQFDnwz7WTqPBM/nXQOEs
zr8z4qnBChS8QKmC77+MT6HBqEXYQKP9sb4Z1a7B4FitQNIH5D/iiY7BhbmvQOAtikB0jYTBws6c
QLtYIUCfmpjBywieQEyNm0CAQo/BqcOCQGMSc0CBY5XBJK0nQPBKbMDl4ZnBIXHzQKHnHUEFArHB
3MqqQPZ2J0H0GarBpQ64QMEFA0E9Q7LBhnSBQM3cwj8CTp/BbpOXQN1n50CjT4jBPAFbQBi4fMBm
pY/BKmW4QLjJkcBrOI3BQ1jLQFamTsBTmpHB/G3LQFjkFEEqLKvBHyf9QMhjUMAvSZDBX7PzQJrK
JsAJYq3B2DyCQPynwUB1RI3BtO/yQGsxUECaFI7B7nvXQGuHDUBTe3nBSk1lQKLEjUBW0p7BG669
QOdcSMDKw5zBwMGPQK3Im8A2F5LB8df0QPR0oL0Xq7bBvCgEQYbcc8BxuobBbqkHQf6lf8DINZjB
5L4GQQvN/7+OiJDB6krPQPUnN0AVEYfBMZcUQXgYAEFoGo/BeEDtQLMP50B0qIPB+k0NQak3D0Hg
FqHB9EmTQAxpBUGzMZzBEWaHQOb7i7/405fBq8u7QF/Ozj8AVq/B5QKSQEpEvT9JjYnBo22/QNaJ
Yz9l/ZDBnqvDQDbNokB3uIDBS/CUQO/cgUBreH7B1HS4QK5qNUAicJ3BgiG5QI/xpEDQXJTBCUJQ
QKc3X0DBMpDBR0XmPzCCP8DVKJjBbuxRQI6GUMCsAaDBjx0NQKCHlMDZ1ZzBAALqQDwtJEF44rjB
78QAQebcKkEoNazBW5AFQa8OEUH6D7LBHo2jQAj5LUEgE7LBKDCNQLZxIUHKaabBO3y4QNImNEGt
DaXBb7SwQByECUGKO7rBNjPPQMG060CzCrPB1YGaQMUA+kAvjK7Bss9mQNwnA0BAL6bBQm5PQMl9
jj/oRZrBAxWkQFwx3kANaoDBi+F/QPqaAEHdW4fBHNR1QHkeQMBBrYzBPQUxQJVTjMBugYnBIPnO
QM3zq8BP5I7B1+mzQAPCjsBihoTBMWS+QPDVGMCw8YzB/pgCQdi2EMCXfLPBjIkDQX7tN8ANY6fB
cilsQLHwykBTS5TBr7FFQLeOpkAU45zBEAsEQVUJAUEO/ZHBNGHmQDvh80DdcIvBgHn/QJWvCUEZ
KpzBcyOzQM8GBEFvRpnBpR+fQKltS7/Yp57BAT+/QCpQKj9DGKzBucm7QJMJ90BmD4/B2rvUQGRm
C0Ea75/BbmSgQLJq5j5uC6TBvKzYQM1k0L8dB6rBY7e7QJ6G6r+ij6HBt0/bQNDNvb5DEq/BXouu
QEUr5T8jHY/Bf3CvQCFGiUBojITBT7OeQB1TJED6FpnBhi6eQIx6m0BIN4/Bn6GDQIncc0BoopXB
JW8mQBszZMAxwJfBeeq2QK3KAkHQN7LBGLjxQEYJHkFi6rDBWf2oQB8KJ0G55KnBBXWEQGO9zT8M
V6DBhU2XQKLj5kCqKIjBfDNjQBEilcDJz5PBPaa3QCeyicBitYvBCLPLQC1GRcD8dJHBMgjKQCqs
FEEUFavBxYT9QDHpTcB30ZDBdLbzQHJRKsDqJ63B/gmCQMkmwUBnG43BRqHzQHuZUUAdAY7B0EjX
QIqaCkAWD3rB+YpmQBT6jkAz7p7Bf7m7QNzmQ8CVcpzBSPeJQGM+hcBx0orBm3H5QKHgFb6XobbB
Jz8FQXTYS8CCbYbBkjcFQbipjMBvNJXBcLoIQTyzDMD29JXBxpzPQEh1NkB+PIfBgFsUQROz/0D2
M4/Bqx3tQKuS5kCZpYPBKMsMQdoPD0EpJaHBc3qSQAzwBEE4EJzBn0KIQHYodL+ETZjBaljBQJhN
0D84/K/BAt+SQCliuz/sV4rBEgPBQEoiaT+erpHBB+zCQOq2oUA4gIDBE3KUQMswgEAlwX7BZba6
QGXvOkCDm53BToC5QGuPpUDhKJTBtj5SQNuaXUCXjpDBNkEBQKs2fMAVmJ7BLCb1P+4OUsBhQJHB
IsxLQIfxK8B/PJrB+0avQLNbCUH3J7rB6FTOQAGG60D9EbPBN5GZQIsc+UDrfa7BBAXoQDJZJEGa
w7jBSoT/QGsGK0H5FKzB/94EQfJdEUHYB7LBmWehQD+fLUHa1LHB852LQAfLIEH9LqbBcYK2QBW7
M0Gy0aTBgnVxQEI/CkBRXKfBwi1SQBVAmz8oy5vBuvmjQC2w3UAbR4DB30F/QPRRAEEMLYfBpuA9
QIFEscBEUpHB2YyHQM01nsBiTprBRva+QGjUpsDlS5DBFnjFQJlfjMCRpIPB+wbCQGOOCsBPP43B
BAwDQeCiFsCIObPBOSEDQa1YO8Bx/qbBsflqQC56ykA/FpTBWatFQFQgp0Cx05zBdUYCQRmYAkHX
fpHBGvvjQB6C9EAC94rB7Ib6QLGeC0EQgZvBlAqvQIK9A0EfgpjBEkWaQBwJ/b62fKHB5fPGQIcq
LT/FZa7BtB25QL7g9UAebo7BB3zPQMdzDEH1IJ/BlrajQHHqKD8cW6fBoM7XQHon0L9VWqnBOhK1
QAK+zb8m/KHB5UzgQGxm9b6HnK/Brqy1QBZC5T9WTZLBJECxQOgIhEBUWIXBAJylQKxvLUASkJvB
dXSgQMvImUCqno/BVgWIQMx2dEBk9pbBqWAZQbdmSMCqE5LB6LSzQAruA0E7m7HBAXjpQLeGIUEE
sq/BLjqfQD7KJkEMtKjB/rKMQF6N9j8+XqTBbRqWQCa84kAdiYfBYjQCQSz9WsBm547BYJLFQIaH
lsBnXJTBPMepQCw5d8DJGJzBr2zDQGAKFkHjH6rBTV9zQGkxhcAmpJrBZ3jzQFCYLcD5FarB1WeC
QAYXvUCt1IzBXJf4QL5pVECNpo7BfdjZQKy0+D+yjn7BqXdrQDMykkDMkZ/Bm+uwQKURH8CRmZnB
gpjyQFupjcBC9pXB304BQQCi5r7COrbBqYFjQHNMrsCfgZ3BV2tbQIItfsDWSJDBxi5EQMiJVcAl
96DBZpvTQAfZMEDs5YjBqrMSQQYUAkGE047BNM7rQHam5kCiS4PBjeUJQfn3EUGveKDBbziOQBHY
A0HNNpvB6PZ7QDTzBb9oh5zBIH/OQDUvyT+d2LLBsgmaQG32qj+2P47BdTjKQH3Sfz/bm5XBiEjD
QDdvm0Boj4DBrxSWQOvab0C8o4DBn4vBQL4oTEAIS5/ByNK7QATlpkAuFJTB6y5dQImwVUB5P5LB
wRMgQfGJF8Aes4zBFOAiQYq6gcDwcpHBl9kZQQnaMMDTXZrBhRmrQA60CkE4cLnBP1rNQFEb8EAX
pLLB83+XQElR+EDzDa7BcOLeQIj4J0HlcbfBadX0QMeyLkHjmKrBrdEBQdoKFkGr/LDBqb2WQISS
LUGnirDBEveCQDMEH0EuLqXBIk6qQKaoM0GJYKPB9ZuJQKLrI0ACg6vBnlhZQDMT1j8cVaHBB+aj
QDC02EDvrH/B+pV6QPEP+0DyIIbB1b8BQTR+csCpnIbBsXLxQCjjH8CMh4/Ba9u8QA6ijsAMEYzB
7pa/QPa2uMD21JXBFCazQGaugsCjZKTBcsYEQXsHIsBjsa/BQu8AQc6/NsCgCKPBgQZpQDYgx0Au
lpPB/ExHQNbmp0BYw5zB0g0EQbLxAUHYzZHBcRrmQOtR9UBnZ4vBdwIAQRScCkHpAJzBZJSzQJC2
BEELaZnBjdWeQEgRbL/hAZ7Bw3a8QFD0Hz8vNKvBrra7QKUt+EAYMI/Bw3/VQFQ4DEGl75/BP7ie
QEygtT5GA6PB16bXQED207/TFqrBdEW8QGYC9r+Xa6HBiszYQMRmv74Wt67BOOmtQDl25T+JQI7B
LEavQMfyikCiboTBe3idQLnpIEBnZZjBMvWdQKXam0CgOI/BGR6DQLTUckD7VpXBCv4rQGLTbsCB
gZnBc4W4QH+cA0GKTLLBNXzzQLysHkHb37DBx3iqQCjsJ0EYF6rBKWiCQOZcvz+E/Z7BLuKWQBPi
50ApaYjBYuldQN7IeMADCI/BPra5QCrljcCW34vB0H/NQEypS8CJZJHB5GzLQA57FUGeIavBgWb/
QLmfTMB1DpDBaOzyQI7MKcDRyq3BRe2BQMfpwUDVX43BShXzQI9OUkBBu43BgUPXQFhaEEDlw3jB
PohmQBU9jUAw257Bs6S/QE7JSsCelJzBnquRQH8DmsCPvZDB1QH2QLA4r73rWrbBd0sIQWuujMBb
65LB5RQJQWUND8C4F5bBIL4EQVgePcBOp4XBl0vPQGAROUCPxobBuUgUQZHjAEG44o7BvHTsQPHz
50CjmIPBzS8NQSkUEEHX4KDBzhGTQHicBUGeTpzB6paIQM8ekb+KnZfBLH29QJOOzT+Kzq7BBYKS
QE1Rvj/ZTInByVrAQEcrZz8smpDB6NrCQIHVo0DDloDBVk+UQN+UgkBRWn7BRCK5QOW3NEDzPZ3B
7Te5QAAwpUCaRpTBYqVQQFEhX0ALMZDBKo7tP/C8QcB5T5jBi+ZWQFAwVsAVxJ/BG3YSQN60lsAl
95vBAlOxQCMnCkGZRLrBqt7PQBkP7UBAELPBM/GaQITo+kClp67B6zLqQIX6JEF7wbjB6KEAQRGk
K0G8BazB6a8FQXHqEUEv6bHBxmOjQEF3LkG1ELLBbNeMQO/CIUFMeabBA8+3QPGeNEF5/aTB7Opn
QBeqAEDu36XBafBRQHyXij8j4ZnBrCujQHXc3kCQeoDBFxt+QHvGAEGFiIfBY6V3QCFROsCzjozB
8zQzQEfFiMDDwYjBSE/QQIa/qMB6jIzBmyS0QMCehsBvYIPByiDBQHxYEsA9U43BwQoCQbZwE8Bo
8LPBYlEDQeu5O8D55qfBZitsQIT5ykDmc5TBbJxGQIYKpkDGA53B

>  <OMEGA_E>  (24) 
yEmjPrArmj5ooK8+CE6oPg==

>  <OMEGA_NBR>  (24) 
     91394

$$$$
50216815
     RDKit          3D

 71 73  0  0  1  0  0  0  0  0999 V2000
    8.1661    8.1974  -18.2244 C   0  0  0  0  0  0  0  0  0  0  0  0
    7.1254    7.7152  -17.4126 C   0  0  0  0  0  0  0  0  0  0  0  0
    7.8858    8.7201  -19.5011 C   0  0  0  0  0  0  0  0  0  0  0  0
    5.5133    8.2720  -19.1576 C   0  0  0  0  0  0  0  0  0  0  0  0
    4.8397   -0.8044  -20.0530 C   0  0  0  0  0  0  0  0  0  0  0  0
    6.2390    0.7011  -21.3647 C   0  0  0  0  0  0  0  0  0  0  0  0
    5.7953    7.7592  -17.8747 C   0  0  0  0  0  0  0  0  0  0  0  0
    6.5511    8.7710  -19.9841 C   0  0  0  0  0  0  0  0  0  0  0  0
    5.1187    0.4889  -20.5336 C   0  0  0  0  0  0  0  0  0  0  0  0
    6.8139   -1.6646  -21.2050 C   0  0  0  0  0  0  0  0  0  0  0  0
    5.6935   -1.8836  -20.3810 C   0  0  0  0  0  0  0  0  0  0  0  0
    7.0840   -0.3738  -21.7004 C   0  0  0  0  0  0  0  0  0  0  0  0
    5.5742    1.8108  -17.9142 C   0  0  0  0  0  0  0  0  0  0  0  0
    5.5299    4.3062  -16.5618 C   0  0  0  0  0  0  0  0  0  0  0  0
    5.0684    2.6004  -19.1508 C   0  0  2  0  0  0  0  0  0  0  0  0
    4.9799    4.8706  -17.8923 C   0  0  1  0  0  0  0  0  0  0  0  0
    4.1872    3.8083  -18.7054 C   0  0  1  0  0  0  0  0  0  0  0  0
    5.6851    8.1739  -22.2794 C   0  0  0  0  0  0  0  0  0  0  0  0
    7.4294    9.9673  -22.1021 C   0  0  0  0  0  0  0  0  0  0  0  0
    5.1151   10.4182  -21.2640 C   0  0  0  0  0  0  0  0  0  0  0  0
    4.2650    1.6601  -20.0901 C   0  0  0  0  0  0  0  0  0  0  0  0
    4.6731    7.2153  -17.0129 C   0  0  0  0  0  0  0  0  0  0  0  0
    5.1243   -3.3341  -18.5522 C   0  0  0  0  0  0  0  0  0  0  0  0
    6.2090    9.3252  -21.3865 C   0  0  0  0  0  0  0  0  0  0  0  0
    3.7652   -4.0822  -18.4924 C   0  0  0  0  0  0  0  0  0  0  0  0
    6.3020   -4.0761  -17.8524 C   0  0  0  0  0  0  0  0  0  0  0  0
    7.6631   -2.7238  -21.5130 N   0  0  0  0  0  0  0  0  0  0  0  0
    4.0556    6.0120  -17.6282 N   0  0  0  0  0  0  0  0  0  0  0  0
    7.6970    3.3601  -17.7359 O   0  0  0  0  0  0  0  0  0  0  0  0
    6.8273    2.2101  -15.6304 O   0  0  0  0  0  0  0  0  0  0  0  0
    3.6583    4.4624  -19.8617 O   0  0  0  0  0  0  0  0  0  0  0  0
    5.4441   -3.1697  -19.9541 O   0  0  0  0  0  0  0  0  0  0  0  0
    8.1624   -0.1600  -22.4890 F   0  0  0  0  0  0  0  0  0  0  0  0
    2.7946   -3.2746  -18.9967 F   0  0  0  0  0  0  0  0  0  0  0  0
    3.4415   -4.3994  -17.2136 F   0  0  0  0  0  0  0  0  0  0  0  0
    3.7993   -5.2166  -19.2446 F   0  0  0  0  0  0  0  0  0  0  0  0
    6.3879   -5.3663  -18.2684 F   0  0  0  0  0  0  0  0  0  0  0  0
    6.1259   -4.0512  -16.5065 F   0  0  0  0  0  0  0  0  0  0  0  0
    7.4833   -3.4573  -18.1340 F   0  0  0  0  0  0  0  0  0  0  0  0
    6.5767    2.8949  -16.9045 S   0  0  0  0  0  0  0  0  0  0  0  0
    9.1850    8.1669  -17.8675 H   0  0  0  0  0  0  0  0  0  0  0  0
    7.3450    7.3112  -16.4354 H   0  0  0  0  0  0  0  0  0  0  0  0
    8.6929    9.0856  -20.1188 H   0  0  0  0  0  0  0  0  0  0  0  0
    4.4941    8.2848  -19.5147 H   0  0  0  0  0  0  0  0  0  0  0  0
    3.9719   -0.9731  -19.4325 H   0  0  0  0  0  0  0  0  0  0  0  0
    6.4487    1.6902  -21.7442 H   0  0  0  0  0  0  0  0  0  0  0  0
    4.7149    1.4513  -17.3290 H   0  0  0  0  0  0  0  0  0  0  0  0
    6.1771    0.9525  -18.2454 H   0  0  0  0  0  0  0  0  0  0  0  0
    6.1161    5.0823  -16.0481 H   0  0  0  0  0  0  0  0  0  0  0  0
    4.6920    3.9950  -15.9206 H   0  0  0  0  0  0  0  0  0  0  0  0
    5.9389    2.9868  -19.7013 H   0  0  0  0  0  0  0  0  0  0  0  0
    5.8256    5.2196  -18.5031 H   0  0  0  0  0  0  0  0  0  0  0  0
    3.3684    3.4280  -18.0771 H   0  0  0  0  0  0  0  0  0  0  0  0
    5.4409    8.5655  -23.2779 H   0  0  0  0  0  0  0  0  0  0  0  0
    6.4598    7.3982  -22.3694 H   0  0  0  0  0  0  0  0  0  0  0  0
    4.7823    7.7395  -21.8252 H   0  0  0  0  0  0  0  0  0  0  0  0
    7.1213   10.3404  -23.0899 H   0  0  0  0  0  0  0  0  0  0  0  0
    7.8109   10.8031  -21.4972 H   0  0  0  0  0  0  0  0  0  0  0  0
    8.2205    9.2130  -22.2256 H   0  0  0  0  0  0  0  0  0  0  0  0
    4.8742   10.8102  -22.2631 H   0  0  0  0  0  0  0  0  0  0  0  0
    4.2110    9.9830  -20.8132 H   0  0  0  0  0  0  0  0  0  0  0  0
    5.4842   11.2366  -20.6284 H   0  0  0  0  0  0  0  0  0  0  0  0
    3.9401    2.2260  -20.9756 H   0  0  0  0  0  0  0  0  0  0  0  0
    3.3829    1.2811  -19.5532 H   0  0  0  0  0  0  0  0  0  0  0  0
    5.0773    6.9459  -16.0260 H   0  0  0  0  0  0  0  0  0  0  0  0
    3.9034    7.9922  -16.8943 H   0  0  0  0  0  0  0  0  0  0  0  0
    5.0022   -2.3492  -18.0777 H   0  0  0  0  0  0  0  0  0  0  0  0
    8.4019   -2.3985  -22.1032 H   0  0  0  0  0  0  0  0  0  0  0  0
    8.0499   -3.0968  -20.6697 H   0  0  0  0  0  0  0  0  0  0  0  0
    3.6506    6.2869  -18.5002 H   0  0  0  0  0  0  0  0  0  0  0  0
    3.1214    5.1982  -19.5919 H   0  0  0  0  0  0  0  0  0  0  0  0
  1  2  2  0
  1  3  1  0
  2  7  1  0
  3  8  2  0
  4  7  2  0
  4  8  1  0
  5  9  2  0
  5 11  1  0
  6  9  1  0
  6 12  2  0
  7 22  1  0
  8 24  1  0
  9 21  1  0
 10 11  2  0
 10 12  1  0
 10 27  1  0
 11 32  1  0
 12 33  1  0
 13 15  1  0
 13 40  1  0
 14 16  1  0
 14 40  1  0
 15 17  1  0
 15 21  1  0
 16 17  1  0
 16 28  1  0
 17 31  1  0
 18 24  1  0
 19 24  1  0
 20 24  1  0
 22 28  1  0
 23 25  1  0
 23 26  1  0
 23 32  1  0
 25 34  1  0
 25 35  1  0
 25 36  1  0
 26 37  1  0
 26 38  1  0
 26 39  1  0
 29 40  2  0
 30 40  2  0
  1 41  1  0
  2 42  1  0
  3 43  1  0
  4 44  1  0
  5 45  1  0
  6 46  1  0
 13 47  1  0
 13 48  1  0
 14 49  1  0
 14 50  1  0
 15 51  1  6
 16 52  1  6
 17 53  1  1
 18 54  1  0
 18 55  1  0
 18 56  1  0
 19 57  1  0
 19 58  1  0
 19 59  1  0
 20 60  1  0
 20 61  1  0
 20 62  1  0
 21 63  1  0
 21 64  1  0
 22 65  1  0
 22 66  1  0
 23 67  1  0
 27 68  1  0
 27 69  1  0
 28 70  1  0
 31 71  1  0
M  END
>  <OMEGA_C>  (25) 
gKgCQZQoA0GYy5HBFwPkQN/i9kAOTYvB2lj8QGuFC0FAApzBtWywQCNaBEGvQpnBa96aQDLtTb9+
bKDBqaXHQHR5Mz/k6qrBBHO5QEBL+EBo/47B6aLRQPJVDEF535/BjcyjQBxL+j7qRKTBJwvaQBER
1b/eo6nBJjG2QAMb8b87DKPBdLDiQJxgv75fmq3BgF+yQH/J5z87UI/BkPSwQLHMiUCofoTBmDCi
QEptJkDXNJnBjlufQLXbm0CDI4/Buv2FQCy7c0C6pJXBXOy1QCvIAkFHPLLBiL3tQA56H0EO0bDB
A6+jQOqwJkGwHKrBHHuIQH9+1D9zuKDBqomVQLvj5kBxGojBRvqjQGphVcD8apTBUrDGQCg0FUGc
F6vBRPhwQLyhgsBa8JPBJarJQJ5vgsDL0Y7B5zf1QMRSLsC4GqzBfMeBQFdiwEB9Bo3B2k32QNcL
V0A4443BUXnaQDFyDUD/FXrBDiFqQLPLjkCz5J7BvTWuQOvcSsDxoZ/BCZkCQXvQI75t6bPBaNoy
QEuSUcBT+ZfBRkJcQEDIjMCGtYnBcChzQC7upsD+9JnB6mnMQJO4q8CYJZLBRwfEQNSjgcBCDYTB
j3fvQKJDXcBbEpHBV3TSQEdGOUB+PIfBtfUSQaWrAkGO8I7BIQrrQLD16UCse4PB9hULQZheEUE/
86DB1M+PQHSOBEEqHpzB3TN+QHQceb/HdZvBtFvOQENZ2D8K9K3BjOCWQGDDuT/UoYrBCKvFQCzZ
cz+t9pHBebfDQGqiokB7YoDB4SSWQGiuf0Dsun7Bcgu+QCUnP0A5nJ3BH2u6QE8Hp0BYBpTBMpNX
QN9kW0DPnZDBDRyuQGsMCUEuObrB3bbOQL697EB19LLBpwiZQCaq90ASmq7BpeHjQGNyJUEuuLjB
9fL5QI3ZLEFO+qvB+YYDQXNoE0HyzbHBaPmbQJj2LEHuGrLBqMCGQFG6H0F7gabBrn6vQP/IM0Ht
BqXB5ip8QAx2DkAezqfBCYJYQFP7oz/cbJzBL3miQL1E3kA7NYDBo9F5QCvA/0B4J4fBJhKgQBRa
FsAPn5DBUG4GQXeBGcBc07DBc8wAQbsyRsCYW6XBv6JpQEUuyUBVAJTBbsRHQNNXpkBNvJzBbaYC
QU40A0Gd5pHB+RnkQHQK90BIXYvBFyn8QHyNC0F/G5zBE0awQK5rBEEHRpnBCO6aQP6QTb95caDB
pQTIQFKqMj/Q6qrBP3m5QE9u+EB0BI/BnGLRQEZfDEFy7Z/BAQ2kQJMk+z4FS6TBNyTaQLeh1b8+
nqnB1iC2QClC8b+xFaPB8vviQHCOwr6vk63B+l6yQAEQ6D+CWI/Bzv2wQKjGiUASeoTBQF2iQGTJ
JkCbPJnB0XKfQGzzm0BlHY/BSSGGQAAQdEBxqZXB3nrtQEv9HkFfBLHBwTakQJ83J0EtFKrBySO0
QDX/AkH5KbLBycqIQNto1T9lzKDBnrCVQOH/5kDOFIjBhxmlQNj1VsB9hpTBOD/GQOBGFUErIavB
3DF0QIE2hMBN3ZPBCLzLQE0cg8D2QY/BWmH1QPi0LsBP/qvB196BQHN3wEB4+ozBB1/2QHjbVkDh
2Y3BFVLaQMgJDUCJF3rB6pdqQAQWj0CG557BR8qtQKwOS8CFyp/B8dMCQUYCL77K1rPBP400QG6a
VcAgspfBV4BhQPffjsCOm4nBFaR2QBhPqMAl9ZnBD3vGQMOShMBAe4TB4e/wQLrSW8BEUpHBW4/P
QD2iq8AYE5PB1G3SQJgfOUCPOofBQfoSQfqzAkE+FY/Bj0HrQO0s6kAhjIPB9/MKQTBjEUEXFKHB
ZZuPQPqlBEF6F5zBS1J+QDX2d78yeZvBD+DOQL3P1z9F9K3BLMuWQG4juj/PsIrBqKLFQEk4dD/O
/pHB5sjDQIeMokBDWoDB2SWWQESof0Bytn7BN0u+QDGbP0BHmp3B3Ym6QCUwp0Ar+5PBzcBXQLee
W0C+qJDBs3rjQFYDJUEK5rjBdKb6QH0+LEFHQazBXw0DQcGWEkG0ELLBgWOcQMmALUHvD7LB6yKH
QLyqIEHJWqbBUvmwQDA1NEE+EqXB0i6sQLJHCUHHI7rBgEDMQImJ7EBY8LLBSh+XQGDn+ECKaK7B
9GV9QAP1DkBP6KfBLMFYQCVypT+OjpzBlcWiQBFm3kAZM4DBAR56QIzX/0BdG4fBjB6hQNSFGMBu
lZDBgZQGQW8TGsA9r7DBIcgAQRNURsDyNaXBdpZpQLY8yUBl8ZPBZjVIQJicpkDQvJzBtbECQYE6
A0HI9pHBKEDkQMMX90D5Z4vBayf8QCORC0EIK5zBdU2wQMtyBEEqSZnB3RGbQC3dSr8mgKDB1znI
QGorND9/+6rBq5i5QEV1+EBYCo/BnlTRQI9xDEFM85/Bo0OkQOhi/z7GW6TBGy7aQBwZ1b8aq6nB
pTO2QNY88L9NHKPBqhbjQDzKwL6QpK3BH3uyQJ295z9pV4/BIhexQHPSiUBneoTBBpWiQCnZJkBz
O5nB85ufQPXnm0AXIo/BMUCGQM7bc0BzpJXBEP3sQOWpH0Ez6bDB7O+iQOa2JkFQKqrB4HW1QFXO
AkEWRrLBGhSJQKxf1j/I2qDBBNuVQDz25kBKG4jBSUOkQFfOVMAed5TBEBvGQBhMFUFAKKvBvhVx
QFzegcCb3JPBAQPKQHKggsCi/47BekH1QACgLsA3E6zBgQ+CQFJ3wECuBo3BnqH2QA5BVkBctY3B
4OLZQOfYDEC/5nnB8zJqQNPZjkAw3p7BbO6tQLdTSsCitJ/BdNYCQYHILr6F8LPBV5UzQFy8UMBZ
LJjBPa1bQLpdisDyj4nBTt9yQLYAp8BYjZnBN+zMQFONq8CwlZLBNGHEQDb0gsCrOoTB08nvQI8g
XcAfIJHBJWnSQGvcOECHKIfB0AgTQcO7AkEaKo/BzXjrQC1B6kAWl4PBoO4KQYZZEUFqKqHBbp2P
QHenBEHWFpzBU4N+QOiNdL9WipvBzinPQL5/2D+6BK7Bx9iWQO12uT+fuIrBP9DFQBcCdD+4/pHB
mPPDQGWbokC4YIDBDDOWQHkNgEAbtH7B+I6+QKXiP0BRj53Bari6QKwKp0C3AZTBRFRYQJ07W0Bj
mZDBXPjiQIifJUGfzbjBSCX5QHYOLUHgE6zBgDIDQd+mE0Gx7LHBAxebQPXyLEFKKLLBPhuGQMmx
H0FPiabBNa6uQBPZM0GMGKXBsW6tQM0HCUGyQbrBZWbOQKPy7EBHA7PBArmYQGuK90BFm67BxFN+
QBfAD0BU9KfBAhxZQJtqpj+iqJzB0PaiQPlL3kBrO4DBd2x6QMbH/0AiHYfBouagQBHFFcBio5DB
5oIGQfMgGsCPx7DBG7wAQaFrRsAqTqXBVDtqQFxDyUADAZTBYa9HQOFNpkAor5zBIzEDQREeAkG0
0pHBy6jkQDLC9UARVIvBIfL9QOJKCkGLGpzBErqxQLzbA0EAbpnBMYybQMwpVb9hb5/BUqPDQEfl
OD+6r6rBeDm6QE+t90AwGo/BnlnTQNRrC0FuCKDB2UShQKRd7T5Oq6PBy0jZQG9Xzr9GrqnBkf+3
QB0J77/vXKLBOLbfQB1on77noK3ByQqwQGRc5j+y0Y7B5yiwQMoJikCJZoTB/+GfQLV+JEB2zJjB
i6+eQLu5m0AtGo/BhKiEQMuzc0BJe5XBqgy5QI9fAUEddbLBdFXwQEJVHkF67rDBgKelQI9jJUHM
pKrBm1qFQNcRzj8w9J/BI92VQKwf50DgOojB64q5QCaRUsAn8ZLBVgTJQO0DFEFTWKvB3iaZQK4g
jMBjlY/BkszpQGHsaMA9JJDBNQ70QOkOKcCa/qzB7KOBQP/FwEDLGo3BDND0QDjaU0D1wI3BarTY
QCh7DUCBbnnB8HxpQOV+jkBQ457BFkOzQML1SMDHaZ7BM40AQaBpSb17L7TBi2ZiQNVbgMDD0ZLB
/cWYQN+vkMBiyITBTlCjQHEAssA1UpTBFTP9QACeJMDecYvB7kAAQcWXfcDeBZnBtGftQLgllsDF
UonBAd/QQElZOEA++4bBL3MTQSBoAUHc6o7BKEPrQAct6UDYc4PBOAwMQX3BD0FiDKHBWTORQB8+
BEHwV5zBFYaBQA0ohL+q+pnBMGLIQGby2z/Czq3BUIeUQGeQuz+uBorBgM3CQPjxbD9iYJHBXGLD
QFHSokAKaIDBoUOVQHHZgEACa37Bq8C7QLXnOkDtYp3BCti5QNg5pkAKDJTBd9lTQCqlXUDtdpDB
+KuxQKFvB0GmgrrBBhjSQOcb6kB7AbPBWQmcQCLB9ECc6K7B//zmQKUcJEGX6LjB/PX7QLPYK0HG
GazBC/QEQfNYEkFtvbHB7XaeQMVtK0EmtrLBq4+IQBhmHkEXIqfB+NywQDGoMkEclqXBg41yQJk4
CkDL86bBTHBUQKpKmz9PVZvBaHGiQGyU3kAiS4DBtDp7QJA0AEEBYYfBQzCxQBWKFsCb2I7BfNcE
QZ8nEsAiJrLBiocBQdrkQcCXpabBoPZpQNyLyUD8HZTBuzxIQCaspkBd5pzBQDsDQVxhA0Eyv5HB
bwblQGRX90D3SIvBaqX9QDTkC0Hd8JvBn6OxQOPrBEEXO5nBH4OaQPBxb7+8g5/Ba9vDQIbOJj8k
N6rBn326QMME+UC0AY/B6fXSQNvdDEHlz5/Bw1mhQCBVxj7qQaPB867ZQHi2179IV6nBV0q3QG6b
/L85bqLBFOXfQMdQwr6dPK3BD82wQJQp6D/moI7BRvmwQKAui0BMgYTBJt+fQBZJI0B5qpjBkPWe
QFlLnEAENI/BrbqEQNpmc0B5ZpXBRdO2QJp+A0EDJ7LB6k/vQBvgH0EMw7DBSIKlQCWCJ0El/6nB
YUmFQF3ixT/ghZ/BYEqWQKLD50AOLojBcw67QElKdcDwapXB9RjIQDzSFUEGBKvBl0jpQFFQX8DL
55DBYpGVQBWTZMCymI3BClr1QJkHLcCgb6zBOg+CQAyIwUAGL43BVTL1QPxxVkDYBI7BjYTaQLWh
EUCkennBulVoQKKzjUD20J7B7sivQBGrU8DOCaDBdnIAQZyI5L2o57PBDnwDQZSAhcCRrJbB6lft
QF+9ecARlobB53XzQOG7CsDFLJHBou2XQAkFjsBdQIXBTMZfQOk+c8DryJLBngaWQKgeE8CS1onB
ItXRQEX7OkDRDofBeoUTQbPFAkFi4Y7BD+3rQIs66kC+eoPBfccLQRG6EUF226DBAwiRQCJRBUEx
FpzBVdF+QMiZk7/lcZrBbcDIQNlt0z+GPK3BvqSVQFQTvj+yr4nBpaXDQB4dcD+5G5HBpjLEQHZA
pEDIn4DBIFuWQL0HgkAMcX7Bxly7QIkbOUDvb53BWdm5QHOQpkC4RJTBdqBUQBLZXUDrPpDBYA+v
QKvPCUElIrrBJ1PPQGPj7UBv5LLBs9KZQJtp+UCsf67BeoDlQJvrJUF/p7jBxeP7QE8qLUG/7KvB
QSoEQVCpE0FVxrHBIdmdQPHYLUHC+rHBaXaIQOKzIEGGX6bBH6+xQNCENEFg6aTBwJNwQHNpBEDC
jKbBWpRVQLhYkz+vqprBPgqjQJvE3kCySoDB7N17QMxvAEG6M4fBsoy7QNehncBQYJbB0OUFQSRL
FcBHTrHBH6UBQYctRsAH9aXBF15rQP2VykCRNJTBXF9HQAsEpkCn25zBfs0CQavtAkGM3ZHBPVTk
QESf9kDqVIvBCZD8QKg/C0GvFZzBAKSwQC8yBEFdRZnBC+qaQKW4TL+VU6DBFjbHQLLgND/i9KrB
Lrq5QK4a+EBOAI/Bo87RQGEcDEFW6p/BBoCjQEJB/D4pRaTBzfLZQKvV07/YoKnByV22QPVQ8L9P
9aLB81riQBr/ur77oa3BrPWxQJ7D5z8PVY/Bqt6wQOKxiUA9fYTBBOGhQMycJkAdOJnB4EGfQOzd
m0AwH4/BjMiFQPwFdEAkpZXBCjy2QCJlAkE1QrLBPrPtQI1IH0E53rDB/4OjQLFKJkHmL6rBaCmI
QMse1T98v6DB79CVQDLm5kAdE4jBzZKiQHEUVsD4fZTBbsLGQAzpFEEYJKvBbHZsQA2SgcBRmJTB
lZnGQE6YhMBcs47B7iz1QIWLLcDNHqzBUtKBQBJ6wEBu+ozBIRL2QKpzVkC+6o3BezXaQIXIDEB4
KXrBPfdpQKQPj0CC5J7BoP+uQCfSSsCki5/BS2ACQU05Gb5H+bPBtKIzQHOaUcBPCJrBn7dOQL0v
h8DhforBscZwQKIbqMBxoJnBqPq8QLAqicBOLITBe3XsQDxVXsC1e4/B//TLQMnlq8D8JpPBgzTS
QDbeOEAHQofBBh8TQb5lAkE0CY/B7mfrQP7K6UCugYPBWi4LQcAGEUERDqHBpgCQQPVnBEEwHJzB
Tbh+QG/6d78lSpvBTrzNQK/62D90B67B5GqWQKo5uj9CporB7x3FQNEccz8s/ZHBRr3DQMByokAg
YYDBXQ+WQOKYf0D2s37B0ci9QBw/P0BunJ3B3VS6QCcBp0AHApTBgglXQP/KW0BGoZDBQVauQJeX
CEFCQbrBDDDPQHIf7EAp9rLBDHCZQNe99kBuna7BPsnjQIYzJUHBxrjBTL35QNy0LEGMCazBc5QD
QZlJE0EX2LHBrMGbQIqBLEFFMLLBTqmGQNw/H0GrlKbB6CKvQNpxM0HZHKXBCb17QGbLDkAu16fB
Ub1XQE/NpD+ReJzBCc6iQHA83kAIMIDBZaN6QH7h/0B0HIfBxCWfQIdwF8BzkZDBoU8GQTypGMDk
5bDBNekAQQIlRcC/Y6XBgIxpQPBSyUCw8JPBs7hHQGSlpkA1u5zBuhIDQRluAUGq75LBf3PmQNqf
80CR74vB/aj6QD4hCkHh6pzBNYCvQLZcA0FB95jBIFaaQIBUAr+8PqHBGHDEQPxlPT+INa7BpQu7
QNKz9UDt7I7BSAnPQBSdC0HiAKDB2/WhQGDiKj959abBJj7YQIwbx7/VsqnB+Za2QAN/yr8kBaLB
orPeQLsixr4I2K/BlJSyQJyO4T9ohZHBjrqwQFMihEDI6ITBEcOjQEKPK0DA6ZrBKtegQKC+mUAK
SY/BG2qHQBhPdUAeiJbBVbG9QNGqAUGRB7PBq97jQHl3JEFeja/BJfOWQF2/IEGSgarBfh+KQBRk
8z9OmKPBQuKYQEuj40C/m4fBo6yuQD+1dcBkGpzBYSnCQN+BFEGmGKvBtxfNQBtyk8BAbpTB9XB8
QNX+hcDo8JrBXZn0QF+mJ8Db56rBHuGDQLQNvkAMmozB5VT3QHgvTUBI3o3BteLVQPZk9D8vz3zB
hL9sQOjCkkDTRp/BJd+0QEJzHcD5nJnBt9X/QMPnnr5GzbbBh1/1QObMgsDeFpXBwJ7OQAlDvcAf
PpfBZETAQNrlj8CEEorBb0JuQNeErsBLZ57BuddMQLjbVcAcDaHBr7xgQGY1gsAbrJDBQFDRQNi7
LUDJKYjB0bcTQdCbAEHlppDBs1nvQMJX5kCfRoTBe6YJQfa8D0GnSaLBiEGOQHyZA0HcUpvB+8d8
QIJYFr9TM5zB0rPKQCcM1D/Pf7LB9liWQPf/qz8meI3BeFLGQLZycT8TtZTB0KnDQH0wm0A1PYDB
eQ6VQBcYc0BwKIDBW0zAQK+ZR0BysJ7BUKe8QD/DpUDDw5PB7oNaQBwxWUCBzpHBfom0QI/VB0GM
8rrBx27cQN5c8kD+pLPBJe6kQP8k7UAxJLDBsGjZQJBaKkEUbLfBnzDnQNUJMkHcAqrBH3EBQZlO
HEE4YLDBvqCOQOjfJkEvfbLBsWB7QMHTFUEouafBu+6ZQAo1LkGm4qTBcF+FQBI7I0CnmarBfaZV
QAM6zj8gTqDBDrSnQHLP2UCJA4DBuLKAQHxx/EAuDYbBHIK4QBlkgcCmZKTB5NcEQaPyGcCMrLDB
ahICQQ18McCdBaTB8axrQE/Px0AvXZPByRFKQBlRqUA3mZzB

>  <OMEGA_E>  (25) 
iD4XPoBgGD6A2Rg+UHBpPiAUaz7QBRU+kB2rPg==

>  <OMEGA_NBR>  (25) 
     99508

$$$$
50216994
     RDKit          3D

 68 70  0  0  1  0  0  0  0  0999 V2000
    8.1811    8.2384  -18.1497 C   0  0  0  0  0  0  0  0  0  0  0  0
    7.1315    7.7338  -17.3618 C   0  0  0  0  0  0  0  0  0  0  0  0
    7.9160    8.7827  -19.4212 C   0  0  0  0  0  0  0  0  0  0  0  0
    5.5424    8.3122  -19.1199 C   0  0  0  0  0  0  0  0  0  0  0  0
    4.8516   -0.8890  -19.9237 C   0  0  0  0  0  0  0  0  0  0  0  0
    6.0875    0.6283  -21.3888 C   0  0  0  0  0  0  0  0  0  0  0  0
    5.8083    7.7745  -17.8448 C   0  0  0  0  0  0  0  0  0  0  0  0
    6.5876    8.8337  -19.9215 C   0  0  0  0  0  0  0  0  0  0  0  0
    5.0372    0.4024  -20.4769 C   0  0  0  0  0  0  0  0  0  0  0  0
    6.7534   -1.7112  -21.2196 C   0  0  0  0  0  0  0  0  0  0  0  0
    5.7224   -1.9554  -20.2853 C   0  0  0  0  0  0  0  0  0  0  0  0
    6.9432   -0.4227  -21.7575 C   0  0  0  0  0  0  0  0  0  0  0  0
    5.5371    1.8075  -17.8981 C   0  0  0  0  0  0  0  0  0  0  0  0
    5.5224    4.3232  -16.5931 C   0  0  0  0  0  0  0  0  0  0  0  0
    5.0162    2.5629  -19.1464 C   0  0  2  0  0  0  0  0  0  0  0  0
    4.9684    4.8760  -17.9264 C   0  0  1  0  0  0  0  0  0  0  0  0
    4.1614    3.8051  -18.7249 C   0  0  1  0  0  0  0  0  0  0  0  0
    3.5644   -3.8692  -18.6353 C   0  0  0  0  0  0  0  0  0  0  0  0
    7.4847   10.0550  -22.0177 C   0  0  0  0  0  0  0  0  0  0  0  0
    5.1739   10.5182  -21.1745 C   0  0  0  0  0  0  0  0  0  0  0  0
    5.7216    8.2837  -22.2276 C   0  0  0  0  0  0  0  0  0  0  0  0
    4.1830    1.5786  -20.0212 C   0  0  0  0  0  0  0  0  0  0  0  0
    4.6717    7.2158  -17.0116 C   0  0  0  0  0  0  0  0  0  0  0  0
    5.0245   -3.4273  -18.4683 C   0  0  0  0  0  0  0  0  0  0  0  0
    6.2562    9.4153  -21.3149 C   0  0  0  0  0  0  0  0  0  0  0  0
    7.6155   -2.7417  -21.5836 N   0  0  0  0  0  0  0  0  0  0  0  0
    4.0539    6.0275  -17.6615 N   0  0  0  0  0  0  0  0  0  0  0  0
    7.6692    3.3459  -17.7740 O   0  0  0  0  0  0  0  0  0  0  0  0
    6.8132    2.2375  -15.6396 O   0  0  0  0  0  0  0  0  0  0  0  0
    3.6484    4.4463  -19.8952 O   0  0  0  0  0  0  0  0  0  0  0  0
    5.6366   -3.2468  -19.7672 O   0  0  0  0  0  0  0  0  0  0  0  0
    7.9698   -0.1817  -22.6060 F   0  0  0  0  0  0  0  0  0  0  0  0
    6.5552    2.9024  -16.9227 S   0  0  0  0  0  0  0  0  0  0  0  0
    9.1947    8.2084  -17.7782 H   0  0  0  0  0  0  0  0  0  0  0  0
    7.3391    7.3157  -16.3880 H   0  0  0  0  0  0  0  0  0  0  0  0
    8.7292    9.1644  -20.0207 H   0  0  0  0  0  0  0  0  0  0  0  0
    4.5283    8.3270  -19.4910 H   0  0  0  0  0  0  0  0  0  0  0  0
    4.0467   -1.0647  -19.2253 H   0  0  0  0  0  0  0  0  0  0  0  0
    6.2352    1.6136  -21.8058 H   0  0  0  0  0  0  0  0  0  0  0  0
    4.6839    1.4649  -17.2942 H   0  0  0  0  0  0  0  0  0  0  0  0
    6.1329    0.9394  -18.2167 H   0  0  0  0  0  0  0  0  0  0  0  0
    6.1174    5.1012  -16.0923 H   0  0  0  0  0  0  0  0  0  0  0  0
    4.6861    4.0261  -15.9432 H   0  0  0  0  0  0  0  0  0  0  0  0
    5.8778    2.9132  -19.7336 H   0  0  0  0  0  0  0  0  0  0  0  0
    5.8116    5.2137  -18.5468 H   0  0  0  0  0  0  0  0  0  0  0  0
    3.3324    3.4544  -18.0926 H   0  0  0  0  0  0  0  0  0  0  0  0
    3.1061   -4.0043  -17.6445 H   0  0  0  0  0  0  0  0  0  0  0  0
    3.0103   -3.1003  -19.1937 H   0  0  0  0  0  0  0  0  0  0  0  0
    3.5300   -4.8198  -19.1877 H   0  0  0  0  0  0  0  0  0  0  0  0
    7.1826   10.4479  -22.9997 H   0  0  0  0  0  0  0  0  0  0  0  0
    7.8747   10.8763  -21.3985 H   0  0  0  0  0  0  0  0  0  0  0  0
    8.2673    9.2938  -22.1525 H   0  0  0  0  0  0  0  0  0  0  0  0
    4.9393   10.9309  -22.1668 H   0  0  0  0  0  0  0  0  0  0  0  0
    4.2642   10.0850  -20.7332 H   0  0  0  0  0  0  0  0  0  0  0  0
    5.5508   11.3208  -20.5235 H   0  0  0  0  0  0  0  0  0  0  0  0
    5.4845    8.6939  -23.2204 H   0  0  0  0  0  0  0  0  0  0  0  0
    6.4878    7.5009  -22.3279 H   0  0  0  0  0  0  0  0  0  0  0  0
    4.8128    7.8524  -21.7826 H   0  0  0  0  0  0  0  0  0  0  0  0
    3.8052    2.1134  -20.9051 H   0  0  0  0  0  0  0  0  0  0  0  0
    3.3352    1.2010  -19.4309 H   0  0  0  0  0  0  0  0  0  0  0  0
    5.0615    6.9222  -16.0258 H   0  0  0  0  0  0  0  0  0  0  0  0
    3.9045    7.9940  -16.8855 H   0  0  0  0  0  0  0  0  0  0  0  0
    5.0569   -2.4773  -17.9147 H   0  0  0  0  0  0  0  0  0  0  0  0
    5.5766   -4.1968  -17.9088 H   0  0  0  0  0  0  0  0  0  0  0  0
    8.2807   -2.4013  -22.2482 H   0  0  0  0  0  0  0  0  0  0  0  0
    8.0958   -3.0764  -20.7729 H   0  0  0  0  0  0  0  0  0  0  0  0
    3.6713    6.3221  -18.5372 H   0  0  0  0  0  0  0  0  0  0  0  0
    3.1292    5.2005  -19.6418 H   0  0  0  0  0  0  0  0  0  0  0  0
  1  2  2  0
  1  3  1  0
  2  7  1  0
  3  8  2  0
  4  7  2  0
  4  8  1  0
  5  9  2  0
  5 11  1  0
  6  9  1  0
  6 12  2  0
  7 23  1  0
  8 25  1  0
  9 22  1  0
 10 11  2  0
 10 12  1  0
 10 26  1  0
 11 31  1  0
 12 32  1  0
 13 15  1  0
 13 33  1  0
 14 16  1  0
 14 33  1  0
 15 17  1  0
 15 22  1  0
 16 17  1  0
 16 27  1  0
 17 30  1  0
 18 24  1  0
 19 25  1  0
 20 25  1  0
 21 25  1  0
 23 27  1  0
 24 31  1  0
 28 33  2  0
 29 33  2  0
  1 34  1  0
  2 35  1  0
  3 36  1  0
  4 37  1  0
  5 38  1  0
  6 39  1  0
 13 40  1  0
 13 41  1  0
 14 42  1  0
 14 43  1  0
 15 44  1  6
 16 45  1  6
 17 46  1  1
 18 47  1  0
 18 48  1  0
 18 49  1  0
 19 50  1  0
 19 51  1  0
 19 52  1  0
 20 53  1  0
 20 54  1  0
 20 55  1  0
 21 56  1  0
 21 57  1  0
 21 58  1  0
 22 59  1  0
 22 60  1  0
 23 61  1  0
 23 62  1  0
 24 63  1  0
 24 64  1  0
 26 65  1  0
 26 66  1  0
 27 67  1  0
 30 68  1  0
M  END
>  <OMEGA_C>  (26) 
mOUCQXbQA0GAMpHBGDXkQKx790AQ5YrBlU/9QPmFDEGlXpvBoVuxQML+BEF89ZjBIUCbQNKTY7+7
Y5/BA83CQITaID88HKvBht25QNLI+EAtwo7BBM7SQM1WDUFSX5/B0TChQI8Lzj6y0KPBsxvYQBoJ
27+vwanBth23QC1K+r9dSKLBZC7eQGRm2L5kD67B4y+xQHtb5z84L4/Bf7ewQO9XikCjvoTB0oSg
QIMGJEDCK5nBvPyeQIEInEA6aY/BLiqFQIGGc0CVzJXBQB9kQEOhd8AJFZXBzoLvQCThIEFQJLDB
2ZClQIFKKEFgZanBahe3QDqKBEEg0rHBiduFQAUQyj+CK6DBfH6VQBLo5kDCF4jBq8igQFVZW8Ag
v5PBZTLIQA2lFkHxhKrBOrLzQLR3L8BNq6zBNLmBQG3hwECvSo3B6Wn1QJciVkAkMY7BnwXaQFYz
D0DsO3rBsn5pQBZIjkBiKZ/BBF+0QD3LT8A3I57Btgj/QFwVOr4v2bTB+MPRQGXBOUC2YYfBih0T
Qa9VA0G1OY7BrtnqQF0a6kCGGoPB0qoLQWihEkFVKqDB2OeQQDU7BUF/7ZvBiX6BQEZHiL+CzZnB
YIbHQKqJzj9Kcq7Bk+KVQIOAuz90WorBYEDEQHV+cD/gu5HBBsLDQKU8o0ANvYDBZPSVQA3WgEB+
F3/BUBe8QPNxOkB33p3Bkvi5QLfWpkDZX5TBVkZVQHIVXUCVvZDBIspGQJMjgMDhJ43B9KhAQNlr
RsCcjJnB6OthQLc7msCCgJnBzNflQHsqJ0F5/7fBqv37QB8FLkE3MKvBA0cEQXezFEFEOLHB3w6e
QM/kLkGaVbHBSnSIQApcIUGy3aXBa6CxQPIhNUEoMKTBOIGvQBkaC0FQw7nBa5zPQHgH8EB0n7LB
WQKaQBhH+0DOQq7BPIhzQHpCB0CiPafBNnNVQPW5mT+IcpvBHvihQIiC3UDaNIDBwuJ5QHfO/0Cb
FYfBWdKhQMWMHsBZUY/B03OyQC1MhsBARY/Byn0EQYuuGcBO/LHBaYgBQdDjRMDwLqbBBfdqQLNO
ykApTJTBV0VIQGRqpkBuIp3BVJwBQQtrBEEHtJDBjNHhQFXb90Cve4rBD436QPVuDUFmy5rBs7yu
QCJ0BUHndZjBsMucQNBbVr9I15/BdHLIQMHSFz+uWqvBznO3QHEH+UAfVo7BQwnQQP4sDkEczZ7B
pk6lQMhx3T5YZaTBbNfZQFpV47+oeanBYim3QIjo+L/4UaLBpIriQE7eAb+S6a3Byte1QLL16j/B
MZDB4E6wQHYCiUC114TBy0ukQPKCJ0Ab+JnBiDCfQMbkm0Aob4/BGjiHQNPBc0CcTZbBWP/uQOCq
ZMBg+ZLBaom1QPGUBUELZrHBRY3sQBqJIkHkUq/BbuuhQIzbKEFl0ajBC6GKQG6U0j8lSaHBpWOT
QA/T5UB7yofBxaW9QKVLXsBwi5PBbXDFQLSpF0G+6qnBwbTzQE3kNsBwJ6zBJMKAQJukv0DOLY3B
bkX3QOF1XkAWQI7B2m3cQM8HDkCBknvBs5ltQPZbj0Cih5/BidKtQKPxTMAeR57BIwACQcogrr5j
qbTBQ+TTQHLAO0AC0ofBmdQRQSYGBEHguo3Bf5zoQMrt6UCmwoLBEDoKQazXE0FFiJ/BikWOQAio
BUHDa5vB0BCCQODddb8ZdJrBvFfPQLMlyD+Iuq7BP/OaQJcstT9WnovBQ6LKQH2Kgj84/pLBHovB
QFPtoUDdXIDBL2mVQAxAekBzAYDB3W2/QCxqQUCoi57B1GO6QB4tqECbGZTBDXlZQE2gWUCMg5HB
xtP4QI7MccBor4rBtAv6QEFrjMCOMpjBxjf9QKTkJ8AGo5XB+/mtQDJKDEHQT7nB8bDOQHjD8kCp
ObLBi6WYQBNz/EDD+K3BagTjQDjwKEGlKrfBIR34QDysL0EXO6rBZh4DQTCyFkHVZrDB2oWaQDuL
L0HQvrDBy/aEQEmAIUHtbKXBbhOtQFa5NUEhgKPBSPuAQAp/C0DUlqjBBN9bQAgLpz+2+ZzBsumf
QAZA3EB12H/BN1x0QJME/kBQuYbBofCvQCWijcA1yZDBshyzQG1SKsCtOY7BjjYFQSrHI8CCQbHB
R7AAQV1GTsCpiaXB5KFoQBg2yUCFJpTBtElKQBmCpkC1V53BWo8BQe8OBUESoZDBadDhQDx4+ED3
fYrBY1/6QE1fDkFqpprBV62uQPUHBkH4Z5jBmw6dQFuXWr/IoJ/BwHXHQNdlEj+3dqvBy3i3QCKN
+UAlXI7Brd7PQLkWD0FeqZ7B7vSkQGZt0z52TqTBJGbZQJ515b9vianB/H+3QFSj+r8DJqLBDHDh
QMMcB79qHq7B8Me0QISI6T+r9I/B/BCxQFWeiUAf9oTBLgykQNY7JkAS3JnBVLCfQIYBnECUl4/B
RGOHQD6Bc0D2VZbBRL/xQBeNYcAQ8ZLByjnsQELUI0EJGa/BUiSiQOR5KkGjRKjBMUy0QA9gB0FA
QbHBU0mKQFTrzz9oJqHBa3qTQCLb5UAp5IfBxkzAQH6wXMCoMZPB9hLFQEAQGUHip6nBpDnzQPDY
N8BgR6zBKC+BQIu+v0BbYI3BnV73QK4OW0A1S47Bz9vbQB6MDkAMOnvBOeJtQPPFjkB4oJ/BdCKv
QK1lTcCV2p3BPBABQchSur75GrXBcq/TQN75OkADwofBBMYRQTSxBEGApY3Bq6roQCka6kC10oLB
BhoKQW8HFUGbU5/BrziOQI44BkGZX5vBZr2CQOMaer94HZrBqPXNQFU4xT/M6q7B9X6ZQKcuuD+B
VIvBUuPIQN8HfD+4mpLBfQPDQKOVokBwrYDBZDCWQHVrfUDE83/BLYy/QGgEP0BXZZ7BrLy6QCwg
qEDRVpTBgrdZQFRsWkC5eZHBGY78QCcobcB+sYrBRJ/8QJQVi8ASHpjBHDn/QPXHJMBw1pXBV3ni
QAmVKkGV2bbB33X4QIexMEHx7anB970CQSbWF0HjXbDB2YqaQCmJMUEhGrDBXCSFQNkzI0HK2qTB
lfatQEAKN0FF3KLB6pasQPtsDkGTFbnBbgvNQHYL9kBGQ7LB6leXQPwbAEEw0K3BSHWAQMYvCkDY
b6jBHmdbQDEjpD/1zZzBqfifQJMW3EDwCIDB4Sp0QIXU/UBDyobBRFyzQMTQjMDzM5DBHfa1QFY+
KMBR7I3BAa0EQcDoJMAXjbHBuNIAQXlrTsDgt6XB8iBqQAxwyUBhX5TBhxdLQNI4pkCKgp3BVr0C
QWw4A0EkU5HBYa7jQOLp9kDmAIvBozP9QHwFDEGde5vBSfiwQHdCBUGBA5nBCmabQGdKZL+DcJ/B
Va/DQNmqIT/U9KrBOFC5QKEH+UA4047BeLLSQHxBDUGmdZ/B7t2hQGMXzz6auKPB6V3YQBRz27+l
w6nBlu22QGES+78CbqLBDfHeQITY17767q3B02ayQH6e6D9aLY/BXk+wQP9/ikCPnYTB9CqhQPt9
JEBNHZnBiMyeQAsfnEDCTo/BqV2FQBlCc0BhtJXBFo9kQFiIeMCr6pTBrbK2QAlvBEFr4bHBTlDw
QEYxIEEJTrDByKamQCGDKEEGpKnBHJCGQJU5yj9ZEqDB1N6UQIA/50AnKIjByz+hQAH0XMB8A5TB
SoXIQBN8FkEDp6rBQMfzQDfqL8BTsazBZVWBQO7nwEA+Ro3BCsj1QMgeWUD8943BpmnaQFlIEEC/
B3rBWWRpQDgEjkB3Dp/BRBCzQH3RUMAwlZ7BWQQAQYOlOL7bpbTBRSbSQNArO0AOQofByvYSQV9u
AkGqYI7BoC3qQJJe6UDuOIPBV7MLQeDiEUFZS6DBxnqQQHXfBUFZ8ZvBTIKBQDS6iL+Q5JnBcKnI
QIY+zz98Oa7By1iXQJxxuT+mYYrBDSDGQIt8dz/9yZHB987CQP+To0D2hYDBcXuVQCp3gEA5AH/B
9HS8QISVO0Bd3Z3BB+K5QFT4pkAXO5TBfPlVQMcWXEAMppDBRLtJQKPXgMCL3IzBnARAQKS5RsAu
I5nBCoxgQBl8msDcZpnBWWqvQEfvCkFd2rnBhbLOQNJJ70ALn7LBkFKZQCDL+0ClTK7B+fbmQC9z
JkHXMLjBc1f9QM5GLUEFZ6vBSmkEQXi5E0FsUrHBzoCfQFwIL0HknbHBjDeJQOj2IUFPGKbBUzWz
QLFTNUFnfaTBeKp0QDUfB0DjJKfBxAxXQAjQmT+AUZvBgzyhQM483kBPO4DBE2R4QL0KAEEqPofB
5DejQPGJIMDRhY/Bm3uzQD9kh8B/yY/BUroEQTsCGsDO5rHBb1gBQdFRRsAsMabByR9qQPMCykCo
TZTBuppHQCrwpUCCBJ3B

>  <OMEGA_E>  (26) 
kJF5PkjFiD74+pA+0PV1Pg==

>  <OMEGA_NBR>  (26) 
    116970

$$$$
50216991
     RDKit          3D

 71 73  0  0  1  0  0  0  0  0999 V2000
    8.1341    8.2741  -18.1772 C   0  0  0  0  0  0  0  0  0  0  0  0
    7.0942    7.7736  -17.3747 C   0  0  0  0  0  0  0  0  0  0  0  0
    7.8568    8.7915  -19.4570 C   0  0  0  0  0  0  0  0  0  0  0  0
    5.4903    8.2970  -19.1370 C   0  0  0  0  0  0  0  0  0  0  0  0
    4.8773   -0.8285  -20.0077 C   0  0  0  0  0  0  0  0  0  0  0  0
    6.2766    0.6602  -21.3453 C   0  0  0  0  0  0  0  0  0  0  0  0
    5.7687    7.7881  -17.8521 C   0  0  0  0  0  0  0  0  0  0  0  0
    6.5260    8.8170  -19.9527 C   0  0  0  0  0  0  0  0  0  0  0  0
    5.1624    0.4623  -20.5036 C   0  0  0  0  0  0  0  0  0  0  0  0
    6.8167   -1.7154  -21.1993 C   0  0  0  0  0  0  0  0  0  0  0  0
    5.7060   -1.9235  -20.3501 C   0  0  0  0  0  0  0  0  0  0  0  0
    7.1021   -0.4248  -21.6917 C   0  0  0  0  0  0  0  0  0  0  0  0
    5.6086    1.8270  -17.9123 C   0  0  0  0  0  0  0  0  0  0  0  0
    5.5241    4.3199  -16.5622 C   0  0  0  0  0  0  0  0  0  0  0  0
    5.1030    2.6058  -19.1547 C   0  0  2  0  0  0  0  0  0  0  0  0
    4.9826    4.8823  -17.8968 C   0  0  1  0  0  0  0  0  0  0  0  0
    4.2085    3.8115  -18.7198 C   0  0  1  0  0  0  0  0  0  0  0  0
    7.7044   -3.4681  -17.9416 C   0  0  0  0  0  0  0  0  0  0  0  0
    5.6901    8.1972  -22.2526 C   0  0  0  0  0  0  0  0  0  0  0  0
    7.3993   10.0246  -22.0661 C   0  0  0  0  0  0  0  0  0  0  0  0
    5.0707   10.4342  -21.2489 C   0  0  0  0  0  0  0  0  0  0  0  0
    4.3100    1.6468  -20.0846 C   0  0  0  0  0  0  0  0  0  0  0  0
    4.6466    7.2210  -17.0043 C   0  0  0  0  0  0  0  0  0  0  0  0
    6.3479   -4.2032  -17.8739 C   0  0  0  0  0  0  0  0  0  0  0  0
    5.1962   -3.3874  -18.5021 C   0  0  0  0  0  0  0  0  0  0  0  0
    6.1855    9.3612  -21.3593 C   0  0  0  0  0  0  0  0  0  0  0  0
    7.6446   -2.7804  -21.5398 N   0  0  0  0  0  0  0  0  0  0  0  0
    4.0461    6.0157  -17.6361 N   0  0  0  0  0  0  0  0  0  0  0  0
    7.7106    3.4001  -17.7202 O   0  0  0  0  0  0  0  0  0  0  0  0
    6.8379    2.2388  -15.6216 O   0  0  0  0  0  0  0  0  0  0  0  0
    3.6858    4.4603  -19.8819 O   0  0  0  0  0  0  0  0  0  0  0  0
    5.4144   -3.2105  -19.9271 O   0  0  0  0  0  0  0  0  0  0  0  0
    8.1749   -0.2205  -22.4920 F   0  0  0  0  0  0  0  0  0  0  0  0
    6.5897    2.9219  -16.8971 S   0  0  0  0  0  0  0  0  0  0  0  0
    9.1499    8.2618  -17.8106 H   0  0  0  0  0  0  0  0  0  0  0  0
    7.3110    7.3784  -16.3933 H   0  0  0  0  0  0  0  0  0  0  0  0
    8.6628    9.1721  -20.0669 H   0  0  0  0  0  0  0  0  0  0  0  0
    4.4748    8.2906  -19.5044 H   0  0  0  0  0  0  0  0  0  0  0  0
    4.0233   -0.9808  -19.3644 H   0  0  0  0  0  0  0  0  0  0  0  0
    6.4966    1.6471  -21.7248 H   0  0  0  0  0  0  0  0  0  0  0  0
    4.7490    1.4589  -17.3331 H   0  0  0  0  0  0  0  0  0  0  0  0
    6.2240    0.9750  -18.2367 H   0  0  0  0  0  0  0  0  0  0  0  0
    6.0962    5.1008  -16.0398 H   0  0  0  0  0  0  0  0  0  0  0  0
    4.6828    3.9976  -15.9312 H   0  0  0  0  0  0  0  0  0  0  0  0
    5.9718    2.9943  -19.7063 H   0  0  0  0  0  0  0  0  0  0  0  0
    5.8309    5.2406  -18.4985 H   0  0  0  0  0  0  0  0  0  0  0  0
    3.3856    3.4256  -18.1002 H   0  0  0  0  0  0  0  0  0  0  0  0
    8.4841   -4.0930  -17.4817 H   0  0  0  0  0  0  0  0  0  0  0  0
    7.9635   -3.2731  -18.9927 H   0  0  0  0  0  0  0  0  0  0  0  0
    7.6318   -2.5141  -17.3988 H   0  0  0  0  0  0  0  0  0  0  0  0
    5.4469    8.5809  -23.2544 H   0  0  0  0  0  0  0  0  0  0  0  0
    6.4797    7.4356  -22.3335 H   0  0  0  0  0  0  0  0  0  0  0  0
    4.7918    7.7477  -21.8042 H   0  0  0  0  0  0  0  0  0  0  0  0
    7.0925   10.3893  -23.0575 H   0  0  0  0  0  0  0  0  0  0  0  0
    7.7597   10.8690  -21.4603 H   0  0  0  0  0  0  0  0  0  0  0  0
    8.2056    9.2852  -22.1810 H   0  0  0  0  0  0  0  0  0  0  0  0
    4.8309   10.8191  -22.2511 H   0  0  0  0  0  0  0  0  0  0  0  0
    4.1710    9.9835  -20.8044 H   0  0  0  0  0  0  0  0  0  0  0  0
    5.4193   11.2609  -20.6124 H   0  0  0  0  0  0  0  0  0  0  0  0
    3.9938    2.1974  -20.9828 H   0  0  0  0  0  0  0  0  0  0  0  0
    3.4226    1.2790  -19.5486 H   0  0  0  0  0  0  0  0  0  0  0  0
    5.0473    6.9460  -16.0175 H   0  0  0  0  0  0  0  0  0  0  0  0
    3.8671    7.9875  -16.8829 H   0  0  0  0  0  0  0  0  0  0  0  0
    6.4377   -5.1579  -18.4127 H   0  0  0  0  0  0  0  0  0  0  0  0
    6.1060   -4.3989  -16.8188 H   0  0  0  0  0  0  0  0  0  0  0  0
    4.2473   -3.9212  -18.3450 H   0  0  0  0  0  0  0  0  0  0  0  0
    5.1462   -2.4007  -18.0186 H   0  0  0  0  0  0  0  0  0  0  0  0
    8.3741   -2.4567  -22.1423 H   0  0  0  0  0  0  0  0  0  0  0  0
    8.0455   -3.1692  -20.7103 H   0  0  0  0  0  0  0  0  0  0  0  0
    3.6499    6.2935  -18.5112 H   0  0  0  0  0  0  0  0  0  0  0  0
    3.1420    5.1933  -19.6183 H   0  0  0  0  0  0  0  0  0  0  0  0
  1  2  2  0
  1  3  1  0
  2  7  1  0
  3  8  2  0
  4  7  2  0
  4  8  1  0
  5  9  2  0
  5 11  1  0
  6  9  1  0
  6 12  2  0
  7 23  1  0
  8 26  1  0
  9 22  1  0
 10 11  2  0
 10 12  1  0
 10 27  1  0
 11 32  1  0
 12 33  1  0
 13 15  1  0
 13 34  1  0
 14 16  1  0
 14 34  1  0
 15 17  1  0
 15 22  1  0
 16 17  1  0
 16 28  1  0
 17 31  1  0
 18 24  1  0
 19 26  1  0
 20 26  1  0
 21 26  1  0
 23 28  1  0
 24 25  1  0
 25 32  1  0
 29 34  2  0
 30 34  2  0
  1 35  1  0
  2 36  1  0
  3 37  1  0
  4 38  1  0
  5 39  1  0
  6 40  1  0
 13 41  1  0
 13 42  1  0
 14 43  1  0
 14 44  1  0
 15 45  1  6
 16 46  1  6
 17 47  1  1
 18 48  1  0
 18 49  1  0
 18 50  1  0
 19 51  1  0
 19 52  1  0
 19 53  1  0
 20 54  1  0
 20 55  1  0
 20 56  1  0
 21 57  1  0
 21 58  1  0
 21 59  1  0
 22 60  1  0
 22 61  1  0
 23 62  1  0
 23 63  1  0
 24 64  1  0
 24 65  1  0
 25 66  1  0
 25 67  1  0
 27 68  1  0
 27 69  1  0
 28 70  1  0
 31 71  1  0
M  END
>  <OMEGA_C>  (27) 
LCUCQdFiBEHbapHBagPjQHTB+EBh/4rB8mr7QOqpDEH/p5vB27CvQKjABEF+GJnBwxKcQEMWVL/A
D6DBAdrIQLz/KD8uw6rB55i4QN03+UAm0Y7BBtXQQJoSDUEvn5/BwDKlQHqx7D5kB6TBLCLaQJqR
278amKnBPJe2QBU29r/xzKLBBUTjQACA2b6diK3B1HmzQHPc6T9gTI/B1MWwQNc8ikB4f4TBIUyj
QFrFJkC+PJnBmnGfQOo7nECWLI/B0auGQPDuc0A3wpXBLor2QPX0XcBUiI/BhxW2QJEnA0E+BbLB
vsbsQLNkIEFoh7DBzUKiQGTyJkGu/anBpeuJQCrK0j86raDBwbCUQG8S50DMCIjBVCLLQFeAhsCy
/Y7BJUemQGfLWMBDBJTBye/FQJzHFUHQ36rBbqD0QN3xMcB8UazBBHqBQJKAwECwFo3BJ732QACb
WUDxwo3BetDaQGFID0Du8XnBxuRrQPO6jkAqDp/B9UKtQI54TcCgap/BM8wCQajMYb6j77PB8N7S
QJ3/OkA9LYfB32USQVUwBEEHfI7BnfPpQAoc7EBnJYPBypoKQcbAEkEFiaDBVDGPQEumBEHtCJzB
mL6AQH8Ye79K6prB3uPPQDLT0j9gzK3BaPeXQFu+uj8wqorBYSvHQPWYeT/X5JHB/xPDQBw6o0CG
UYDBcNmVQHbYf0Av5n7BNxm/QOCiP0Bspp3BoZa6QDKzp0Di/JPB86xYQI08W0BJzZDBrL4HQTT6
gsBy2ovBW9X+QEV6UcD68JfBXjf0QMHmIMCuMIvBH02uQGJLCUHqCLrBAVrPQHvw7UAHq7LBpFaZ
QFbt90Dtbq7BpfXiQMA6JkHCdbjBM0/4QHLnLUGdrqvB/UkDQTGQFEGecrHBD5eaQAobLUEnArLB
qniFQJi8H0F/b6bBw2qtQHssNEFB5qTBXJp/QGmiDEDQ3KfBSQxbQH+2oz+MY5zBXIOhQJ5F3kDM
I4DBxH13QP2Z/0AbEIfB8QHOQMgNpcBDTZPB9GPDQAbEjMD3jIbBzumHQAP1esCYwpLBiq2kQEqk
GcD/JZDBN/wFQa86HcCEI7HBXboAQcrUSsCurqXB0pdpQBBkyUDtFpTBUhZJQEovpkA58pzByaED
QW5qAkFOzpHBq7LlQIPY9UBrUovB/47+QFoBC0F9/ZvB+2eyQFOFBEGBOpnBTKGaQIRmYL+3mJ/B
JKXBQA66LD8yGKvBWie7QL8J+EBhBI/BlNjTQNpQDEF50Z/B7PafQON62D5w2qPB9pXYQBw307/L
0qnBKGm3QFZd9L8PgqLBNOfdQL1ytr4eDK7BY6WvQOce5T+z947BhH+wQN7yiUBDl4TBPiCfQAlZ
I0CJ8JjBO8GeQNuqm0CuQY/BBjuEQL9Cc0BHiZXBOMtYQF3bhcC2rZLBjpK3QIYdA0FRJLLBGmTw
QKpSH0HXwLDBpqemQJsnJ0H9+KnBjVKEQAQqyj+rAKDB2tmWQLAT50A/LYjBmSqbQLgbjsAoSI/B
Wui3QBCiUsC4+JLBChHJQCtgFUFVAavBv930QFirKsAXn6zB9DSCQPwZwUDTLo3B4Ij0QNBjU0Dd
Io7BC0LZQCeADUAM+HnBGFRnQLEwjkAF4J7BBcCzQEeSS8Dbb57BPNT+QHxpur2tvbTB3uzQQC4F
OEBrP4fB5O0TQZqUAUHa9o7B6YLsQFer6ECvhIPBSUkMQYekEEFF7qDBeMmRQCUaBUF+EZzBFaqA
QKZyir/DIprB2MHFQHQX1T/DY67BaU6UQG8Kuz+fForBIz7CQIOiaT9ah5HBZPHDQLGpokAIo4DB
Yb6VQN/agEDqr37BvtK6QLdyOUCEnZ3BJcy5QJDVpUCoSJTBVKVTQFF3XUAcZZDB9kYwQNqIoMCe
+Y/BOCNCQC3BT8D/CY/BXk1VQHFEg8CgcZvBztavQGp3CUEyHrrB9+7PQEoA7UDk5LLBqoOaQCvM
+ECce67BJJ7mQINyJUEZorjBQzD9QEWKLEEJ56vBHJ0EQZIGE0ETy7HB7BafQCKNLUEf87HBFIaJ
QOdoIEH9XKbBf/OyQNQbNEGs3qTBz5VvQL8RCECF96bB2vtSQPiClz9fRJvBE5ejQBbl3UAMTYDB
eH99QPw0AEHoK4fBlsacQBPAkMAThIbBqlumQO4jrMC165LBGMGtQNKTFsAfJY/B5mHZQPYvYMCZ
15DBuCYFQcs7FMB/27HBOAACQSWRP8AmE6bBUJRrQPxWykBcL5TBSqBGQGx5pkDX05zBVzYCQVvZ
A0GTnJHBYBvjQCHm90BGLYvBjor7QK9EDEFA0ZvBirGvQBS4BEE3M5nBK8ybQNlBVL8GGqDB6MvI
QF24Kj9NrKrBU5+4QB/s+EDK8I7BmefQQA31DEFPvJ/BJf6kQN+M7T61AKTBsSnaQCay2r+ujanB
GnS2QCMD9r9o06LBFlPjQPOo1L7Wb63BgF6zQDSM6T+7QY/BGtOwQMg4ikBveITBCyajQMiaJkAx
MZnBCGafQI4inEAEJo/BjJWGQFDDc0BCt5XBJNz0QIqnYsCYk4/BLxjtQON2IEEukLDBztKiQApW
J0Gq8KnBY7u1QGaWA0HKKbLBBLGJQCqw0j/ToKDBYLKUQH4W50DxHIjBz5zIQFEqh8AA4I7BJs+k
QB/LWMAxJJTB0BDGQNj3FUHV7qrBgrT0QDVmMcBeS6zBhGyBQE5owEAfFY3BCbb2QMhRWUDjwo3B
eOXaQIIgD0DH6HnB/9lrQMCjjkBJBZ/BqjCtQHOMTcBHfJ/Bb+ECQSnSUr5dyrPBmODSQArWOkDi
J4fB1XwSQX51A0ESt47Bvg/qQPb76kCJWoPBj7AKQfBBEkE+tqDBUyiPQHXEBEECHZzB506AQExH
fL9IBJvBFt3PQJDr0z+Xqq3BXeGXQBKguj+cm4rBFgLHQGu1eD9N25HBFTHDQHw7o0DgUIDB0vKV
QLLuf0A1zH7BVvC+QIFpP0BFnZ3BLIO6QFmTp0AN+pPB3nRYQBwsW0AiwpDBJoQGQVq6hcAht4vB
nHD9QOcEWcCVBpjBw5/zQAtbJMBhfYvBWVLjQGGHJkFqdLjB0wT5QK/MLUGFp6vB10sDQWt/FEHe
kLHBpjebQOiyLUHo67HBtuWFQOM7IEFQZqbBOlyuQIlkNEHDyqTBgvytQGnwCUF0I7rBQLrOQGuQ
7kAf5bLBPeCYQGTz+ECZl67Bw/x+QJSoDEAnzafBqa9aQEBpoz9CVJzBW4ShQMuI3kCMM4DBUZl3
QD2y/0ACMYfB/WPKQOFapsAR7pLBJZPAQPMFjMDeZIbB5AWGQFHqecBpHJPBBFGjQBGnGcB2RJDB
FhYGQTl0HMC/D7HBoq4AQUuoSsD0qKXBazFpQBcdyUC8FJTBMxRJQIcepkCX65zB56ADQW6YAkGR
7ZHB3LflQLYp9kCHcYvBx4/+QJYDC0FzJZzBtHCyQGBfBEG6aJnBC8OaQCJ2YL+HnJ/BliPCQNjj
MT+j2qrBBzC7QN4R+ECvKI/BPeTTQDMaDEEqBaDB7D2gQHXN2z67tKPBkNbYQNE40b9126nB5lu3
QBvy878kqKLB3HneQAJxqb4l363BPYCvQGfy5D9HvY7BwXuwQIg0ikDze4TBrCGfQAIdI0CMvZjB
q8ieQNiom0AZL4/BkjmEQA4Pc0DxZ5XBuStiQNfPgcAG35DBZ7HwQBqEHkGJGLHBt2WnQAMRJ0Fd
RarB6v22QNq6AkFQSLLB0WSEQFyuyT+4zJ/BeuqWQGpM50DfRYjBSoOgQEL8i8DQho7BpZ+9QP5t
U8ARZpPBRS/JQLD9FEHjP6vBAez0QDyaKcCtyKzBHUGCQJYpwUBCMI3BxZX0QMCwUkDs5Y3BI9XY
QBYHDkDxcHnBvWJnQLzbjUBWyJ7BBWSzQFZgS8ABoJ7BQan/QIiXVr2Qc7TB6sbQQEINOECsB4fB
/ukTQVboAUFLD4/BXYrsQAMr6UANn4PBd0cMQUKxEEGuFKHB29SRQDzgBEGTQpzBFMyAQD9qi78X
K5rBflnGQKxu2D9VBq7BMxiUQKtTuz893onBQxHCQJi9aD9hRJHB7QPEQMT7okAYlYDBqbGVQDtj
gUDwb37B1Oe6QH4KOUB8Zp3B8tm5QMunpUBqOZTB8J1TQGKIXUD5P5DB0GA5QJy6msAHUY3BPaZR
QO0XRcA9ZY3BiORXQGvmgMDskpnByvXmQJGIJEHc/7jB9Pb9QAC/K0GSVazBr5IEQZsDEkG2F7LB
1d2fQMhYLUHrRbLBBCGKQKikIEHIlabB8Tq0QK0HNEHwQaXBelSvQPP8CEH9R7rBB/DOQKLR60Bp
/7LB5siZQIeh+EACkK7BiT9vQL3iB0Bru6bBN3dTQET3lT+WDJvB1LOjQGJh3kAOYoDB+J19QClU
AEG0T4fBmnqlQO7zjMBo0YXBv5moQGJOq8AX/5HBWEO4QEzgFcD5V4/B0k/fQJ9xZsCmeJLBlk8F
QZKVEsBP6bHBqeABQS70P8DkRKbBrKFrQCgnykBXNZTBW6FGQC0upkDcxpzB/hMCQXLJAkEPbpLB
QVLjQAbw9kB8sIvBDIz6QHpPCkGXw5zBsOquQPnlAkEqr5nBAN2ZQGCzKr8pHaLBgH3NQMY/TD9c
1qrBjpq4QOlH90DNRY/BuKfPQLKlCkFbhKDBwtmmQFnUHT+gJqXBPD7bQBLDzL82x6nB7omzQFSZ
4r+si6TBZcHnQNyEn76YIq3BpXy0QPdC5z/VwI/BimSxQJ5siEB2P4TBMAWlQOrkKUCxcZnBtTKg
QFJJm0Aw147Bx6WHQN7Wc0A4mZXB39W6QD6Sm8ADn4fBk4fqQBJqHUEarLHBVAqgQPe8I0HMGqvB
Xqa0QDln/0DdvbLBOmCMQHtb5T9CqKHBom6VQAtG5kDQFojBVMmgQDerjMDDSZHB5Ce5QH7RUMCC
k5bBUCPEQMnBEkHY16vBUUf2QO0FLMAmaKvBPfWBQMoev0A4q4zBDhP4QOrVVkAMVo3BzlXaQP3l
CECoCnrBUFBsQDipj0DPrJ7Bg+2mQBoRP8Csz6DBGZkGQfvrB755Y7LBWnLTQEUuN0AmGYfBDnQS
QdWjAkH9q4/B6tPqQMts60AQw4PBTAQKQfbhD0Ew5KHBsTiOQDaMAkF5epzBwQ94QB0bTr8K5Z3B
IuXWQBSP5D/ja63Bl6+YQCyotD8eYYvBElnIQO+aeD9TmZLBP8TDQH0JoUAF5n/BoWKWQDa7e0DY
hH7BpzDBQMW5RUBeaZ3BDGa7QGFCp0BvjpPBmZ9bQNqZWEC2r5DBO/SpQBPxtcC1mYPBw3PaQPe0
psCVTorBeti+QM3GgMDJAILBK1vgQE7TIkGEprnBUcL1QHg4K0Hv/azBelUCQTy+EUECgLLB8/qX
QNByKUFZLrPB3oqDQBuGHEFHaKfBKwCrQH5IMUH2MqbBTG2sQHVqBUGczrrBkEXOQCVf50CeTbPB
ez6YQDLp8EAFBK/BO5eEQLcZGkABr6jBKz9dQEmotj9Y+J3BmQajQMKt3kBtMoDBMRt5QE/r/kAE
M4fBrcScQIpCp8BK95bBZSmBQGBUgcB+qY7B2DK3QPJFF8DNh5HBquDaQG1kY8CQkJfB1V0IQU2c
GMClMq/B2D/+QDuCRcAfWKTB8dZnQGwXx0CCk5PBjlpIQAtLpkAqUpzB

>  <OMEGA_E>  (27) 
UNiOPugSlj6gro4+RAibPkyxrj4=

>  <OMEGA_NBR>  (27) 
    122872

$$$$
50216996
     RDKit          3D

 72 75  0  0  1  0  0  0  0  0999 V2000
    8.1608    8.1675  -18.2644 C   0  0  0  0  0  0  0  0  0  0  0  0
    7.1248    7.7056  -17.4354 C   0  0  0  0  0  0  0  0  0  0  0  0
    7.8736    8.6564  -19.5528 C   0  0  0  0  0  0  0  0  0  0  0  0
    5.5037    8.2121  -19.1875 C   0  0  0  0  0  0  0  0  0  0  0  0
    4.8164   -0.7380  -20.1400 C   0  0  0  0  0  0  0  0  0  0  0  0
    6.2993    0.7631  -21.3578 C   0  0  0  0  0  0  0  0  0  0  0  0
    5.7929    7.7344  -17.8925 C   0  0  0  0  0  0  0  0  0  0  0  0
    6.5366    8.6944  -20.0303 C   0  0  0  0  0  0  0  0  0  0  0  0
    5.1417    0.5536  -20.5771 C   0  0  0  0  0  0  0  0  0  0  0  0
    6.8372   -1.6115  -21.1974 C   0  0  0  0  0  0  0  0  0  0  0  0
    5.6556   -1.8189  -20.4583 C   0  0  0  0  0  0  0  0  0  0  0  0
    7.1490   -0.3181  -21.6645 C   0  0  0  0  0  0  0  0  0  0  0  0
    5.7359   -4.6114  -17.1006 C   0  0  0  0  0  0  0  0  0  0  0  0
    4.6402   -4.5433  -18.1751 C   0  0  0  0  0  0  0  0  0  0  0  0
    6.6382   -3.9004  -18.1186 C   0  0  0  0  0  0  0  0  0  0  0  0
    5.5909    1.8043  -17.9301 C   0  0  0  0  0  0  0  0  0  0  0  0
    5.5470    4.2880  -16.5493 C   0  0  0  0  0  0  0  0  0  0  0  0
    5.0894    2.6195  -19.1548 C   0  0  2  0  0  0  0  0  0  0  0  0
    4.9899    4.8594  -17.8739 C   0  0  1  0  0  0  0  0  0  0  0  0
    5.3383   -3.2653  -18.6458 C   0  0  0  0  0  0  0  0  0  0  0  0
    4.1990    3.8060  -18.6910 C   0  0  1  0  0  0  0  0  0  0  0  0
    7.3992    9.8622  -22.1703 C   0  0  0  0  0  0  0  0  0  0  0  0
    5.0793   10.2973  -21.3419 C   0  0  0  0  0  0  0  0  0  0  0  0
    5.6792    8.0406  -22.3130 C   0  0  0  0  0  0  0  0  0  0  0  0
    4.2939    1.7171  -20.1308 C   0  0  0  0  0  0  0  0  0  0  0  0
    4.6788    7.2043  -17.0120 C   0  0  0  0  0  0  0  0  0  0  0  0
    6.1875    9.2164  -21.4432 C   0  0  0  0  0  0  0  0  0  0  0  0
    7.6982   -2.6761  -21.4479 N   0  0  0  0  0  0  0  0  0  0  0  0
    4.0596    5.9926  -17.6030 N   0  0  0  0  0  0  0  0  0  0  0  0
    7.7173    3.3478  -17.7276 O   0  0  0  0  0  0  0  0  0  0  0  0
    6.8421    2.1793  -15.6355 O   0  0  0  0  0  0  0  0  0  0  0  0
    3.6581    4.4689  -19.8372 O   0  0  0  0  0  0  0  0  0  0  0  0
    5.3050   -3.0780  -20.0641 O   0  0  0  0  0  0  0  0  0  0  0  0
    8.2669   -0.1073  -22.3973 F   0  0  0  0  0  0  0  0  0  0  0  0
    6.5940    2.8764  -16.9036 S   0  0  0  0  0  0  0  0  0  0  0  0
    9.1814    8.1473  -17.9119 H   0  0  0  0  0  0  0  0  0  0  0  0
    7.3496    7.3289  -16.4485 H   0  0  0  0  0  0  0  0  0  0  0  0
    8.6773    9.0059  -20.1840 H   0  0  0  0  0  0  0  0  0  0  0  0
    4.4833    8.2106  -19.5413 H   0  0  0  0  0  0  0  0  0  0  0  0
    3.9211   -0.9020  -19.5587 H   0  0  0  0  0  0  0  0  0  0  0  0
    6.5337    1.7531  -21.7203 H   0  0  0  0  0  0  0  0  0  0  0  0
    5.5253   -4.0364  -16.1868 H   0  0  0  0  0  0  0  0  0  0  0  0
    6.0556   -5.6281  -16.8285 H   0  0  0  0  0  0  0  0  0  0  0  0
    4.6469   -5.3710  -18.8995 H   0  0  0  0  0  0  0  0  0  0  0  0
    3.6195   -4.4011  -17.7903 H   0  0  0  0  0  0  0  0  0  0  0  0
    7.3611   -3.1927  -17.6866 H   0  0  0  0  0  0  0  0  0  0  0  0
    7.1540   -4.5642  -18.8280 H   0  0  0  0  0  0  0  0  0  0  0  0
    4.7303    1.4365  -17.3520 H   0  0  0  0  0  0  0  0  0  0  0  0
    6.1932    0.9507  -18.2743 H   0  0  0  0  0  0  0  0  0  0  0  0
    6.1357    5.0616  -16.0346 H   0  0  0  0  0  0  0  0  0  0  0  0
    4.7123    3.9734  -15.9055 H   0  0  0  0  0  0  0  0  0  0  0  0
    5.9632    3.0252  -19.6858 H   0  0  0  0  0  0  0  0  0  0  0  0
    5.8322    5.2169  -18.4844 H   0  0  0  0  0  0  0  0  0  0  0  0
    5.0372   -2.3806  -18.0656 H   0  0  0  0  0  0  0  0  0  0  0  0
    3.3879    3.4103  -18.0621 H   0  0  0  0  0  0  0  0  0  0  0  0
    7.0866   10.2118  -23.1653 H   0  0  0  0  0  0  0  0  0  0  0  0
    7.7680   10.7150  -21.5814 H   0  0  0  0  0  0  0  0  0  0  0  0
    8.2012    9.1173  -22.2787 H   0  0  0  0  0  0  0  0  0  0  0  0
    4.8333   10.6665  -22.3485 H   0  0  0  0  0  0  0  0  0  0  0  0
    4.1809    9.8593  -20.8825 H   0  0  0  0  0  0  0  0  0  0  0  0
    5.4377   11.1327  -20.7225 H   0  0  0  0  0  0  0  0  0  0  0  0
    5.4300    8.4091  -23.3191 H   0  0  0  0  0  0  0  0  0  0  0  0
    6.4643    7.2737  -22.3876 H   0  0  0  0  0  0  0  0  0  0  0  0
    4.7822    7.6034  -21.8502 H   0  0  0  0  0  0  0  0  0  0  0  0
    3.9965    2.3075  -21.0100 H   0  0  0  0  0  0  0  0  0  0  0  0
    3.3951    1.3374  -19.6230 H   0  0  0  0  0  0  0  0  0  0  0  0
    5.0914    6.9512  -16.0243 H   0  0  0  0  0  0  0  0  0  0  0  0
    3.9092    7.9822  -16.8995 H   0  0  0  0  0  0  0  0  0  0  0  0
    8.4807   -2.3543  -21.9810 H   0  0  0  0  0  0  0  0  0  0  0  0
    8.0195   -3.0561  -20.5805 H   0  0  0  0  0  0  0  0  0  0  0  0
    3.6350    6.2557  -18.4694 H   0  0  0  0  0  0  0  0  0  0  0  0
    3.1134    5.1947  -19.5560 H   0  0  0  0  0  0  0  0  0  0  0  0
  1  2  2  0
  1  3  1  0
  2  7  1  0
  3  8  2  0
  4  7  2  0
  4  8  1  0
  5  9  2  0
  5 11  1  0
  6  9  1  0
  6 12  2  0
  7 26  1  0
  8 27  1  0
  9 25  1  0
 10 11  2  0
 10 12  1  0
 10 28  1  0
 11 33  1  0
 12 34  1  0
 13 14  1  0
 13 15  1  0
 14 20  1  0
 15 20  1  0
 16 18  1  0
 16 35  1  0
 17 19  1  0
 17 35  1  0
 18 21  1  0
 18 25  1  0
 19 21  1  0
 19 29  1  0
 20 33  1  0
 21 32  1  0
 22 27  1  0
 23 27  1  0
 24 27  1  0
 26 29  1  0
 30 35  2  0
 31 35  2  0
  1 36  1  0
  2 37  1  0
  3 38  1  0
  4 39  1  0
  5 40  1  0
  6 41  1  0
 13 42  1  0
 13 43  1  0
 14 44  1  0
 14 45  1  0
 15 46  1  0
 15 47  1  0
 16 48  1  0
 16 49  1  0
 17 50  1  0
 17 51  1  0
 18 52  1  6
 19 53  1  6
 20 54  1  0
 21 55  1  1
 22 56  1  0
 22 57  1  0
 22 58  1  0
 23 59  1  0
 23 60  1  0
 23 61  1  0
 24 62  1  0
 24 63  1  0
 24 64  1  0
 25 65  1  0
 25 66  1  0
 26 67  1  0
 26 68  1  0
 28 69  1  0
 28 70  1  0
 29 71  1  0
 32 72  1  0
M  END
>  <OMEGA_C>  (28) 
gpICQfWtAkGXHZLBuP7jQEWU9kCle4vB7PT7QM6ACkE2bJzBRh6wQNdkA0ECgJnB5h+aQFjqPL+w
HqHBP5TJQIFcQz/U3KrBil+5QOx/90DNI4/B2ivRQBAcC0H9PaDBD4mkQD62DT/ynaTBjMraQFVE
zr8xlKnBUPq0QCjS6L+kqqPB/sTkQO3for7jUK3BZYy3QImQk8D2zYjBM3yUQHlikcCIZpHBIWzU
QCKgecDM8pDBXeiyQDvz5j/IcI/Bp4CxQPQ2iUDoZITBrtyiQHCmJ0D5PJnBCa2fQGWAm0C4/Y7B
NdOqQH36UMCsKpXBmF6GQAiWc0A7h5XBG8bsQMXLHUHAXLHBpImiQL3BJEFHvKrBRry1QGSmAEEO
gbLB7meJQKfK2z/wC6HBn7iVQN+J5kCfGIjBEQDGQDh2E0HEi6vBjVf2QMZFK8BRlavBWuiBQKjD
v0AD04zBfvT2QJVBVkAM0o3BVPLaQAB5C0DxKnrBUB5qQGIBj0CBsp7Bb8KpQDH+RMAtg6DBDUUE
Qcy/2729LbPBJwLTQB4XOECqOofBCOcSQUNbAkGPS4/B4i/rQPSF6kB/loPBaNYKQU4YEEHFeKHB
OnePQIleA0GpVJzBnvJ6QKvqZr9IeJzBPhTRQL9m4D8Xw63BZs+wQO8pgcCGfoHBmsfBQJUZtMC2
oIbBtLOUQPLeq8BGMpfB0qVnQMzVjMCSUo7BEo7rQExVTMAgfo3Bte3kQL4NksDEn5bB2F6XQKTd
tz/l0IrBzC7GQD1fcz/IMZLBRFfEQLb4oUDWRoDBgMuWQFlMfkDOfH7BmdK+QBudQUBxfJ3BDqG6
QP/wpkAW4JPB8jChQPpbGMBHhpDBD9RYQOJCWkA3f5DBq8XiQGxjI0GiUrnBL5P4QK1wK0GxpqzB
PTgDQWngEUHGOrLBv6qaQOSpKkHDybLBM8qFQJK/HUFkD6fBbAGuQKEfMkHGx6XB3cKtQIOLBkF3
jbrBWdvOQELC6EC6GbPBEwiZQKVO80A6za7B88V/QFKuE0B7FKjB0ElZQMQuqz/S+5zB5+yiQFJw
3kCxMYDBvzB6QGRu/0A+MofB3rAHQXatFsAF2a/B5E8AQa6WQ8DcpKTBVqRoQKguyEBBwZPBkUFH
QOY6pkDBcpzBuZcCQRa2AkEwNZLBkRLkQLxv9kCPmIvBGPD7QBS6CkHXeJzBBBuwQKOMA0H/j5nB
JjeaQAO5PL/qGqHBAnPJQLemQj+g9KrBa2y5QBd+90ARO4/B2iLRQJRlC0FzR6DBZnqkQL1xDT/B
raTBs8XaQC9wzr92manBeSW1QKSp6L+gm6PB7qTkQCZ8pL4uZa3BWQ25QCOXk8AZsIjB2HCVQAHR
kMBMHpHBaY7VQMvUeMCD1pDBAuWyQPI25j8deo/BomuxQLoAiUCFYoTBouOiQAF4J0CGQ5nBqref
QMNbm0Bq/I7B39CrQBsfUMCq95TBY2eGQABfc0C4iJXBS4u1QHBGAUEVkbLBHtjsQMRHHkEgVLHB
d7GiQDNUJUHlr6rBu2yJQKfX2z/pGaHBd9SVQNOG5kCNKYjBsPrFQGj0E0EqjKvBD0j2QFpmK8Br
nKvB5PuBQA2sv0CX1ozBo/f2QGO9VUCmw43Bu6jaQG3CCkBuJXrBByVqQMjyjkAmsZ7BgDeqQG6+
RMCyU6DB7jUEQa4s5L0fQrPBw+bSQL+QN0D1NofBx+4SQdlRAkFjZ4/B6E/rQHwc6kDGuoPBdNAK
QQRsEEFBgKHBInKPQL+LA0FVY5zBwz17QKtiZr9AbpzBfOPQQC/n3z+Y463BMdKyQI+hgcAPSIHB
GFHDQGxJtMCfrYbBtfSUQFUzq8A38ZbBXyFqQBQAjMCX4Y3B+K/sQNWWS8ANX43BlADmQG1nkcAz
lZbBMFWXQGLDtj9X4IrBTTnGQL9dcj9BPpLBd0HEQCa3oUD7P4DB/KaWQFLnfUAygX7BZd6+QPh9
QUCIf53BJbu6QGG/pkBW25PBrHGiQMU/F8ATV5DBoutYQEz6WUAfgZDBUJKtQMZMB0Fcl7rBsZLO
QJzv6UAcN7PB+86YQFCO9EBM4a7BZOHiQOkGJEG6Q7nB78z4QCjRK0GPkKzB6jADQexOEkGUP7LB
tOSaQIRaK0HkuLLBoN6FQF1ZHkEKCafBV0quQBSbMkHIsKXBiQGAQGjcE0BKIajBKzRZQDVlqz/L
Dp3BmByjQMOJ3kDkQoDBBV56QARn/0CcRIfB3pcHQYvzFsB376/BqWMAQW9qQ8DurKTBOatoQOz5
x0AOxZPBYEtHQBUppkCVbpzBlqUBQVmYBEHi8JDBfpbhQBnc+EDdt4rBnSv7QL36DEEIMpvBhUyv
QAP3BEFIB5nBn1adQJg1X78fUZ/BoTrIQLtKJD9/R6rB+Xe3QKFn+UDnu47BcurQQMJdDUHPX5/B
shKlQCC51z5hcqPBMVjaQLU83b/dc6nBYCq4QMqo+b+qKqLB3OHiQCN92r5FO63BzvP1QPETdcAe
CIrBdd35QOcIVMCagZXBB5rFQNCdZMC6S4vB8sSzQOel6j8b/Y7BXrSwQA4Gi0Dni4TBvSujQLxF
JUByBJnBjj+fQJVUnEDYSI/BzQLMQP82ecBvPJfBqL2GQKpBc0BByJXBB3a3QFCnA0G96rHBOz3u
QILDIEFTHbDBhU+jQLFpJ0Gj5qnBq1eJQOH7yz9bGKDB6CCTQFT+5kAyKIjB4ejGQLcvFkFOqKrB
6YzzQL4jMsCQDa3BLMaAQMlJwEBNU43BJML2QDXMWkDqvY3BczDbQJdFEkAUk3nBulVtQKnLjUA5
PJ/Br/WtQDMmTsAngp7BJkUCQaz1Sr6HzLPBiw3TQF+yPEDZEIfBN8cRQQ9wBEEv2I3BEvfnQMXo
60A33oLBz6YKQRAsE0EX7Z/BwQWPQBrkBEHkHZzB/MKCQNKZhL+z85nBKbLOQN9T0T8iQa3BI+3+
QOdGnMAW6IjBPfoCQZ2VTcCW8YPBvFT8QE0SDsAwRJbBCJEJQVaLcsAbTZrBOtiwQNHSiMDp9IbB
1WW7QI6gIsBemInBKXGYQDMivD/NQ4rBCZnHQK3Iej+EfJHBWt7CQBNapED6dIDBztiVQHTWgECK
637Bk8G+QP/SPECKn53BrUa6QE7ip0BJIJTBSEHNQNVbn8AJmpjBjRdYQOGhW0Bk3ZDBeFCwQMDg
CUG287nBLbDQQD7c7kCgebLB5GeaQIv2+ECxeq7BkAvlQNyuJkGoE7jB54f5QDQ2LkFxMKvBvAAE
QR7jFEHM8LDBrkWcQPOmLUFm8LHBTzaGQLo6IEEBfqbBszGuQIKTNEFgu6TBf/V7QDeqB0A9SKfB
c3lbQEEYnD9Rh5vB2EmfQGtO3kCBMIDB0MVzQMdN/0AbVYfBcOUEQYnqG8DXFrLBOOoAQek7TsBq
0KbBHyNpQLsdyUA0YpTBJrFKQOGLpUBhTJ3BrqgBQVZ1BEE4B5HBX6zhQKmW+ECyyIrBEBD7QEvq
DEH2QpvBWDCvQAz5BEEFCJnBUcqdQEFZWb9haJ/Bi/DIQNXDJT/OdKrBuXy3QLZK+UBdwY7BM7vQ
QJtlDUHjZJ/B06+lQF414D4Fo6PBOIHaQLcI3b+vhanBG3y4QNac9780J6LB4FHjQK7f277OXa3B
dCX4QAHecsBXJIrB+fT6QFgqUcCFl5XBQoXHQAuCZcAoNYvBjuqzQJFh6j9cHo/B8G+wQI6nikDh
hITBHJ+jQOblJUA0IJnBYUifQKU5nEAUQ4/BilrNQHvYd8DmOZfB/O+GQPRSc0CV1ZXBeNLtQPD3
IEFFGrDBj62iQHpFJ0Eo96nBMqG3QMeVA0HY8LHBChaKQIK5zj/dW6DBxDWTQKbj5kA5J4jBXKDG
QB00FkFwrarBRV/zQFGJMsDzHq3Ba8+AQJAtwEAyTo3BN9T2QAuRWkDXm43B2aPaQMv5EEBflXnB
WnFtQHv+jUAnQJ/BIFeuQLZ0TMBOO57B/4QCQazpWb688LPBU+DSQPwPPEDBC4fBqNARQYw+BEEO
943B/CXoQLOE60CB84LBbJMKQZMXE0E0A6DBnd6OQE3uBEF4F5zByiiDQL9igL9jCprB0bDPQE60
0T+wc63BPSABQS3kmsCdGInBPO0DQfugSsAGFYTBBbz8QK4UC8CYS5bBRxwKQfN0bsBegZrBEs6z
QPREisCG5YbBi1i8QGWAJMD6TonBr3KYQFL7uj8je4rBtN7HQLJCez/Vo5HByHrCQFbio0C/W4DB
z2+VQCFXgEAq/n7B8VW/QGgTPkCqoZ3B0XO6QDbXp0BaC5TBeR/PQFODnsDGy5jBgqFYQKwVW0Bj
8JDB6ZnkQK7fJkHGELjBa9X4QOlyLkHnKKvBkuYDQe00FUFD7LDBFaibQJx2LUGAA7LBsKiFQDn1
H0FplabBeTqtQIV+NEGRyqTB/2WwQEjECUG4+rnBKSDRQOr/7kDTfLLBBLaaQD2D+ECJg67Bxsl+
QIOICUDNkqfB7RlcQNtpnz9O75vB4XKfQK033kAxMYDB4/JzQA8z/0DhUIfB4sIEQb/ZHMD5N7LB
a+EAQSODTsCy46bBlCRpQED6yEC+XJTBWn5KQC+TpUA3RZ3B

>  <OMEGA_E>  (28) 
vPWXPmgblz5gnp8+JPqfPg==

>  <OMEGA_NBR>  (28) 
    127723

$$$$
50216998
     RDKit          3D

 70 73  0  0  1  0  0  0  0  0999 V2000
    8.1356    8.2670  -18.1934 C   0  0  0  0  0  0  0  0  0  0  0  0
    7.1078    7.7458  -17.3886 C   0  0  0  0  0  0  0  0  0  0  0  0
    7.8403    8.8093  -19.4587 C   0  0  0  0  0  0  0  0  0  0  0  0
    5.4785    8.3081  -19.1153 C   0  0  0  0  0  0  0  0  0  0  0  0
    4.9111   -0.8864  -19.9804 C   0  0  0  0  0  0  0  0  0  0  0  0
    6.2443    0.6317  -21.3478 C   0  0  0  0  0  0  0  0  0  0  0  0
    5.7755    7.7705  -17.8465 C   0  0  0  0  0  0  0  0  0  0  0  0
    6.5029    8.8426  -19.9357 C   0  0  0  0  0  0  0  0  0  0  0  0
    5.1557    0.4108  -20.4797 C   0  0  0  0  0  0  0  0  0  0  0  0
    6.8593   -1.7281  -21.1927 C   0  0  0  0  0  0  0  0  0  0  0  0
    5.7546   -1.9593  -20.3354 C   0  0  0  0  0  0  0  0  0  0  0  0
    7.0954   -0.4314  -21.7010 C   0  0  0  0  0  0  0  0  0  0  0  0
    7.4120   -3.2526  -18.2726 C   0  0  0  0  0  0  0  0  0  0  0  0
    5.6264   -4.0499  -17.5897 C   0  0  0  0  0  0  0  0  0  0  0  0
    5.6369    1.7979  -17.9054 C   0  0  0  0  0  0  0  0  0  0  0  0
    5.5783    4.3034  -16.5819 C   0  0  0  0  0  0  0  0  0  0  0  0
    5.1019    2.5587  -19.1457 C   0  0  2  0  0  0  0  0  0  0  0  0
    5.0067    4.8538  -17.9093 C   0  0  1  0  0  0  0  0  0  0  0  0
    6.2251   -3.9829  -19.0436 C   0  0  0  0  0  0  0  0  0  0  0  0
    4.2194    3.7730  -18.7101 C   0  0  1  0  0  0  0  0  0  0  0  0
    7.3531   10.0686  -22.0476 C   0  0  0  0  0  0  0  0  0  0  0  0
    5.0528   10.5118  -21.1686 C   0  0  0  0  0  0  0  0  0  0  0  0
    5.6027    8.2806  -22.2264 C   0  0  0  0  0  0  0  0  0  0  0  0
    4.2904    1.5793  -20.0396 C   0  0  0  0  0  0  0  0  0  0  0  0
    4.6649    7.1862  -16.9961 C   0  0  0  0  0  0  0  0  0  0  0  0
    6.1420    9.4184  -21.3243 C   0  0  0  0  0  0  0  0  0  0  0  0
    7.7017   -2.7734  -21.5576 N   0  0  0  0  0  0  0  0  0  0  0  0
    4.0681    5.9830  -17.6364 N   0  0  0  0  0  0  0  0  0  0  0  0
    7.7391    3.3767  -17.7802 O   0  0  0  0  0  0  0  0  0  0  0  0
    6.9170    2.2356  -15.6499 O   0  0  0  0  0  0  0  0  0  0  0  0
    6.7150   -3.3543  -17.0755 O   0  0  0  0  0  0  0  0  0  0  0  0
    3.6832    4.4099  -19.8725 O   0  0  0  0  0  0  0  0  0  0  0  0
    5.3765   -3.2361  -19.9669 O   0  0  0  0  0  0  0  0  0  0  0  0
    8.1351   -0.2007  -22.5369 F   0  0  0  0  0  0  0  0  0  0  0  0
    6.6386    2.9050  -16.9264 S   0  0  0  0  0  0  0  0  0  0  0  0
    9.1560    8.2513  -17.8398 H   0  0  0  0  0  0  0  0  0  0  0  0
    7.3391    7.3268  -16.4203 H   0  0  0  0  0  0  0  0  0  0  0  0
    8.6374    9.2034  -20.0717 H   0  0  0  0  0  0  0  0  0  0  0  0
    4.4573    8.3126  -19.4667 H   0  0  0  0  0  0  0  0  0  0  0  0
    4.0725   -1.0585  -19.3219 H   0  0  0  0  0  0  0  0  0  0  0  0
    6.4255    1.6203  -21.7431 H   0  0  0  0  0  0  0  0  0  0  0  0
    8.3615   -3.8078  -18.2853 H   0  0  0  0  0  0  0  0  0  0  0  0
    7.5880   -2.2176  -18.6007 H   0  0  0  0  0  0  0  0  0  0  0  0
    4.6686   -3.5203  -17.4791 H   0  0  0  0  0  0  0  0  0  0  0  0
    5.5273   -5.0726  -17.1970 H   0  0  0  0  0  0  0  0  0  0  0  0
    4.7911    1.4362  -17.3023 H   0  0  0  0  0  0  0  0  0  0  0  0
    6.2461    0.9425  -18.2328 H   0  0  0  0  0  0  0  0  0  0  0  0
    6.1599    5.0899  -16.0787 H   0  0  0  0  0  0  0  0  0  0  0  0
    4.7512    3.9852  -15.9301 H   0  0  0  0  0  0  0  0  0  0  0  0
    5.9576    2.9370  -19.7244 H   0  0  0  0  0  0  0  0  0  0  0  0
    5.8402    5.2128  -18.5310 H   0  0  0  0  0  0  0  0  0  0  0  0
    6.5258   -4.9739  -19.4145 H   0  0  0  0  0  0  0  0  0  0  0  0
    3.4036    3.3970  -18.0752 H   0  0  0  0  0  0  0  0  0  0  0  0
    7.0316   10.4571  -23.0252 H   0  0  0  0  0  0  0  0  0  0  0  0
    7.7451   10.8946  -21.4359 H   0  0  0  0  0  0  0  0  0  0  0  0
    8.1407    9.3148  -22.1938 H   0  0  0  0  0  0  0  0  0  0  0  0
    4.7980   10.9197  -22.1579 H   0  0  0  0  0  0  0  0  0  0  0  0
    4.1545   10.0717  -20.7111 H   0  0  0  0  0  0  0  0  0  0  0  0
    5.4334   11.3194  -20.5261 H   0  0  0  0  0  0  0  0  0  0  0  0
    5.3449    8.6871  -23.2155 H   0  0  0  0  0  0  0  0  0  0  0  0
    6.3744    7.5049  -22.3388 H   0  0  0  0  0  0  0  0  0  0  0  0
    4.7056    7.8414  -21.7655 H   0  0  0  0  0  0  0  0  0  0  0  0
    3.9299    2.1167  -20.9291 H   0  0  0  0  0  0  0  0  0  0  0  0
    3.4312    1.1973  -19.4687 H   0  0  0  0  0  0  0  0  0  0  0  0
    5.0756    6.9035  -16.0156 H   0  0  0  0  0  0  0  0  0  0  0  0
    3.8808    7.9455  -16.8601 H   0  0  0  0  0  0  0  0  0  0  0  0
    8.4202   -2.4280  -22.1613 H   0  0  0  0  0  0  0  0  0  0  0  0
    8.1166   -3.1686  -20.7380 H   0  0  0  0  0  0  0  0  0  0  0  0
    3.6688    6.2666  -18.5083 H   0  0  0  0  0  0  0  0  0  0  0  0
    3.1463    5.1484  -19.6102 H   0  0  0  0  0  0  0  0  0  0  0  0
  1  2  2  0
  1  3  1  0
  2  7  1  0
  3  8  2  0
  4  7  2  0
  4  8  1  0
  5  9  2  0
  5 11  1  0
  6  9  1  0
  6 12  2  0
  7 25  1  0
  8 26  1  0
  9 24  1  0
 10 11  2  0
 10 12  1  0
 10 27  1  0
 11 33  1  0
 12 34  1  0
 13 19  1  0
 13 31  1  0
 14 19  1  0
 14 31  1  0
 15 17  1  0
 15 35  1  0
 16 18  1  0
 16 35  1  0
 17 20  1  0
 17 24  1  0
 18 20  1  0
 18 28  1  0
 19 33  1  0
 20 32  1  0
 21 26  1  0
 22 26  1  0
 23 26  1  0
 25 28  1  0
 29 35  2  0
 30 35  2  0
  1 36  1  0
  2 37  1  0
  3 38  1  0
  4 39  1  0
  5 40  1  0
  6 41  1  0
 13 42  1  0
 13 43  1  0
 14 44  1  0
 14 45  1  0
 15 46  1  0
 15 47  1  0
 16 48  1  0
 16 49  1  0
 17 50  1  6
 18 51  1  6
 19 52  1  0
 20 53  1  1
 21 54  1  0
 21 55  1  0
 21 56  1  0
 22 57  1  0
 22 58  1  0
 22 59  1  0
 23 60  1  0
 23 61  1  0
 23 62  1  0
 24 63  1  0
 24 64  1  0
 25 65  1  0
 25 66  1  0
 27 67  1  0
 27 68  1  0
 28 69  1  0
 32 70  1  0
M  END
>  <OMEGA_C>  (29) 
gSsCQXNFBEEmjJHBV3PjQDLd90DEG4vByuP6QAfzDEFlq5vBLlCvQPftBEEq7JjBHiidQEDrYr/G
15/BKtHHQJe4IT9iyKrBlNC4QBSo+ECexY7BsxfQQFx7DUFefJ/BNfukQKJO0j581qPBf3/bQPsy
3b+8iqnBYCW4QEDJ+r/krqLBnw3jQIbi3L6sm63B8i7tQEIrUMAyLpLBYQu0QJOYgcC1t4zBlWG0
QHgh5j9SPo/BC4GyQK21iUCwp4TBHkOjQMrBI0B+KpnB6zagQABSm0BYRo/BZzTHQHPofsBZWZjB
aAWHQDd4cUBUrpXBZkzrQCsZIUF7YbDBurChQD8wKEFgWanBCEmzQFR9BEGxz7HB0EqJQH8lyj8H
UaDB2UaVQBX15UAT+IfBVIvEQMexFkEdmKrBtXT2QPN/McDpdazBLC6CQK90v0BpF43Bp6b3QBAb
WEDsPY7BTFjdQJQUD0AbZnrB9eDWQF+sVsC3mojBG7prQIgdjUDg+p7BBwysQLocT8ApvJ/BeikC
QduNTb6FS7TBlG/UQEvrOUBUaYfB5X4SQVMFBEECuI7BltnqQFp16kDfXIPB3TIKQQ5BE0HFkqDB
KaKOQJwABUG3u5vBJ1KCQJd8h79Zk5rBdp3NQGNnzz/N8a3B1cgFQdmyc8BDSJLBktDyQOnsDcBG
zpTBe2WVQARMYcBD1YvByd+wQK9SosBpk4nBalCZQG3Wtz8ma4rBIeDHQKBGcT+03JHBsR3FQDTg
okAaoYDBIQqYQB0Nf0Dd4X7BUaS+QGz4O0B7y53BkOK6QGXPpkB2P5TBSNPQQIYqn8DWUJvBEdVZ
QBJpWUDqmZDBfALhQG5QJ0GaM7jBy9f3QBxQLkGyfKvBG0ACQTkJFUHgjLHBKYmZQO22LkFxQ7HB
dfGEQNklIUFZsKXBhN6tQHEcNUGANaTBOAmrQH3+CkFTubnBPPvLQMon8EDJtbLBppSWQH7s+kDC
H67BzoN7QFx4B0C6bqfBRZhbQEpBmT/0v5vBmGuiQDfp3EADIIDBNl54QJpB/kBr4YbBKrkGQfpj
G8BTSrHByd0BQRvKSsBo56XBrc1qQMGHyED0EJTBQl1JQKK/pEDD4ZzBaDkCQSb1A0GcgJHBg2nj
QBpX90A+GIvB5jH7QPuoDEGsoZvBpY6vQA6uBEF8+ZjB226dQG+gTr8GLaDBcMHIQJXHJj8qbqvB
vda4QDlF+ECqzI7BunbQQJE9DUGSfp/BH7ClQB6k7z5If6TBlFvbQJiB27+OpanBrwq4QI5J879A
pqLBu3TjQOLj3r54BK7B5oTvQLLKTcC4ZpLBstK5QPcfh8A+DY3Bw1q0QATv5j/0u4/BP3CxQF0T
iUCAr4TBJtWjQOA1JkDwk5nBStefQMBam0C8TY/BXPHJQHAAfMC0w5jBXAaHQL1zckC26ZXBSry0
QBk8BEHo67HBT9XrQLA+IUFOQbDB0LKhQFu2J0GMbqnBpICKQKKZ0z8mJ6HB8R6VQPjj5UAMAIjB
0yHFQHt8FkGunKrBBLb1QF7sMcCWdKzBIdqBQHd7v0BiG43BEn33QDhnWEAOAY7B8ILbQNVmDEA4
rnrBOKXbQF/tX8A6vIjBclhrQAw4jkAcGp/BFYGrQDbrSMBc3J7BcmwCQRYEeb4+v7TBvJjTQCID
OUBofIfBeocSQTSmA0EzpY7BhKbqQPXo6UCYV4PBh2cKQb7yEkGGgaDBLPOOQMazBEFu1pvBJWiC
QNSTcr/K6JrBFinPQGNR0D/ew67BAHkHQXqNbMCUXZPBUl/yQCP7CMBEHpTB0iuaQHvccsAzSovB
KQ66QMs6qcDb34rB0/2YQCDStT+iIIvB9jvIQGtKdj9EcpLBwcPDQKv8oUCWe4DBzaSWQE8VfUDT
Pn/BYn6/QMMSQEC79J3BQ9u6QLIGp0C8IZTB8ejUQBEom8DR3JzBDBdaQGbUWEDG6ZDBlqSsQLjC
CkEB17nBstXNQD8I8ECPyLLB8xSYQDXq+UD0VK7BrLnhQEl4J0G7FrjB5L73QGF/LkH6SavBvrkC
QR5jFUH5YbHB7bmZQApALkH3WrHBDP6EQBVtIEF936XBcj+tQB2tNEEtOqTBtdSAQNCsDUADVKjB
iapbQC3EpD8x+JzBRyKiQGrZ3EBqJIDBM1l4QJRc/kCC8YbB6lIGQcNQHcBLZ7HBOYsBQfl3SsAJ
3qXBKwZqQMaUyECdEpTBVkpIQF9ppUAa4ZzBKQwCQSADBEGVbpHBwZ3iQOwr+EBeDovB8377QD5b
DEH/q5vBjJ+vQKSwBEEZMpnB5kucQNPqRb9e8Z/BXAvIQP7iLj/TKavBQ0K4QK0N+UAL6I7BWvvQ
QO/sDEEMrp/B6q6kQFnK/z40TKTBx7rZQLS517/xlKnB9uG2QNZ07r+AiaLBZ4ziQKJC0L7gyq3B
o0u4QMxjlMACTI7BgsntQLXhXcDLIJHBZzWzQLa+6j8DeY/B2lqwQGRCikCDjYTBRTajQO3rJ0Ag
Y5nBSTifQFtonECcO4/BTHG8QBwoTMDzCZPB9ZOGQLe4dECM4JXBTcK2QDI7A0F0JrLBJE3tQB+D
IEGQebDBop2iQEPoJkHBCarBOruJQFK31z+J86DBTyqUQHgt50BxJojBZV3GQGnGFUGt66rB0e/z
QGK9MMCfMqzBnRuBQHmLwEANLY3B4oX2QKHLWUB4v43BWyfaQFzPDkCPHHrBsprkQLtOmMCewo3B
JxBsQDhTj0DFKp/BmzyvQCTmRcCTD57BW24CQQs+Xb6lOLTBjnfSQMsAO0C6PYfBJkYSQa+zA0Ej
d47ByVrpQP5T60C7NoPBRbkKQQBgEkEJhaDBlS6PQPmqBEGhLJzBqHeBQGu7ab/fnJrBxcnOQHmy
1D9OaK7Be1qoQMaQlcDodIbBt/+oQFtmq8C7v5PBZqcAQSfSWsDhcJjBnUr8QL5ZNcDQ6YrBypyX
QKAHuz9G5YrBAvTGQG0LfD97GZLBRp7CQH8so0CHVYDBb1eVQFDOf0BtFH/B7Ry/QC4HQUAmvZ3B
RXK6QJ38p0AeAJTBT4+vQKJyGsBJtI3BDE9YQD/LW0D795DBqSuvQFN3CUFqKLrBNxTQQEwl7kBK
y7LBrvCZQA/z90Amoq7BdarjQJVxJkHyZrjBnqP4QI34LUE/kKvBsZcDQeG5FEEKZLHBviObQF4r
LUELDLLBw8CFQDehH0EJjqbBtJmtQIcSNEE14qTBXByAQMfZD0AjH6jByw1aQKRbqT8fw5zBp8Gg
QC6U3kD0N4DBaXF2QInC/0ChQ4fBumcFQTJMHcCpPLHBULMAQdL7R8AdjKXBd85oQLxQyUD1LpTB
ZyhJQFy6pkAzDJ3BNn4CQY70AkHp9JHB/dLjQD2X9kAJaIvBv9P7QAYpC0GGMJzBZf6vQOXaA0Ga
XpnBAKGaQJP0P7965aDBvx7JQH5wOz8OIqvBYze5QGy790ABEo/B+xHRQAjWC0FTB6DBYYukQO4f
CT+9saTBOqbaQD+z0b+ajqnB0q61QLoP67/jSqPBHRzkQKJTtb72k63BMKCLQIDQkMBDdZHBw0TL
QMwwgcB67Y7BvxGzQCZj5z9fn4/BunWxQIQkiUDXf4TBVPWiQNe/J0DSapnBoaGfQHiSm0BcFI/B
YPmlQFYFUMBGlpTBVGuGQJC7c0Dgq5XBXvPsQB7RHkGzCbHB5gKjQE0fJkEjT6rBhBm1QGUYAkHi
VbLBy4uJQLQO2z/FNaHB9oiVQP975kBnE4jB5vbFQGGZFEGpQqvBIvn1QEg3LcCGo6vBys6BQPHD
v0Bm3YzBOfT2QLnRVkCw943B/xHbQCRIC0D7iXrBB26wQEA9pMDsg43BTzJqQK41j0Bf0Z7Bem2r
QCSIRsDq8Z/BMJ4DQdF8Ib7TtrPBoBDTQME+OEAKY4fBEdESQe6LAkEtIY/BnP7qQMPy6UBOkYPB
JMYKQQD/EEEUK6HBo1yPQH/kA0EMN5zBkXR8QDDDZ78bIpzBlmvQQKuw2z8bMK7BouVlQND5isDY
WovB3IR6QOmJocBrUZjBofbmQOGJh8BLH5TBVkTWQJwdZcBCaYfBnYyXQPrytz94AYvBDWvGQJ25
dD+WYZLBijrEQIfdoUBwWYDB/cKWQJTVfUAzu37BHt6+QP3LQUCgrZ3ByZO6QFAop0Dg8ZPB/hic
QKANFsAeP5DBlelYQIcyWkDDqJDBff/iQA+3JEFl8rjBrDj5QLY7LEEuPazB7R8DQby8EkFiBLLB
RzqbQCVNLEHeULLBfRqGQMo4H0FIqabBtemuQFNFM0HNRaXBGiqtQD1FCEFtVbrBb+LNQDBb60D2
CrPBakSYQIde9kDAp67BY0KAQNnxEkAjS6jB4klZQN2Uqz8mKJ3Bj7KiQNo43kANLoDBu7F5QOFM
/0BdJofBSTMHQZwxGcD7KLDBaZsAQc98RMCOvKTBxXZoQA9SyEBLyZPB1VhHQE1npkDEi5zBWeMD
QbiAAkHbPpTBlL7pQI/W9ECU4YzBqsv5QGoXDEGH053BasivQCJwBUFXtpjBzC6bQJKLVb8ol5/B
wOnAQMDjHT/wNqzB5qG9QDnJ90CHKY/BUnvNQGkMDkEZE6DBet+fQMWG2j6hsKTB5CjXQJPc2b8Z
A6rBJlO3QM3H87/DK6LBUFLcQH2g477V5q7BGe99QNZaWcCPpY7BefpSQIfiZ8CfTZ7BCmOtQCGr
3j/fko/BZIOuQFJQhkDve4TBZkigQFGAI0BcmZnBrLygQMqKmkBMNo/BZMuWQB27d8BEBpnB5H2G
QOyldUAcU5bB5grIQCnPCEGb57PBlAbWQNbSLUHHeKzBkKaNQChyHUHZmarBnI+FQMn20D+zIKHB
5FCcQCBf5UAFsofB2Fq+QJ9cGEGlmarBbi7zQAgwL8BIjKzBMMCFQGzSwEAD6ozBHqHzQE7VSUCo
GY3BFgHSQHKWAUB4oHnB8mMyQFOeTsBqaJTBXaNzQKyEkUDkvZ/B2JG7QHE1RMBvHJzBNPX8QKls
cb550rXBHJ7NQFyCL0CZ/4bBYMoUQS9ZAUFqi5LBa3D0QCY/5kD+hIXBwoAIQQ0AEkFbgaPBl/mN
QJ83BkFMdprBCTCCQLgBe79bvZnBPizFQECUyj8r7q/BAAB6QPQ7hcBzXIjBgLaLQFC4HcAyOYvB
9YBSQAshNcCuZqTBvvY0QF71kMC1lKHBjnSQQBcTtj8vQIvBzKW/QCJAWj9UEpLBSq7BQAGAnUBw
1H/BRemRQDUPe0B/sn/BF2u9QAqRN0BR2p3B74O9QKtgpECUpJPBrxyeQLxDnsB8p5jBSCVUQPJS
YUDIy5HBL2a9QAb3D0HQfbvBFazqQJ28BUGrQ7TB8vS2QJlN80BclLLByvXKQGcINUEJArTBlD/P
QDLLOEFezaXBkK74QNrhKkF97qzBzbOEQPvBJEFiSbLBn+Z2QACODkH7danBP1WGQPSeKEGfDaTB
+WN3QPoxDUBAOKjBXfxRQB0GpD9X0pzBFAysQH0N2kBpWYDBqeaEQCtf/kD8qoXB4cgDQQKTG8Cp
NLLBL8cBQcouQMDiAqbBWVJzQFM/y0D02JPBFWtUQBthqkBCxJ3B

>  <OMEGA_E>  (29) 
uKB+Pljibz6ck6s+tD+sPkiM1D4=

>  <OMEGA_NBR>  (29) 
    139466

$$$$
