298715
     RDKit          3D

 58 62  0  0  1  0  0  0  0  0999 V2000
    5.2294   -2.2373  -19.8437 C   0  0  0  0  0  0  0  0  0  0  0  0
    6.5074   -1.3075  -21.7431 C   0  0  0  0  0  0  0  0  0  0  0  0
    7.0477   -0.1953  -22.4248 C   0  0  0  0  0  0  0  0  0  0  0  0
    5.3218    0.1736  -20.1939 C   0  0  0  0  0  0  0  0  0  0  0  0
    5.6751   -1.1208  -20.6102 C   0  0  0  0  0  0  0  0  0  0  0  0
    6.7370    1.0957  -21.9750 C   0  0  0  0  0  0  0  0  0  0  0  0
    5.8410    1.2607  -20.9066 C   0  0  0  0  0  0  0  0  0  0  0  0
    6.4315    2.8418  -19.1939 C   0  0  0  0  0  0  0  0  0  0  0  0
    4.2100    3.3032  -18.9290 C   0  0  0  0  0  0  0  0  0  0  0  0
    7.3025    2.4366  -22.3262 C   0  0  0  0  0  0  0  0  0  0  0  0
    5.7241    4.5466  -23.9845 C   0  0  0  0  0  0  0  0  0  0  0  0
    5.1900    3.8400  -22.7354 C   0  0  0  0  0  0  0  0  0  0  0  0
    7.0670    4.7653  -21.3195 C   0  0  0  0  0  0  0  0  0  0  0  0
    7.3208    5.0986  -17.0999 C   0  0  0  0  0  0  0  0  0  0  0  0
    6.2982    5.0889  -15.2786 C   0  0  0  0  0  0  0  0  0  0  0  0
    7.6970    5.4036  -22.5671 C   0  0  1  0  0  0  0  0  0  0  0  0
    5.9012    4.6708  -16.6897 C   0  0  0  0  0  0  0  0  0  0  0  0
    6.6107    5.7501  -23.6122 C   0  0  1  0  0  0  0  0  0  0  0  0
    5.7238    2.7020  -20.5146 C   0  0  1  0  0  0  0  0  0  0  0  0
    6.3237    3.4714  -21.7188 C   0  0  2  0  0  0  0  0  0  0  0  0
    7.2480    6.1063  -15.9476 C   0  0  0  0  0  0  0  0  0  0  0  0
    8.4683    6.6628  -22.1441 C   0  0  0  0  0  0  0  0  0  0  0  0
    5.6008    3.1901  -16.8607 C   0  0  0  0  0  0  0  0  0  0  0  0
    4.8675   -3.1368  -19.1971 N   0  0  0  0  0  0  0  0  0  0  0  0
    5.3981    2.9534  -18.2765 N   0  0  0  0  0  0  0  0  0  0  0  0
    4.3382    3.0807  -20.2097 N   0  0  0  0  0  0  0  0  0  0  0  0
    3.0654    3.8037  -18.3268 N   0  0  0  0  0  0  0  0  0  0  0  0
    7.6193    2.6369  -18.9633 O   0  0  0  0  0  0  0  0  0  0  0  0
    7.2554    6.1932  -24.7971 O   0  0  0  0  0  0  0  0  0  0  0  0
    8.4240    6.2620  -15.2898 F   0  0  0  0  0  0  0  0  0  0  0  0
    6.6578    7.2874  -16.2888 F   0  0  0  0  0  0  0  0  0  0  0  0
    6.7294   -2.3070  -22.0867 H   0  0  0  0  0  0  0  0  0  0  0  0
    7.6911   -0.3370  -23.2806 H   0  0  0  0  0  0  0  0  0  0  0  0
    4.6681    0.3256  -19.3478 H   0  0  0  0  0  0  0  0  0  0  0  0
    8.3061    2.5560  -21.8920 H   0  0  0  0  0  0  0  0  0  0  0  0
    7.3589    2.5558  -23.4182 H   0  0  0  0  0  0  0  0  0  0  0  0
    6.3184    3.8325  -24.5734 H   0  0  0  0  0  0  0  0  0  0  0  0
    4.8742    4.9006  -24.5866 H   0  0  0  0  0  0  0  0  0  0  0  0
    4.4710    4.5052  -22.2349 H   0  0  0  0  0  0  0  0  0  0  0  0
    4.6803    2.9155  -23.0447 H   0  0  0  0  0  0  0  0  0  0  0  0
    7.8569    4.5244  -20.5930 H   0  0  0  0  0  0  0  0  0  0  0  0
    6.3554    5.4714  -20.8668 H   0  0  0  0  0  0  0  0  0  0  0  0
    8.0897    4.3202  -16.9860 H   0  0  0  0  0  0  0  0  0  0  0  0
    7.3978    5.5461  -18.1018 H   0  0  0  0  0  0  0  0  0  0  0  0
    5.4879    5.5349  -14.6833 H   0  0  0  0  0  0  0  0  0  0  0  0
    6.7992    4.3073  -14.6886 H   0  0  0  0  0  0  0  0  0  0  0  0
    8.4024    4.6881  -23.0149 H   0  0  0  0  0  0  0  0  0  0  0  0
    5.1237    5.3173  -17.1228 H   0  0  0  0  0  0  0  0  0  0  0  0
    5.9712    6.5465  -23.2036 H   0  0  0  0  0  0  0  0  0  0  0  0
    8.9243    7.1289  -23.0300 H   0  0  0  0  0  0  0  0  0  0  0  0
    7.7763    7.3747  -21.6706 H   0  0  0  0  0  0  0  0  0  0  0  0
    9.2567    6.3865  -21.4285 H   0  0  0  0  0  0  0  0  0  0  0  0
    6.4470    2.5895  -16.4958 H   0  0  0  0  0  0  0  0  0  0  0  0
    4.6927    2.9228  -16.3003 H   0  0  0  0  0  0  0  0  0  0  0  0
    3.6023    3.1568  -20.8824 H   0  0  0  0  0  0  0  0  0  0  0  0
    2.2624    4.0206  -18.8818 H   0  0  0  0  0  0  0  0  0  0  0  0
    3.0431    3.9476  -17.3374 H   0  0  0  0  0  0  0  0  0  0  0  0
    7.8108    6.9374  -24.5967 H   0  0  0  0  0  0  0  0  0  0  0  0
  1  5  1  0
  1 24  3  0
  2  3  2  0
  2  5  1  0
  3  6  1  0
  4  5  2  0
  4  7  1  0
  6  7  2  0
  6 10  1  0
  7 19  1  0
 19  8  1  1
  8 25  1  0
  8 28  2  0
  9 25  1  0
  9 26  2  0
  9 27  1  0
 20 10  1  6
 11 12  1  0
 11 18  1  0
 12 20  1  0
 13 16  1  0
 13 20  1  0
 14 17  1  0
 14 21  1  0
 15 17  1  0
 15 21  1  0
 16 18  1  0
 16 22  1  0
 17 23  1  0
 18 29  1  0
 19 20  1  0
 19 26  1  0
 21 30  1  0
 21 31  1  0
 23 25  1  0
  2 32  1  0
  3 33  1  0
  4 34  1  0
 10 35  1  0
 10 36  1  0
 11 37  1  0
 11 38  1  0
 12 39  1  0
 12 40  1  0
 13 41  1  0
 13 42  1  0
 14 43  1  0
 14 44  1  0
 15 45  1  0
 15 46  1  0
 16 47  1  6
 17 48  1  0
 18 49  1  1
 22 50  1  0
 22 51  1  0
 22 52  1  0
 23 53  1  0
 23 54  1  0
 26 55  1  0
 27 56  1  0
 27 57  1  0
 29 58  1  0
M  CHG  1  26   1
M  END
>  <OMEGA_C>  (1) 
FVenQFwvD8DSv57BTjzQQNxap7/b8a3Ba4bhQGD0R74SZrPBbkyqQGi/MT4XjaHBjpq1QAt2j7+3
4aTBNZXXQPZAjD/WzK/BNOm6QK5foT+4QKfB8s7NQMTgNUAKjZnBO7iGQN9nU0CebpfB563pQNXw
G0D5m7LBbSu3QNx9kUBT4L/BkhSmQAHCdUAK4rXBkCTiQIZ9mEBjjqrBN0TqQHQno0CnzIjBxIrJ
QATYokBMdXTBFk72QG7qrECEibTBRda8QDh3lUBwhIXBrYrTQAYBuEC75bzBVSm3QBPtLED7HaTB
gVvKQLcrXkArwK3BYO/nQOJmw0B8KX/BI34HQVI11UAvJ7HBaTmzQOoqTEC34obBNMKbQJ/BSMCR
k5nBAr2sQDEFPUBSNpLBzdKKQHApRUB1raHBnS9EQINvc0AxnZLBfdHzQHPDKEDUtJfBXizoQHwu
xkCQYMbBo8gGQYxiyEDkonTB+wzVQBIy6UByT4LBVFfXQFilE8CcsbDBTB32QLaRrL6nPrrBDmGV
QLGzpj46yJrBsuUEQcaVI0DAIq/B0HvrQIKSI0CFWLvBtDDKQOlHdUBQlsTBr/mbQGzRnEBrscTB
lBKPQLsqkEAI4bHBZMWVQBeYOkB6W7jBA2z7QJbHkEBnvqTBFF/LQBsWr0Ac76bBW28BQQc/ikA6
44fBGrvsQLN5sUCE0JDBrJyvQDkesUDY7mrBN5PZQLHViUBoBGvBQHAGQdMElkB7HrjBBfWjQAUn
qkB1+4jBZBS/QLp80UDyoLnBCMoOQVIg5EBhPbjBINf4QGb960BYXa3BXRsUQZZezECIbavBfk3O
QDW6JUBM94PBuCqWQGgPO0AYZ4LB14tmQG4JSkA7D6fBB8sQQBypgED2DZfB8sFCQGGlfEAHs4rB
YfL5QOv+3UAGxsTBgaKbQLYxFMBFi6PBaJzPQM5ao793z6/B8uzkQH4ADL7U1bPBU7amQDRS+z2O
T6PBqqiwQDkgk7/2k6fBbMPaQADwkD8HtK/ByMW7QMGfnz/jjqfBi0jOQMrUOUBPZ5nB8y+HQDj8
XEDEZZfBKlvsQHqhIEA1C7LBUTy3QKYBkkAqL8DBtaemQHqbcEC2c7bBNVveQD+cm0BBjqrB2PG4
QLm8ykC4ro3BUO3LQBQ7wkAIaXvBfYPwQCEZtEB6VLTBJaOsQLSIqUAuB4XBqY/MQC5PvECiqbzB
JBO3QKBMLEA1BKTBNw7KQES7X0A0wa3BzbXjQLkq0kCJ1YfBRBsCQWLN3kDwdbDB64y4QPr1c0BI
QIfBdo2KQEgpUcAERqDB5J+vQMArWkDzbZLB8VGKQM5uQkANXqHB5ktCQMTId0CYr5LB7u/zQE6c
KkCWYZfBCq7dQO8G0UAN6cXB+B8CQQNguEBUKovB71vvQBAO/ECsZIfBtPLWQNEeEMB/B7PBj838
QFu/dL4aB7rB4YuPQA/0aT6J9JzBeIEFQR5VKkBt5K3BhfLwQDBgKUAps7rBGtbOQAcIfUCnh8TB
BiecQJ9amUAnf8XB9GCMQFNYikDFt7LBKpSaQM+LMkBGTrnBv4P4QGu1lUDm2qTBTK7FQKB7r0Cl
uKbBRUq8QMJVvUDOxpXBqvKjQML35kAO9Y3Buuq8QELG20Aq6HHBg0vfQOHArUAV3nDBaNwEQdqg
oEBtE7jBJTCLQHACrUC7bYLBFg+0QDKw0EAa7bjBZ5kIQdxs8EAfWrfBbFvrQJ4w8kB6i6zBcgsP
QUso2EAZu6rBYeLaQFoga0Dnp4XBAtylQCbcSkCx2IHBEntjQNjcPUA6dabB4v8LQF2bd0C865bB
2OdBQOSchUBqEIvBdurqQK4i60Dw28PBND2bQNUdFMDRpqPBaujOQCELo799/a/BSD3kQOm8Cb7G
ArTBWbCmQPT++j1qVKPBy0iwQC/4kr8YrqfBfG7aQAoKkT8Iy6/B0Mq7QImknz90kKfBgWXOQP/c
OUCtUpnBCEqHQLoOXUC+Y5fBvirsQPKUIEBeGrLBoNe2QINHkkBaG8DBJH2mQNQ7cUA4W7bBPNHe
QP9/m0D+fKrBSSjRQLPOuEBOPnbByFCiQL9NykAabobBEnPwQBIutECwUbTBuSrGQLIzqEBqcIbB
uETMQOKBvEDElrzBAke3QL9aLEBY+qPB/SDKQL/iX0BMuK3Bz9+iQFbZyUCvGnTBMTECQXbO3kB5
fbDBTJu3QJh7cUAMEYfBICSKQM4UUcCnYqDB9z6vQLEvV0CfQJLB4IyKQPmkQkB8W6HBr1dCQJ/S
d0DJuZLBUhf0QHo/K0DcR5fBWCfdQI9E0UCv3MXBVPuGQHu7rUAL/WrBQFmgQEiB8UBhNmvB8fnV
QAXiD8BVRbPBh9z7QNFQcb7yQ7rBHcCPQF92aD7n65zBgHkFQaPPKUBb/q3BO5DwQICiKUCswrrB
A1POQFSRfUDAfcTB36WbQBaumUAJYcXBu2mMQKzBikCFkLLBZS6aQFNRM0CVMrnB/0/5QG1NlUDc
56TBP3vGQGVbr0AChKbBinTZQIGJn0AWt2rBm+bpQP/V0UDF73XBGJ+rQIsY6UDWAIrBSQGEQGZy
v0C1/InBy8AEQZu+oECVI7jBz3XfQJuIr0A+R4zB9eGzQEbg0EA9zbjBGnwIQXmD8EARarfBP8Xr
QCYn8kCod6zB5ksPQdIT2ECZ3KrBOOfQQAKLSEAktoPBrByaQJeXaUCtXYLB6hFkQAdCPkBEeKbB
nzkMQJS1d0AW/5bB+KJBQIeXhUDgGYvB2XfqQJ9a60Aw08PBiuOgQPyfFcDkTaLBGhHUQKi2pL/s
t67B3g7oQLBeDr6HAbPB3HKoQCyg4z3KzaLB+Xa0QNILlb/uoqbBdNnbQFkCkT/cTq/Bsvm7QND/
nj9mXqfBjMjNQHIzOkA+nZnBoiCHQJYcX0C8aZfBCQLsQBVYIUCz7LHBiGO1QMDEj0DgYMDBWVGl
QGfXbECojbbBzunbQJITnEBMs6rB4AnyQBTFiUBGTHHBb2oBQbvYnEBNEojBbU/tQK2FtEDalrTB
A67mQNLgb0BOuoPBkFvJQHvsukAOB73BMSO2QC8TLECVB6TBmcHIQPM2X0DczK3B/YoOQdZWmEDw
ZHvBg5P/QPgi4EDl7LDBd+K2QGZWckBIDYfBZPCQQKz0UsDoyp7BGv6vQJT6XkDzm5LB8IuJQOeN
QUBoQ6HBrkNCQEgHeUBgl5LBPWnzQBU6J0ALK5jB0CHaQNxMz0AVXcbBzgAWQZgKvkD2nHPBfvod
QeHbckD6SXzBDezcQG0CEcCJnrHBXj4AQSAac74MEbnB8+SQQNCLWz4ZiZzBNkQFQdbCLUCR063B
BGLwQIixKECgm7rBkKvNQC1GeUBclsTBHUGaQO/llUA+xcXBcYSKQA0NiEBR7rLBlBqaQLO9LUB/
RLnBWUX2QNAil0AAAKXBFcDCQDB1r0A06KbBclPdQNXyo0DmtmvBLwv1QNkZY0BunWTBbTkKQRVg
lUAgdY/BBjXyQDumu0CVAInBPp0DQR+ioUBlN7jBiy/1QCzLMEDXLYXB+CewQCzlzkCTcrnB+PwF
Qa+n8UB25rfBTxbmQH378kCAGa3BpNMMQRPK2kDqKqvB5VOlQH/UQkD2Q4LBwTmqQCpSmUDXX4XB
wSNhQB+iOkBcMKbB9i0LQKC+dUC6pJbB7b9CQH93h0AiE4vB5o/mQPPz6UBKcMTBvGOXQGBwEMBL
GaPBKHfMQO9bpb/jdK/BW9/iQMCGOb4nnbPB/SylQHQwKj4rFKPB7ratQFR0j78iO6fB6QDaQC45
jT8fn6/BTVy7QJ5xoT+/cqfByMXOQDzeOkAUa5nB4ESHQCNXWkAvZ5fBDM7sQGkvHUDSLrLBz965
QJT3kUDFX8DB0ZuoQI9VckCckrbB92HiQFFTmkAC66rBPh6gQLPnzEDeyobBg2LYQMQ6w0Bl7Y/B
vZ70QGhdskCZurTBcfHEQJX8q0DCK4bBIpvQQGmiu0BH87zBCee3QLexLUAAFqTBINvLQHUXX0BG
7K3BRvurQG7w1kCciZLBYccEQZOK3EB037DBEV+4QOd6d0DXZofBNzSFQD7WS8BewJ/BsrKvQFnR
WUDfcZLBJCuLQGE0RUC0jqHBVAxCQHHWc0BjppLBJFn0QGW6K0AOTJfB5w7iQJOvz0BQQMbBTDGU
QFzMwUD92JnBDp2tQKagAEHo15TBEM7SQPfmEcB/kbLBsZj6QC13or4wzbnBqjeOQBBJnD6bt5zB
1egFQStkJUAzJq7B7RPxQCKJJECO3rrBzsHQQLoke0DussTBvveeQCcHmkDjrcXB0CmPQE5PjEBT
0rLBxD+bQJ4hNUCcW7nBX9v8QLk5k0CSZaXBDf/KQBQur0CZ6KbBwRKAQNHnvkByyYXBE9CjQBM8
6EDqUoHBhA3xQLjz2kCD3o3B1LnkQN6grUAlJ5bBO5cGQd9TnkA1jrjBF4XYQI74sEDE7X3Breu4
QIzS0ECNKrnB11QLQRLz7UC9yLfBvF3xQPt48EBY3qzBZsIRQScr1UAhOavBmMrSQHO6UEBCL4TB
RlibQDpZbEA/n4LBWUpmQEYRRUCh16bBYHcMQJf2dkDoAZfBD7dAQD6CgUBJ4YrBRSjwQAJn6UAs
QMTBQOynQLbZDsBlgp7BuXvQQI5np7/kxK3B1lXhQNieS75lWLPBRPCqQPTpOD5IW6HBmCa2QM7k
jr/zqKTBA0HXQA4gjD/01K/BTCC7QCLboT/oLqfBiDLOQNisN0CSoJnBVOSGQMV6VUA5gJfBCKro
QG3eG0AI57LBJ8+1QLYBk0Auv7/BgVOlQEmBd0CTybXBNLXiQDIumEA4qarBp1zjQAclrEBKAYjB
5yTFQCYsokCJanLBdvn1QAYDrUCms7TBGYS4QM1hl0BBtoTBpjrSQKNNuUBkrbzBFkK3QMdVLUDB
JKTBaw3KQM95XkCn1q3BX4P0QANeoUBNhXnB2+wHQSeN1ECcVrHB3pCzQIeHTkBW9IbBS1qcQBWI
SMCLWpnBFWatQBedQkDbUpLB4s+KQE0DRUBXsaHB44NDQDfMckBmqJLBO9vzQB54J0ACtZfBA3Tl
QF/8yECjMMbBNu8DQRO/dECu4XfBrxcGQddAwUBMzHDB/7LXQDLHE8DidbDBcrf1QPyhsL5qObrB
HGuWQMV6rD6NhJrBJ6MEQWL+I0DHv6/BDB3pQNbRIkCkqLvB4p7IQHgHeUCUncTBZVmaQCCcnkAe
bcTB26WOQFbUkECzmbHBV8KUQHTOPEC2U7jBAIz8QO/Pj0AyEKXBbKLMQB3PrkA+yqbBew30QE/E
m0AklY7B01zhQASVzkDEwYnBLNe5QBqQwUBDzmzBgpq8QBmAiUCUnGbBoMsFQS/6lUCTlbjBwb6c
QH76qUAheYfBrw2+QCUg0kAkAbnBleYOQd2640CZeLjBI6j6QOJz60D7Q63BD9EUQcrNykCB3avB
U5DQQP1vLEB4XITBVbSXQIB7NUDnlILByyRmQKIPSEAfC6fBjuoOQL7EfECnCpfBkY5CQBX4fUAT
yIrBBD33QKC54ECxhsTBF4ylQMySEMD/2Z7BxVTPQBLaqb8k1q3BdrfgQMBUYL4WTrPB69mqQDCs
Jj6bM6HBEBu1QFJokb8itaTBDj7XQG9liT80rK/BgpG7QEWhnz8W7qbBtYXOQMSwOUD2lpnBQjmH
QGajWUASgJfBY7ToQC4oGkDAybLBmru1QGp4kUDny7/BUFmlQMSBdUDwvLXBawjjQMisl0BPzqrB
wdvgQEUdkECjdXDBt7TqQBcBqUAbzYfBG1P2QNioq0BQ9LTBtyXfQFi2eEDpZIPB+HDSQGLJt0BK
5bzBOmW3QPyiLEDk/aPBKyHKQGwgXUCDya3BFPDZQNuQvEA5nnrBa1wIQZIc00Avy7HBZVSzQPpb
VUCXw4bBFNaYQMblSsAv/JnBoRKvQDiSVECwcJLBE/GKQMz3Q0CIjqHBMxJCQKR1cUAFtZLBpEv0
QALGKECV8JfBO3TlQFEPx0AqesbBojuwQPA2yUDEXXvBaEz0QL0B20BXfHLBBQvWQD/2FMBen7DB
Pwv1QKLDur7QMbrBBa+WQFgNoz70S5rBZaYEQdlOIkBFoK/B3jjpQHa1IECHjLvBdk7IQDxJdUDn
n8TBmjeaQKD8nEAKeMTB4siOQIYZkEAYmbHBcKyUQKWhOkC+KrjBl9/8QKeaj0BsLqXBNRjNQGOx
rkAYCKfB+enGQGzGhUBBv2XB8Mv/QBdQjEB6SGjBPYwGQSj2rUAYNonBMqHYQGhxskBc+Y7BLMgF
QfghlEA1yLjB0f74QFUVSkCis4TBkXu+QL3W0EAPP7nBYlYPQYWn4UAwArnB5eL7QFGF6kBWya3B
0EIVQTBvyUBgUazB6eyvQKykE0CEuYPBAQWaQKDifUBrVoPB3dZlQKZdQ0Br16bBKhQMQBDNckDO
/5bBsPdAQKumgEAT9YrBr2H3QKXI3kC15cTB

>  <OMEGA_E>  (1) 
75iBP8Yjiz/IIYs/NhaKPwwFij/fpIE/rD+CPw==

>  <OMEGA_NBR>  (1) 
    140779

$$$$
298714
     RDKit          3D

 64 69  0  0  1  0  0  0  0  0999 V2000
    5.1947   -4.2718  -18.4428 C   0  0  0  0  0  0  0  0  0  0  0  0
    5.7194   -3.3441  -19.3516 C   0  0  0  0  0  0  0  0  0  0  0  0
    6.2588   -1.5100  -21.6994 C   0  0  0  0  0  0  0  0  0  0  0  0
    6.7735   -0.4807  -22.5133 C   0  0  0  0  0  0  0  0  0  0  0  0
    6.7946    7.8097  -17.4174 C   0  0  0  0  0  0  0  0  0  0  0  0
    5.1908    0.1422  -20.2405 C   0  0  0  0  0  0  0  0  0  0  0  0
    3.9040   -4.0658  -17.9109 C   0  0  0  0  0  0  0  0  0  0  0  0
    7.6759    6.7923  -17.0087 C   0  0  0  0  0  0  0  0  0  0  0  0
    5.4837    7.4534  -17.7799 C   0  0  0  0  0  0  0  0  0  0  0  0
    3.6503   -2.0808  -19.1195 C   0  0  0  0  0  0  0  0  0  0  0  0
    5.4628   -1.1932  -20.5675 C   0  0  0  0  0  0  0  0  0  0  0  0
    4.9356   -2.2297  -19.6913 C   0  0  0  0  0  0  0  0  0  0  0  0
    6.4930    0.8536  -22.1806 C   0  0  0  0  0  0  0  0  0  0  0  0
    5.7097    1.1378  -21.0548 C   0  0  0  0  0  0  0  0  0  0  0  0
    5.9746    5.2159  -17.2967 C   0  0  0  0  0  0  0  0  0  0  0  0
    6.3124    2.9369  -19.4996 C   0  0  0  0  0  0  0  0  0  0  0  0
    4.0913    3.4635  -19.3049 C   0  0  0  0  0  0  0  0  0  0  0  0
    6.9553    2.1424  -22.7708 C   0  0  0  0  0  0  0  0  0  0  0  0
    5.3357    4.3808  -24.3102 C   0  0  0  0  0  0  0  0  0  0  0  0
    4.9053    3.6900  -23.0120 C   0  0  0  0  0  0  0  0  0  0  0  0
    7.0083    4.5001  -21.8394 C   0  0  0  0  0  0  0  0  0  0  0  0
    7.5010    5.0868  -23.1730 C   0  0  1  0  0  0  0  0  0  0  0  0
    6.2907    5.5489  -24.0164 C   0  0  1  0  0  0  0  0  0  0  0  0
    5.5873    2.6001  -20.7944 C   0  0  1  0  0  0  0  0  0  0  0  0
    6.1146    3.2658  -22.1011 C   0  0  2  0  0  0  0  0  0  0  0  0
    8.4609    6.2482  -22.8787 C   0  0  0  0  0  0  0  0  0  0  0  0
    5.5340    3.7770  -17.2576 C   0  0  0  0  0  0  0  0  0  0  0  0
    3.1572   -2.9895  -18.2529 N   0  0  0  0  0  0  0  0  0  0  0  0
    7.2561    5.5100  -16.9639 N   0  0  0  0  0  0  0  0  0  0  0  0
    5.0938    6.1628  -17.7160 N   0  0  0  0  0  0  0  0  0  0  0  0
    5.3039    3.3022  -18.6214 N   0  0  0  0  0  0  0  0  0  0  0  0
    4.1832    2.9199  -20.4899 N   0  0  0  0  0  0  0  0  0  0  0  0
    2.9389    4.0565  -18.8118 N   0  0  0  0  0  0  0  0  0  0  0  0
    7.4973    2.7687  -19.2297 O   0  0  0  0  0  0  0  0  0  0  0  0
    6.7429    6.0682  -25.2585 O   0  0  0  0  0  0  0  0  0  0  0  0
    5.7725   -5.1366  -18.1518 H   0  0  0  0  0  0  0  0  0  0  0  0
    6.7012   -3.4823  -19.7799 H   0  0  0  0  0  0  0  0  0  0  0  0
    6.4705   -2.5420  -21.9375 H   0  0  0  0  0  0  0  0  0  0  0  0
    7.3745   -0.7152  -23.3795 H   0  0  0  0  0  0  0  0  0  0  0  0
    7.1173    8.8398  -17.4520 H   0  0  0  0  0  0  0  0  0  0  0  0
    4.5924    0.3898  -19.3762 H   0  0  0  0  0  0  0  0  0  0  0  0
    3.5015   -4.7852  -17.2132 H   0  0  0  0  0  0  0  0  0  0  0  0
    8.6902    7.0374  -16.7302 H   0  0  0  0  0  0  0  0  0  0  0  0
    4.7891    8.2120  -18.1093 H   0  0  0  0  0  0  0  0  0  0  0  0
    3.0512   -1.2215  -19.3823 H   0  0  0  0  0  0  0  0  0  0  0  0
    8.0248    2.2932  -22.5620 H   0  0  0  0  0  0  0  0  0  0  0  0
    6.7905    2.1424  -23.8584 H   0  0  0  0  0  0  0  0  0  0  0  0
    5.8467    3.6507  -24.9550 H   0  0  0  0  0  0  0  0  0  0  0  0
    4.4439    4.7654  -24.8268 H   0  0  0  0  0  0  0  0  0  0  0  0
    4.2664    4.3820  -22.4438 H   0  0  0  0  0  0  0  0  0  0  0  0
    4.3303    2.7886  -23.2706 H   0  0  0  0  0  0  0  0  0  0  0  0
    7.8746    4.2000  -21.2316 H   0  0  0  0  0  0  0  0  0  0  0  0
    6.4275    5.2620  -21.2990 H   0  0  0  0  0  0  0  0  0  0  0  0
    8.0431    4.3067  -23.7275 H   0  0  0  0  0  0  0  0  0  0  0  0
    5.7440    6.3205  -23.4546 H   0  0  0  0  0  0  0  0  0  0  0  0
    8.8204    6.6765  -23.8260 H   0  0  0  0  0  0  0  0  0  0  0  0
    7.9332    7.0230  -22.3031 H   0  0  0  0  0  0  0  0  0  0  0  0
    9.3169    5.8775  -22.2957 H   0  0  0  0  0  0  0  0  0  0  0  0
    6.3166    3.1663  -16.7836 H   0  0  0  0  0  0  0  0  0  0  0  0
    4.6027    3.6939  -16.6781 H   0  0  0  0  0  0  0  0  0  0  0  0
    3.4112    2.7463  -21.1014 H   0  0  0  0  0  0  0  0  0  0  0  0
    2.1119    4.0856  -19.3733 H   0  0  0  0  0  0  0  0  0  0  0  0
    2.9348    4.4551  -17.8947 H   0  0  0  0  0  0  0  0  0  0  0  0
    7.3363    6.7933  -25.1018 H   0  0  0  0  0  0  0  0  0  0  0  0
  1  2  2  0
  1  7  1  0
  2 12  1  0
  3  4  2  0
  3 11  1  0
  4 13  1  0
  5  8  2  0
  5  9  1  0
  6 11  2  0
  6 14  1  0
  7 28  2  0
  8 29  1  0
  9 30  2  0
 10 12  2  0
 10 28  1  0
 11 12  1  0
 13 14  2  0
 13 18  1  0
 14 24  1  0
 15 27  1  0
 15 29  2  0
 15 30  1  0
 24 16  1  1
 16 31  1  0
 16 34  2  0
 17 31  1  0
 17 32  2  0
 17 33  1  0
 25 18  1  6
 19 20  1  0
 19 23  1  0
 20 25  1  0
 21 22  1  0
 21 25  1  0
 22 23  1  0
 22 26  1  0
 23 35  1  0
 24 25  1  0
 24 32  1  0
 27 31  1  0
  1 36  1  0
  2 37  1  0
  3 38  1  0
  4 39  1  0
  5 40  1  0
  6 41  1  0
  7 42  1  0
  8 43  1  0
  9 44  1  0
 10 45  1  0
 18 46  1  0
 18 47  1  0
 19 48  1  0
 19 49  1  0
 20 50  1  0
 20 51  1  0
 21 52  1  0
 21 53  1  0
 22 54  1  6
 23 55  1  1
 26 56  1  0
 26 57  1  0
 26 58  1  0
 27 59  1  0
 27 60  1  0
 32 61  1  0
 33 62  1  0
 33 63  1  0
 35 64  1  0
M  CHG  1  32   1
M  END
>  <OMEGA_C>  (2) 
GDumQNiyiMDMipPBdgW3QAYFVsAm0JrBKkjIQPVHwb9vmK3BsMDYQHQh9r4wG7TBmG3ZQD7p+UDm
VovBRhumQPKkET547KHBbdt5QPcagsCWSY/BQKH1QDFa2UDHEYjBFXqvQCaC7kA+PY7BJZ9pQOQr
BcDB9JjBZM+uQCC7mL9QiqTBavCdQBezDsDIh53BVsbPQIiHWj/XcbHBorW2QL2jkT9ScKjBri+/
QGDopkCfX4rBOv/JQC72O0Aj/5vBiuuCQKSpXUB9cJrBHZLeQOkcCUCQKrbBA76qQNYvjEBJe8LB
OvicQJoobECXGLjBGETgQKIAkEAut67BZQjwQAjHokBGYrnBQE3JQEeQsUCeIcDB5MqyQIxoJkD+
WqbBj6rDQD4CUUD5zrDBu18HQXPxx0CJB7fBohaxQLi5cUCZD4rB1g9KQLpTP8DeBZLB0jHoQNFR
sEAetofBUACjQAo2xUBHuo3B07mpQJxWU0CL+JTBJ92FQInfOkBi66PBQRY8QODOgUCDfpbB7env
QIAyMUBc1pnBGMbXQMAuwkBjEcrBf7i4QF5fpMD3NpHBG3DWQDDdXsBKPZ7BJQ7PQGqvIsADgK/B
0PvrQBsXN78eCbvBkcDjQO5vDUGtnYvB1PSSQM6Oxz5oApvB/BhgQCsgmcCNtInBFwsLQU8y4UBs
14XB6D+ZQCpkA0Hb35DBj0ZDQC1bnL/4DpvBZGUAQUTEEkD2frTB/UvZQFwcCUDv3b7BJxi7QLKk
aUDKo8fBvDSOQMx9mEBdncbBc4aIQIA5jEDUjLPBjpGKQGp4MkAfKrrBz/z7QP5lhkBb2qnBNK7N
QKliqEBYZKrBurAAQUrQiUD60b3B9c63QM1BykDworvBUSANQeOl1UCNm77Brtz9QAa84ECnbLLB
CBIVQeEUvECwXbLBSSHKQPCkSkC7RIbBpUmTQAppbEDCbIXBrlFaQK7DL0Ciz6jBCykHQO+8gkBt
/JrBpdM7QC+QjkBBKI/BO8PqQB5j2UCI0MjBhCelQMTQiMAjRpPBPKC2QEO0VcByW5rBSDHLQGDi
xL93yqzBcNzeQJoRBr911LLBPL7OQCv//ECRxorB+rikQDj1CD5cGaLBVy52QDXegsBNdo/B+Ong
QP/I4EBgQpLBWHCzQN0Q7EAQ5ILBcyxnQG3CBsAlMJnB9N+uQAZsmr+xT6TBomGdQBxJD8DfX53B
0vTVQBWQTz80TbDBNCu4QNLYjj89PKjBlO67QLrdp0BvRorBGALLQIevOUBOxJvBZDKEQENcX0A5
z5rB/ijqQFB1BUBI1bPB5jKaQLFCmUDNI7vBlLOnQGv8VEAhzrnB9rjhQBs5kEAFSa7BzOfrQKVY
pUBa/7jBlJvBQAyUtEAZaL7BTDm1QOuiJUC3UqbBHPXJQHQtS0AEj7DBIYYFQZ+YykBCUrfBxM6w
QNudcUAlD4rB01tGQOVtQcCMapLBKq3XQISstkCM0JHBPJuqQE/DwUDOuYLBrAeqQM4NUkDt+5TB
DN+IQAElQkCNkKTB1Yk9QPfzgUC79pbBYOHwQLjiMEDcbpnBTirHQN+OsUCmsMnB9a23QNExpMAN
wZDBm7PWQIRhXcBnbZ3BaKbRQK7EJMD5m67Bwmn0QOL9RL+hSrnBi5LVQGttD0HaEYvBl3iOQCIo
yD4F0ZvByTFbQGIqmsB7C4rB+j32QN3P7EBRW5jB64ClQO55AEFv6HnBANBAQO1koL+HdJvBYoQE
QbQsD0DnyK/B/g7vQL6LBUApjLzBKomBQEGOm0BzZMHB0zKNQIRApUAEiLPBNF6LQKpULkBg07fB
7ai1QPsLPkCUW8HBTJH/QADAiUC56KnBgzrNQO1ypUBzfKnBOiT7QJ6OjUBRP77B6667QK381UBp
ELzBYxwJQcaj2UCIEr/BSHT8QJVd4kD/87HBUWsUQfiJvkBFu7PByS/LQNXCTUAIVobBvWOTQIlI
aECsXoXBSC9jQCWSP0BbC6rBmHQKQDGXhEDovJvB5qs6QCl8jEACa4/BhzXfQFgowkAPysvBdoU3
QMSnUsC41pTByHVfQHxyDsB+LZrBcTHRQH0kzL+iBKvB5+HmQMIAEr+7jLDBI8noQBlx3D9CmGfB
OzSmQJKPiD30VqHBBoplQDp+j8CVFJPBRejYQN9yP0AUDGLBc2vlQFXOpz8z+nzBkWuvQDwbZ8Db
oJvBtMawQD/wpL90aKPBl2aaQEhpGMDCrJ3B8uTbQEmrRD8ymK7BbMu7QOPjiD8fD6fBw+nEQKLq
VkCp1oLBh//MQPjHRECyBJzB31eFQCZsZkDT6ZrBTXPtQDpKBECn67LBx5iTQFu2jkDa2LvBAUWo
QLYNRUCFELrBTXjdQBakkUA+WK/BCZbiQB6Rp0C/S7rBaKq1QHs8sEDyUr/BJUO2QD2YJEAz+qXB
uwDKQFRAR0CTp7DBucf7QF/G0UDSELnBr3K1QHrRikBSXIvBEbebQMQSlMAncZbBDHjHQOm/ckCw
InHBMEfTQDcFCEDmw4XBeYOtQARTbEBx3JXBnEeJQPjkPUCtGqTBr7c9QLtag0AnB5fBhUnzQAy0
PkAR95nBUMi5QLaZr0DNtMrBi2/sP5W4TMA7G5LBBHg9QOenpr86lpvBo0rZQD8ZKMDVk6zBbrb/
QOcqUL+bPLbBcDH3QDtgij9Us1vBYRaOQAqZpD4Tf5vB18ZGQIKuqcAh9Y7B0qXaQLn6VEBlplHB
klzxQM9rrz524YDB5gzQQI9nb8CGR57B36EFQe64FUDrx67BwYvzQJRd/j9kkLvBCDh2QA0OjEA7
IsLBS4aEQOZamUBYWrTB1RCPQGyIFkB7FbjBm4K4QEozMUCNd8HBSAX9QAMjj0BOfqvBLhLIQOr+
pEDbTarBb330QCUfkkBLpr/BI9aqQEYA0EBSq7zBzTr/QHYj4UCn78DB82jqQGRW50DXobPBLtQN
QbbtykDIv7XBPXeXQCONmUBmlojB4evNQK7Do0A4aozB/j9iQC7fMUC3IanBTv8HQJ+6f0CzSZvB
aCE8QLxxkkDe+Y/Bm5LOQOYLxEDu2szBKuFtQC8Jk8B4FKDByDCMQBH7Y8AMg6XBieDIQLR2vr89
oK3BJLTeQJAU3r7rwbLBTogHQW3H6UBnrovBiq6gQIsi7j3prqLBUBVTQPhrjMB8cJXB/nECQUFT
1UBP/YHB/T35QDwL3UAe+pTBTwGFQKIxDcAvdpXBxtypQJeonL8ekKXByoKTQA/SFcBtJqDBDRjV
QABxZD+o+K/BpBy2QDgWkz/pDqjBKKHTQInUqUBH/orB8PfIQBXxPkCOlZvBvXOCQAfiaEBMb5rB
TmjnQPB6DUDppLPBf0mzQFofgUD7z8PBYE2iQKcuWkCUVrnBp6HaQL9FlUANla7BpP/sQO5BqEBS
GLnBtkDJQHGIrEBPrcHBlAiyQCOxKEAN/aXBSpDFQLpbUUDXabDBEa8AQWNJ1ECzqLbBuvmyQGfO
hUDohIrBej9hQHe0TcBgVZDBVkXnQKLQtUCexYHBU4fbQIrJvUB6eZTBtFGqQLS6ZkAuN5XB3WeF
QLXRQkC5zaPB/rQ5QBD0hUCLY5bBl2juQEeXMEDsO5nBdczaQODXu0A2hMvBSdJhQCg4scBPAqTB
7caWQOzBbMC+qa3BrMnPQCuXIMD+16/BWJT2QN0AJb+zxbjBU4UTQStSAUGp+IvBiq2JQMzOrD6k
e5zB9X4yQBzopcCnQpHBs2UKQcrS3kAVZHXByCAAQe5I7EDXh5zBPVqKQBopo79VTJHBcQsDQfpM
GkDHo6/BpyrsQNhbDUAFXbzBM5bKQO5LVkCydsfBbViYQCYMhkAiV8nBU1qIQJtmgUB3PrbBKq2V
QJ8WGkDYJrvBtsv0QPLMkUCBwqjBWmHCQI1Xq0DQYavBk/cCQVelkkCpKLzB5QuxQHIbw0Cmrr7B
ZT0HQRL94UCTEr7BQt3oQOLo6UCgY7PB+p8NQRRK0EBwx7DB40q/QNbRWEDZQoXBFOWUQCJukkCt
NofBrJtZQI3sOECJxKjBArkDQLGBhECqq5rB26Q5QJb8k0D8Mo/BHHboQOeW1kAiV8rBDZefQJDB
kMBMmZTBe2C0QDiaYcANh5rB7IfSQHI2xr87yKrBka3mQH8AB78WtrDBlxAZQWE6x0B6cozB58an
QJz85z3ADaHBvfhqQCaZicAy+JDBjpkTQdmiqEA2qoTBRkkJQU3z00CgzpPBSnVoQP2kCsA8vpjB
jRuzQGSTnr+366LBPnieQOR8FMB4rpzBCw/bQOMqTz+D567BCbC7QBcJjj8YLafB3NLhQAcupUAW
sIvBn0nNQAnsRkBMSZzBJCKGQPzRa0BzE5vBqGXrQLbzBkBtg7PBP86OQMlWjUCiF7zB9J2kQFKN
Q0AHNbrBcUfaQIvekkC+NLDBrnXdQPW5p0ANYbvB7bKvQOoQr0ByF8DBXrW1QO3ZJkCWKqbBBafH
QJrSSED7FrHB9gD2QNJ+0kBmsbrBXqi2QCELj0Ci74vBCjxBQAQRScCjDZPBq1D/QGn8l0DfaITB
v+TqQPfqwkB9TpPBYOuuQJnRdEByb5bBD+qIQBunP0BxBaTBgRxAQKIYhkDX9pbBkhXzQCrOOkBH
GJrBzyayQM9ErUCUgMvBuayvQAuFrsCg1ZLB153UQFk+a8CuZZ3BIQ/bQPcVJcDIOazBG83+QB94
Rb8OlbbBifsoQTOe1ECDw4zBYlSQQOOuvT6VDJvBXPtKQNw+osCza4zBBF8fQZpsnkBqwX3BRAkN
QaVj60CN35nBh3lGQOyXn7+NUprBmMUEQRXiGUCnoq/BWnvwQPoLAUCTMLzBFwBrQNuJiUCRIsLB
65iAQOKBmEBrirTBKiqMQMZ+FEA73rfBRQm0QNHULkCQrsHB3Fz6QANqkUCymqzBZCTFQHhMpkBT
HavBXf/uQM74kUAFu8DBEaakQOjnzkBqjb3B5wP4QOv24EAJs8LBTgflQEJj6ECKQ7XBrzsLQVOf
zECnn7fBFMW1QNv1bEAEo4XBFmmdQHzYpkCYdIrBpyxgQGrqMEBwuKjBLRIJQNcxgUC225rBBGtA
QIChlkBzHZDB7DnGQMDWwUBG+s3B9B5SQHmeTMC5lJHB6mBqQI+rC8BLrZjBHNDFQIe4wb9Pxq3B
Av7WQPZa9r6yFrTBV5vWQCs5/kCp04zBRRekQH+YAj7136HBR6SFQMdGiMCOjY/BHzjzQPcI30De
/YjBEx6tQIlO8UAkvI/Bqpm4QJYRV8DhP5vBLJ6sQMydmr9Gp6TBi5qdQIEwEcCMmp3BC+/OQLg5
WT/uMbHBqaq1QF3PkD8lNajB3yK+QBrlqkDZ6orB7ZrJQG9hPEDaupvBzteCQFIjYUDhZJrBTV3f
QOdeCECzm7XB24OrQJvCiUDihsLBX3idQMWGaUBaBrjBkSTgQLknkEDDnq7By0vwQNKvoUBPa7nB
ebbJQBqTr0B0WsDBd3yyQP1rJkAyFabByeXDQK1oUEA6irDBo4QHQVQSx0ALWbfBwQixQJkoeUCR
GorBYn+sQEVpisAMVJTBkajmQCXTtUC8J4jBQIGhQDzox0DNuo7B9XKpQOC4VkBX05TBm6uFQO4v
PEAsvqPBNIU8QKzqhEBRtZbBb5nvQBKeMkAslpnBjUDYQAZYv0BhX8rBcV4UQAi3SsDptI3BNxlA
QL06rb+5VJrB3dLLQKzQIsCq4K/BAhbqQLanNb/6DbvBLkjgQIekD0EThY3BPHmQQEIyvD6ZBpvB
ep94QN87ocDgDIrBDacJQakS6EARtobBn42WQH0/BEFwxZLB7ozXQHo9W8D2Dp/BkJ4AQWDZEECk
drPBJv/bQK4lCUAHXr7BDz28QOrfY0DCecfBdBOPQEBmlUC50cbB8LqIQBxOi0BxsLPBXUyLQNgz
L0Bz77nBqK37QPlTh0AamqnBbi/NQIXrqEBCiqrBnNkAQXchiEACoL3BsuO3QAmOyEDVCrzBllcN
Qa+700BtBr/BWSH+QD1/4EAV+LLBtSoVQeTJu0Csj7LBiq3KQPdvVEAuMobByYaTQBMedEDpWIXB
YONZQE1pMEBimqjBHiEIQAEDhkCAS5vBMCg8QCx+kkDNdo/BcAjrQFrQ1kDpPMnBDmlUQEIITcAn
gpHBZiVsQBVDDMBXp5jBWzrHQEIKwb/gqK3BpkbYQMR68b749bPBuqYAQc6r6UDLVIvBeI+jQCAO
/D3uC6LBtiKHQFQWiMDTY4/Bi9j5QDaZ00AXtIHBQbXrQIAC3EATlZTBBPm5QAYvVsAsFZvByT6t
QMm8mr8oqaTBU5SeQGMrEcBLjJ3Brz7PQJYVWz8WL7HBEtC0QEaWkD82ZKjBmxfMQE6ipEDsrorB
l7bIQPoROUAkypvB+ZuCQIQnY0AnhJrB953fQPJMCUAhgrXB8CWsQKkiikB2jsLBiYKdQP9qaUA6
JrjBzy7fQJuIkECoaq7B9wfwQEF+okAYGrnB7M7JQBY1sECwLsDBT5GxQNXoJUBJLKbB5YLDQEeu
UECMhLDBrRoHQWcnyEAS0bbB/0exQLy5eECVO4rBih2uQEPiicBHHJTBtUXfQG+QsUAohYHBRfXQ
QAkxukCpFpTBwQGpQLXMVkAH9ZTBJ9uEQCzIPEDmy6PBRHs9QH8Wh0B+zpbBG5ruQLN4LUD3qJnB
HefYQHKBwED/GMrBKIYWQOeXS8Akqo3B9VRBQDCJr78jX5rBEPLNQPFdIsAarq/BFwDsQEoOMr9d
07rBY4wLQSw8AkF+m4vBnk2PQGeRtz78TZvBlfZ7QOsDocBM3InBULcEQcvq3UBk33TBLYXwQNiN
7EBuEpzBdgfZQNTRWcCN2J7BTKgAQeVREkB+OrPBtsrcQFY+CkB1R77B9Hq9QBg3ZUBedsfBNOyP
QD2alUDe9sbBSjyIQGruikB137PB4sSLQJjYLkCrMLrB5mb6QLjhh0DlRanBkaXLQIIDqUB0ZqrB
gQABQcE6iUC8RL3Bbmu3QLnZyEAJ5rvB7ywNQcof1UDWab7BGK78QFlL4UACfbLBqJwUQZ8JvUBG
6LHBy2XCQAMVSECKhoXBtY+SQJC9g0A/WobB4cxXQDbAMEClkqjBicIIQHyciEBwU5vBvnk+QEMT
lUDGnI/BMlnrQGog2EDc0sjBBROeQIyrkcDQl5TB32WzQNhEY8BFYJrBOarSQB1Lyb+Od6rBJTDn
QI5CDr/tWrDBYRLvQNno9j/ROGjBMAmoQBx2yj0EzKDBgohnQEBrisAVIZHBK+7eQDzETED/8mLB
gaHqQCzDvT+YX33ByLtmQFDEC8CLx5jBEQ2zQKbzoL+2q6LBaNadQNTDFcC2jJzB6MnbQD2OSD9s
lK7BrnG8QHD0iz/N3qbBp6XIQMYGYEDOMoPB2PHNQFYASUAwXZzBIzWGQMDRaEBZ1prB/S/sQJrg
BEA4SrPBOyuQQHrAjEC6BbzBw7elQP4kQkB3HbrBKWrbQDYHkkDNFrDBGO3eQFPlpkA3NbvBHU+x
QAlprkDe87/BH022QLolJkDXC6bBM4PIQDY6R0Dm97DB9Z/3QNmR0UBobrrBw7+3QOpGjkBLzIvB
XXE+QBRfSsChO5PB3zjMQAoFfkCmFXLBYT3XQAL5EEDT+4XBQuauQGDicEA/GpbBe1+JQCiBPkCm
66PB5eo/QD1nhEDExZbBT3/0QL5tREB5k5rBSxy0QD2yrEAoWsvBpeetQJCOr8C10JLB+8vTQOAS
bcBSH53BqQzbQKS5JsBt5KvBTHP/QO4FTr8wLbbBPHv+QNwbqD/4S1zBgnqQQBWouD4H1ZrB5bFG
QAYfo8DpsYzBl3zhQHUCZEDMuVLBmr/2QAonAz83+YDBUz5FQDVRob8YX5rBTisFQdcBGEDiba/B
RU3xQIVt/D/k9LvB9whuQMIYiUBYHMLB0cuBQPTtl0C3fbTBLR2NQJ9QE0DlzbfBSD21QN1CLUDM
kcHBZm77QDxhkECSdKzBvU/GQK+TpUB3BKvB1YLwQMUpkUAijsDBHlCmQDBFzkAfar3B3+z5QLsq
4EATa8LBA5TmQKxv50B3ArXBsvwLQUGEy0BBT7fBPOSZQKHgnEBZ5ojBMbrPQI5wp0AzMI3BDHdh
QGm6MEC3uajB41QJQOkWgECyzprBrYg/QLI1lEAY0Y/BSVTIQDo4wUArx83B

>  <OMEGA_E>  (2) 
sMEuPzygMj/AdWc/rItgP/CjVD/wsko/Cu1LP8xVUT8=

>  <OMEGA_NBR>  (2) 
     23056

$$$$
290127
     RDKit          3D

 59 63  0  0  1  0  0  0  0  0999 V2000
    5.0263   -2.2580  -19.9534 C   0  0  0  0  0  0  0  0  0  0  0  0
    6.3426   -1.3345  -21.8193 C   0  0  0  0  0  0  0  0  0  0  0  0
    6.9148   -0.2341  -22.4887 C   0  0  0  0  0  0  0  0  0  0  0  0
    8.4237    6.5897  -16.3511 C   0  0  0  0  0  0  0  0  0  0  0  0
    5.3060    0.1615  -20.1728 C   0  0  0  0  0  0  0  0  0  0  0  0
    8.6829    5.3062  -15.8381 C   0  0  0  0  0  0  0  0  0  0  0  0
    7.1960    6.8167  -16.9994 C   0  0  0  0  0  0  0  0  0  0  0  0
    5.5553   -1.1374  -20.6569 C   0  0  0  0  0  0  0  0  0  0  0  0
    6.6850    1.0563  -21.9938 C   0  0  0  0  0  0  0  0  0  0  0  0
    5.8714    1.2400  -20.8629 C   0  0  0  0  0  0  0  0  0  0  0  0
    6.5952    4.5901  -16.6048 C   0  0  0  0  0  0  0  0  0  0  0  0
    6.4774    2.9353  -19.1736 C   0  0  0  0  0  0  0  0  0  0  0  0
    4.2346    3.3790  -18.9330 C   0  0  0  0  0  0  0  0  0  0  0  0
    7.2521    2.3763  -22.3843 C   0  0  0  0  0  0  0  0  0  0  0  0
    5.6206    4.5043  -23.9963 C   0  0  0  0  0  0  0  0  0  0  0  0
    5.1451    3.7999  -22.7227 C   0  0  0  0  0  0  0  0  0  0  0  0
    7.1247    4.7094  -21.4179 C   0  0  0  0  0  0  0  0  0  0  0  0
    7.6778    5.3182  -22.7198 C   0  0  1  0  0  0  0  0  0  0  0  0
    6.5045    5.7089  -23.6406 C   0  0  1  0  0  0  0  0  0  0  0  0
    5.7621    2.6950  -20.4919 C   0  0  1  0  0  0  0  0  0  0  0  0
    6.3212    3.4330  -21.7470 C   0  0  2  0  0  0  0  0  0  0  0  0
    8.5365    6.5415  -22.3742 C   0  0  0  0  0  0  0  0  0  0  0  0
    6.4462    7.5326  -25.2073 C   0  0  0  0  0  0  0  0  0  0  0  0
    5.6445    3.4501  -16.8365 C   0  0  0  0  0  0  0  0  0  0  0  0
    4.5950   -3.1703  -19.3705 N   0  0  0  0  0  0  0  0  0  0  0  0
    7.7666    4.3258  -15.9754 N   0  0  0  0  0  0  0  0  0  0  0  0
    6.2984    5.8145  -17.1161 N   0  0  0  0  0  0  0  0  0  0  0  0
    5.4630    3.2513  -18.2778 N   0  0  0  0  0  0  0  0  0  0  0  0
    4.3671    3.0500  -20.1915 N   0  0  0  0  0  0  0  0  0  0  0  0
    3.0388    3.7802  -18.3599 N   0  0  0  0  0  0  0  0  0  0  0  0
    7.6613    2.7422  -18.9166 O   0  0  0  0  0  0  0  0  0  0  0  0
    7.0223    6.2618  -24.8602 O   0  0  0  0  0  0  0  0  0  0  0  0
    6.5049   -2.3342  -22.1942 H   0  0  0  0  0  0  0  0  0  0  0  0
    7.5213   -0.3834  -23.3698 H   0  0  0  0  0  0  0  0  0  0  0  0
    9.1501    7.3825  -16.2499 H   0  0  0  0  0  0  0  0  0  0  0  0
    4.6968    0.3205  -19.2953 H   0  0  0  0  0  0  0  0  0  0  0  0
    9.6164    5.1052  -15.3336 H   0  0  0  0  0  0  0  0  0  0  0  0
    6.9713    7.7926  -17.4038 H   0  0  0  0  0  0  0  0  0  0  0  0
    8.2764    2.4838  -21.9978 H   0  0  0  0  0  0  0  0  0  0  0  0
    7.2604    2.4821  -23.4792 H   0  0  0  0  0  0  0  0  0  0  0  0
    6.2001    3.7968  -24.6075 H   0  0  0  0  0  0  0  0  0  0  0  0
    4.7465    4.8514  -24.5669 H   0  0  0  0  0  0  0  0  0  0  0  0
    4.4463    4.4652  -22.1945 H   0  0  0  0  0  0  0  0  0  0  0  0
    4.6247    2.8737  -23.0080 H   0  0  0  0  0  0  0  0  0  0  0  0
    7.9597    4.4546  -20.7488 H   0  0  0  0  0  0  0  0  0  0  0  0
    6.4672    5.4390  -20.9225 H   0  0  0  0  0  0  0  0  0  0  0  0
    8.3023    4.5704  -23.2304 H   0  0  0  0  0  0  0  0  0  0  0  0
    5.8867    6.4566  -23.1218 H   0  0  0  0  0  0  0  0  0  0  0  0
    8.9359    6.9829  -23.2992 H   0  0  0  0  0  0  0  0  0  0  0  0
    7.9197    7.2859  -21.8494 H   0  0  0  0  0  0  0  0  0  0  0  0
    9.3698    6.2329  -21.7258 H   0  0  0  0  0  0  0  0  0  0  0  0
    6.8891    7.8919  -26.1479 H   0  0  0  0  0  0  0  0  0  0  0  0
    5.3592    7.4200  -25.3335 H   0  0  0  0  0  0  0  0  0  0  0  0
    6.6491    8.2582  -24.4059 H   0  0  0  0  0  0  0  0  0  0  0  0
    6.0551    2.5332  -16.3886 H   0  0  0  0  0  0  0  0  0  0  0  0
    4.6741    3.6817  -16.3732 H   0  0  0  0  0  0  0  0  0  0  0  0
    3.6220    3.0411  -20.8583 H   0  0  0  0  0  0  0  0  0  0  0  0
    2.2098    3.8312  -18.9168 H   0  0  0  0  0  0  0  0  0  0  0  0
    3.0047    4.0188  -17.3894 H   0  0  0  0  0  0  0  0  0  0  0  0
  1  8  1  0
  1 25  3  0
  2  3  2  0
  2  8  1  0
  3  9  1  0
  4  6  2  0
  4  7  1  0
  5  8  2  0
  5 10  1  0
  6 26  1  0
  7 27  2  0
  9 10  2  0
  9 14  1  0
 10 20  1  0
 11 24  1  0
 11 26  2  0
 11 27  1  0
 20 12  1  1
 12 28  1  0
 12 31  2  0
 13 28  1  0
 13 29  2  0
 13 30  1  0
 21 14  1  6
 15 16  1  0
 15 19  1  0
 16 21  1  0
 17 18  1  0
 17 21  1  0
 18 19  1  0
 18 22  1  0
 19 32  1  0
 20 21  1  0
 20 29  1  0
 23 32  1  0
 24 28  1  0
  2 33  1  0
  3 34  1  0
  4 35  1  0
  5 36  1  0
  6 37  1  0
  7 38  1  0
 14 39  1  0
 14 40  1  0
 15 41  1  0
 15 42  1  0
 16 43  1  0
 16 44  1  0
 17 45  1  0
 17 46  1  0
 18 47  1  6
 19 48  1  1
 22 49  1  0
 22 50  1  0
 22 51  1  0
 23 52  1  0
 23 53  1  0
 23 54  1  0
 24 55  1  0
 24 56  1  0
 29 57  1  0
 30 58  1  0
 30 59  1  0
M  CHG  1  29   1
M  END
>  <OMEGA_C>  (3) 
WdegQGqCEMB3oJ/BWfbKQEPPqr/bja7BU0bdQGS+b77h6LPBgMcGQQvf0kAjz4LBucqpQHBVJT7k
YaHB9ewKQSTMqUDEaH3BdEXmQKUi2kC6/ofBFsWxQL2Ukb9bQaXByOvVQJ80hz9S86/BYuK7QDe4
nj8r56bBAgzTQHzikkCI1oTB3UbPQKbcO0CNY5nBt4GHQOJAWEDFdpfBVBHoQLQVGEABE7PBkduz
QPkikEBy+L/BSKSkQJ4xc0AQyLXBsf3jQLyzlkD1V6vBPrD1QAAvqkA5wrXBpiTQQEWvtkD/H73B
YmO4QI56LEBe76PBMkfKQNS2W0Di+a3BlZUIQZpT0UBu/rLB60bOQMMK8UCTqMnBYZ+0QCbOXEAr
sYbBCAqTQNzlSsDW9prBGoj4QDltikA+m3/BlIzJQMkQukC67YjBR9GuQNwVUEDiOJLBdL+LQCIz
Q0AviKHBWntCQFrucUAs4ZLBhyn1QGp/L0AgVZfBhLbgQFpgyECY4cbBwyfQQHVjFcC3jbHBW67w
QENOxL5e9brB8mYSQTg97EC6/4HB+UuWQPIYpD7VXJrB1dwZQfpdo0CAVnXBfRTfQDNd+UDkOovB
/msEQV/2HkCB+6/B3VToQEnaHkBO1bvBOGfGQDb+ckAu3MTBq+OXQGw+m0AcicTBzEeOQC/jjkA+
jrHBqf2TQNPqN0BmELjBLbb+QFaMjkB1/aXBoPPOQBoMrkA4YafBZNYEQdxAkkDY17nBrl+8QOCc
zkBq+bjBfPkOQdRz30DUZLrBYm79QL8l6UCcy67BruoVQQ90x0B0zq3BnHPcQE+K/EDfLtHBz36r
QPZw7UAJq8rBF8XUQJUhBEFBP8PBUcPBQD8fIkDYG4PB/ZGVQGKha0A5/ILBMM5nQKigQkDX3abB
lmwNQMsxdUCqVZfBMExAQOKZgECPHYvB7N2gQJi5EMALt5/Bl5nLQMy3qr+LhK7BfCneQHSMbb4N
zbPBjDrVQPH+6kCZAYHBlVKpQIgwJD4UgqHB0tPzQAeezUD2woTB9l+rQEdK3ECoLX7BF8ixQP+8
kb/1UqXBmHDWQG1vhz9S4K/Bi6C7QF/Xnj/q96bBjEDAQLJpl0DdNITBOQjPQPYOO0BBZJnBIGyH
QGjWVkB8bZfBHvroQJY+GEDe27LBJVu1QGubj0DoDMDByIClQMRvckDZ5rXBpuLjQNLvlkAiN6vB
XD/2QL9jqkDJjLXBQzvRQLRhtkBaIb3BWUK4QPiWLEA696PBMKvKQCS7W0Cj7q3BIYgIQSnj0UCX
rbLBZw/QQGdH8EBOy8nB1EK0QLSpU0Akl4bBICKTQE41S8C+DpvBI9voQDJWpEA8VobB6mWhQLTO
skAvz4DB/kGuQFL+SECGIJLBDrKLQJozRECPk6HB9jNDQGJuckApyZLBgAH1QCr7L0DkVZfB9ovi
QNvbx0C608bBthTRQPNRFcAbfrHBuAnyQFOBwr72xLrBEKjdQBMHBkH1QH/BblCVQNPRoj7Dk5rB
ew4KQU0Z2ECJYobB0zKTQH8y8kBbenjBzrUEQRwCH0Alja/BBynqQEIyH0BhnLvBNmHIQO/ocUD7
0cTBf6yZQNN1mkCqwsTB77+OQCl9jkBkzbHBWSiVQB/lNkDdNrjBFT3+QB8Nj0CEuaXB3F/OQO8v
rkB+YKfBimsFQRGckkCwf7nBB/+8QEdXzkBNIrnBGCsPQeYG4ECjBbrBCrX8QAGQ6UBtna7Bn68V
QU5kyEDSVa3BcdLeQBai+0D6QtHBIWitQJlf7EDC/crB6cvVQNfhA0HlZcPBqOzNQC/TKEA71YPB
R1OWQJmzQ0C/aYLBkQRoQLDIRUCp86bBOJYOQAs0eUDHQpfBwzhBQG2Tf0DT9YrBzkycQNg+FMBc
taPBvPDQQAORob9Btq/BHEvmQIYO8L1KnrPBbPkbQV/vUkAc733BIsmmQM3L/T1NYqPB3ycOQb/4
C0AtB37BH0ETQQInkkAE/YDBJlqxQHeAkr9zn6fBJIDbQGD4kj/6ha/Bzs27QIiAoD+NiqfBpKXi
QNqjZkBO8YLBHNXNQBfZOECZWJnB1OqGQKbLXUA2aZfBbgHtQOLnIUDGwLHBBGC4QIz5kkCZ07/B
nHmnQNThcUCAPLbB8KjeQPnrm0BMDarBzNfwQJz7tECyu7PBlhfNQDpxvUB/GrzBWNW2QBZzLEDN
7KPBOnLKQHWiYEAxe63BziwCQT2Q30DPtq/BLibAQFYM6kBlu8vBPtC0QHIlb0C8yYbBRC2LQOmD
UcDdiqDBchnyQP/SFkDB54DBZEX8QGl4lkBTDYPB+hevQL9hWkAzVJLBQB+KQLqeQkDiV6HBc6lB
QB7GeEDpupLBmMPzQPK9KEDq0pfBehffQAyB00ALP8XBLLzYQOwQD8B56bLB063+QEXNWb5fsbnB
5NwsQW8qS0DR1XrBfjKPQDb+Yz54Hp3BQmwUQXNOmT8jEnvBaXYdQdoIrkA+5IDB7MAFQeOWK0Dc
h63Bx93xQFIjK0BZZLrBXnLQQDmzf0CrHMTBqpSdQN89mkCRPMXBJ/mMQFnCikDuiLLBAqGbQHL2
M0BQMrnBPsX4QL+tlUBCXKTBcOvFQESBr0CxJqbBNRsFQUvMoUC7gLfBM0C0QDth0UCwW7jBjKwI
QdyU8UAwirbBx2HrQHyp8kAbwavB7xcPQSa42EDf/KnBPZLQQIbC+UCsc9LBm3CoQAI300Ca2c7B
096vQDEqAUGD1MbBoqygQBB6Q0D/EILBXlWqQOvAmEB2dYXBkDFjQDKsPUDZcabBJmILQBU5eEDe
95bBMTRBQAVbhkDgIIvB

>  <OMEGA_E>  (3) 
FCCHP5rGhj9bT48/

>  <OMEGA_NBR>  (3) 
     10410

$$$$
290125
     RDKit          3D

 68 72  0  0  1  0  0  0  0  0999 V2000
    5.1260   -2.1476  -19.7698 C   0  0  0  0  0  0  0  0  0  0  0  0
    6.3571   -1.2953  -21.7373 C   0  0  0  0  0  0  0  0  0  0  0  0
    6.9155   -0.2123  -22.4507 C   0  0  0  0  0  0  0  0  0  0  0  0
    5.2614    0.2448  -20.1818 C   0  0  0  0  0  0  0  0  0  0  0  0
    5.5650   -1.0641  -20.5840 C   0  0  0  0  0  0  0  0  0  0  0  0
    6.6754    1.0927  -22.0012 C   0  0  0  0  0  0  0  0  0  0  0  0
    5.8145    1.3014  -20.9107 C   0  0  0  0  0  0  0  0  0  0  0  0
    6.4654    2.8498  -19.1833 C   0  0  0  0  0  0  0  0  0  0  0  0
    4.2349    3.3548  -18.9400 C   0  0  0  0  0  0  0  0  0  0  0  0
    7.3028    2.4003  -22.3699 C   0  0  0  0  0  0  0  0  0  0  0  0
    6.4943    6.0101  -21.4381 C   0  0  0  0  0  0  0  0  0  0  0  0
    7.3056    4.7141  -21.3708 C   0  0  0  0  0  0  0  0  0  0  0  0
    4.7768    5.9650  -16.9524 C   0  0  0  0  0  0  0  0  0  0  0  0
    7.1343    5.5531  -17.7264 C   0  0  0  0  0  0  0  0  0  0  0  0
    5.2917    3.8747  -22.7564 C   0  0  0  0  0  0  0  0  0  0  0  0
    5.1414    7.4535  -16.8098 C   0  0  0  0  0  0  0  0  0  0  0  0
    7.4100    7.0566  -17.5751 C   0  0  0  0  0  0  0  0  0  0  0  0
    5.8370    4.9296  -23.7092 C   0  0  2  0  0  0  0  0  0  0  0  0
    6.0227    6.2542  -22.9042 C   0  0  2  0  0  0  0  0  0  0  0  0
    5.7680    2.7398  -20.5151 C   0  0  1  0  0  0  0  0  0  0  0  0
    6.4129    3.4805  -21.7298 C   0  0  1  0  0  0  0  0  0  0  0  0
    6.0341    5.0775  -16.7430 C   0  0  0  0  0  0  0  0  0  0  0  0
    4.9120    3.9203  -25.8376 C   0  0  0  0  0  0  0  0  0  0  0  0
    8.3055    6.8037  -23.7285 C   0  0  0  0  0  0  0  0  0  0  0  0
    4.8986    5.1457  -24.9037 C   0  0  0  0  0  0  0  0  0  0  0  0
    5.7093    3.5682  -16.8935 C   0  0  0  0  0  0  0  0  0  0  0  0
    4.7726   -3.0159  -19.0775 N   0  0  0  0  0  0  0  0  0  0  0  0
    5.4615    3.1792  -18.2831 N   0  0  0  0  0  0  0  0  0  0  0  0
    4.3890    3.1514  -20.2196 N   0  0  0  0  0  0  0  0  0  0  0  0
    3.0202    3.6984  -18.3651 N   0  0  0  0  0  0  0  0  0  0  0  0
    7.6394    2.5966  -18.9320 O   0  0  0  0  0  0  0  0  0  0  0  0
    6.1808    7.7978  -17.7578 O   0  0  0  0  0  0  0  0  0  0  0  0
    6.9002    7.1647  -23.6261 O   0  0  0  0  0  0  0  0  0  0  0  0
    6.4882    5.2427  -15.4732 F   0  0  0  0  0  0  0  0  0  0  0  0
    6.5344   -2.3066  -22.0723 H   0  0  0  0  0  0  0  0  0  0  0  0
    7.5184   -0.3873  -23.3295 H   0  0  0  0  0  0  0  0  0  0  0  0
    4.6191    0.4308  -19.3338 H   0  0  0  0  0  0  0  0  0  0  0  0
    8.3266    2.4608  -21.9722 H   0  0  0  0  0  0  0  0  0  0  0  0
    7.3264    2.5202  -23.4631 H   0  0  0  0  0  0  0  0  0  0  0  0
    5.6169    5.9278  -20.7798 H   0  0  0  0  0  0  0  0  0  0  0  0
    7.1212    6.8523  -21.1098 H   0  0  0  0  0  0  0  0  0  0  0  0
    8.1411    4.7743  -22.0837 H   0  0  0  0  0  0  0  0  0  0  0  0
    7.7011    4.5888  -20.3520 H   0  0  0  0  0  0  0  0  0  0  0  0
    4.0190    5.7036  -16.1991 H   0  0  0  0  0  0  0  0  0  0  0  0
    4.3703    5.7861  -17.9587 H   0  0  0  0  0  0  0  0  0  0  0  0
    6.8050    5.3515  -18.7565 H   0  0  0  0  0  0  0  0  0  0  0  0
    8.0613    4.9970  -17.5224 H   0  0  0  0  0  0  0  0  0  0  0  0
    4.4235    4.2800  -22.2160 H   0  0  0  0  0  0  0  0  0  0  0  0
    4.9859    2.9856  -23.3273 H   0  0  0  0  0  0  0  0  0  0  0  0
    4.2503    8.0679  -17.0060 H   0  0  0  0  0  0  0  0  0  0  0  0
    5.5011    7.6450  -15.7881 H   0  0  0  0  0  0  0  0  0  0  0  0
    7.8112    7.2556  -16.5705 H   0  0  0  0  0  0  0  0  0  0  0  0
    8.1433    7.3721  -18.3320 H   0  0  0  0  0  0  0  0  0  0  0  0
    6.8197    4.6046  -24.0815 H   0  0  0  0  0  0  0  0  0  0  0  0
    5.0301    6.7240  -22.8404 H   0  0  0  0  0  0  0  0  0  0  0  0
    4.2336    4.0971  -26.6852 H   0  0  0  0  0  0  0  0  0  0  0  0
    5.9329    3.7568  -26.2131 H   0  0  0  0  0  0  0  0  0  0  0  0
    4.5794    3.0316  -25.2810 H   0  0  0  0  0  0  0  0  0  0  0  0
    8.8430    7.5777  -24.2960 H   0  0  0  0  0  0  0  0  0  0  0  0
    8.7374    6.7221  -22.7201 H   0  0  0  0  0  0  0  0  0  0  0  0
    8.3991    5.8379  -24.2467 H   0  0  0  0  0  0  0  0  0  0  0  0
    3.8751    5.3064  -24.5341 H   0  0  0  0  0  0  0  0  0  0  0  0
    5.2286    6.0315  -25.4662 H   0  0  0  0  0  0  0  0  0  0  0  0
    6.5602    2.9853  -16.5113 H   0  0  0  0  0  0  0  0  0  0  0  0
    4.8122    3.3403  -16.2991 H   0  0  0  0  0  0  0  0  0  0  0  0
    3.6684    3.2605  -20.9042 H   0  0  0  0  0  0  0  0  0  0  0  0
    2.2072    3.8014  -18.9381 H   0  0  0  0  0  0  0  0  0  0  0  0
    2.9576    3.8430  -17.3776 H   0  0  0  0  0  0  0  0  0  0  0  0
  1  5  1  0
  1 27  3  0
  2  3  2  0
  2  5  1  0
  3  6  1  0
  4  5  2  0
  4  7  1  0
  6  7  2  0
  6 10  1  0
  7 20  1  0
 20  8  1  1
  8 28  1  0
  8 31  2  0
  9 28  1  0
  9 29  2  0
  9 30  1  0
 21 10  1  6
 11 12  1  0
 11 19  1  0
 12 21  1  0
 13 16  1  0
 13 22  1  0
 14 17  1  0
 14 22  1  0
 15 18  1  0
 15 21  1  0
 16 32  1  0
 17 32  1  0
 18 19  1  0
 18 25  1  0
 19 33  1  0
 20 21  1  0
 20 29  1  0
 22 26  1  0
 22 34  1  0
 23 25  1  0
 24 33  1  0
 26 28  1  0
  2 35  1  0
  3 36  1  0
  4 37  1  0
 10 38  1  0
 10 39  1  0
 11 40  1  0
 11 41  1  0
 12 42  1  0
 12 43  1  0
 13 44  1  0
 13 45  1  0
 14 46  1  0
 14 47  1  0
 15 48  1  0
 15 49  1  0
 16 50  1  0
 16 51  1  0
 17 52  1  0
 17 53  1  0
 18 54  1  6
 19 55  1  1
 23 56  1  0
 23 57  1  0
 23 58  1  0
 24 59  1  0
 24 60  1  0
 24 61  1  0
 25 62  1  0
 25 63  1  0
 26 64  1  0
 26 65  1  0
 29 66  1  0
 30 67  1  0
 30 68  1  0
M  CHG  1  29   1
M  END
>  <OMEGA_C>  (4) 
zAekQKFxCcBzKJ7Bfm3LQCLMpb8N5q3BokvdQPhvWb4Fm7PBtl2oQFapej5mdKHBwRSyQMwziL//
q6TBSJ3VQNPeiz9yArDBPxC6QBKUpj83SafBs+TOQLBjNkBYd5nBU4SHQJq1VkA0hZfBdrDpQPud
GUCh9bLBotHPQNJSwEA1gavBIMfpQBzalkBi96rBWtuYQAXhvkB5nofBeUzkQMuysUDCz43B41Wp
QBT7d0AiDbbBAoakQAGD7kCNeobBfh7tQNTP4UDemYzBpci6QBG/nUBcrL3B1rnAQJsiyEDdO7fB
iZO4QGZZL0DnHqTBcDbNQAzAXkCz1q3BVBfBQL96okCe8YXBFC+dQGHlekBas87Bb+MEQdK32UD7
073BLMGcQIKppEDROsfBRLK2QP5cZEDqJYfByLiYQN4DQcDSnpjB1sSuQHt4S0C4Q5LB23KMQD+w
SUC2waHBPUtBQPGxbECv65LBO3b0QFAuJkDPdJfBAsnFQMmH+UAKEI7BTs7cQNNE5UAxAr3BIJ/P
QJPEp0AUknfBFBrRQIKfE8AJlLDB+ZbwQCRPxr6+orrB4c+TQA6S3D6Kq5rBvzkFQal9HUArx6/B
sXHqQLFLIUB4tLvBr72zQECwvUAPPabBRuHjQMZF20Dt4KjBDkICQQzHmEBeq7DBCm/2QBbXkkD4
0KLBypuAQNmDtkCul4HBddmLQGwnuUCBq4/Bk8LZQNg/q0A5DZbB/foAQdPnn0D6LYzBo42NQGz1
iEBzurHBv4yfQJUTP0BZnrrBhAKIQFIWAUE9DIjBYwmwQIij9EAtnHzBuvX5QEMu6EBMkITBzUoC
Qd/n60DZp5LBLzvaQJ1Yk0DVpsDBjfagQBsr10A9ubbBSnmHQEcbg0BEe9XBQNq9QARvcECCtNHB
KYqSQHEGQkCQP8rBAH0NQYR88kAjXsLBlswLQYgb10DcwrXBl2IGQSvQukA9+cHBnwF4QCPOqUC9
RcTB5lCnQGwCwUCvusvBYu3RQKAOP0AtF4TBpf2ZQJ/HVUB3ZILBcMZqQIGrUEDiO6fBI0INQAdK
c0AugZfB3kg9QHvzdUBIBYvBCS6dQIbmE8CJyaPB/b/RQOA3oL+eu6/BANrmQLjC2L27qrPBCRKn
QMp6Bz4Me6PBk/+xQGxZkb+1r6fBK6nbQE0alD9poa/BK+y7QEjUoT8ApqfB+QXOQFaBOUDpc5nB
dx2HQOrhXUBxXpfBXpjsQCRAIkBYBbLBUma+QCeswEA5C6zBpknfQFU0nEAmeavB5F/XQAfFtkB6
wXbBEvPSQAtNw0A5RY/B8oGmQFbTa0AF77bB9p6vQAUY1EBplnTB0XKqQIv63UBZZI3BphixQEMC
nECgZ77BXSGvQGy5xkAf17fBBNW2QEVPLUB/FKTBL9HJQKVFYED59q3Br3fZQB2OoEDTfYbB0aiU
QHq3bUBbX8/B3MS+QK32CEHgKbvBPeeRQIaYnkBBD8jBABS4QFx3dkAIQIfB5UyMQNeDUcCFpaDB
H4KvQB9JWkA/aJLBZguKQEuZQkDMTaHB7ihCQEvKeEDapZLBcoXzQNtQKED4iJfB4mytQKkl8kCg
E4PBxwHKQAHT5UCiOL3BeLgAQezFj0AfkIfBB9nZQDJsDsBH4LLBU1j/QJiRS76At7nBml2PQHzc
aT6UPZ3BU3gFQW5ILUCax63BZZfxQHhjKkAUrLrByMGiQDvGuEBR96bBeTTNQJR/3kDHMKnBwcb4
QKIvokD4WrHBGirtQNc1m0DGY6PBsF/0QMc+ykColnTB9QLWQDoHnkBdQWrBcGbQQCJrs0AJGZfB
LtTuQEHK2EDqQ4/BUGWHQM9+d0CoFbPBCMOkQOToMEAgu7vB+5GSQIA3wEA2lXTB6qqxQC7l5UBI
cGXBn6ynQIWU9kDFpZPBQSiOQDIOyUDMn43BqNjRQOr2l0DGd8HBvcWNQCT00UAuu7fBHgR8QOGu
dEBFDdbBbl21QOy5Z0D0idLBwpOMQGccNEAkvMrBK7zUQDSPE0EQjL/BR8GdQO3nC0Gq1r3BzkDB
QNs1DEF1ibLBygRiQLZaoUDvAMXBEcyZQHkpu0C/zszBj2LEQEt7P0BUsoLBgM6ZQGwnhkA/r4PB
XIdiQCX+PEAiUabB9LgLQKAReECF2pbBZ/NBQK1rhkD4DIvBGIKaQJwcE8AdK6TB5AzQQJ66oL85
+6/BEALmQDjS7b2Ax7PBD9ulQB3+DD6ItaPB2SKwQO7bkL9t+qfB/YjbQBw6kz8Opq/BSIu7QB6e
oT/jvKfBCgHOQMRlOEAhY5nBWyWHQDEuXUBdZJfBZWztQI/nIUDNz7HBcxe/QG3owEA94avBvJPf
QN9dnEDu1arBYSTfQJC2skC7CXjBQSSgQLtDyUAubIfBgxyoQEWEbUD9+rbB3KbAQMbMskAslWTB
31KEQN+JyECgX3rBm+ezQJuxnECZX77BFWOyQHl4x0DP1bfBEv+2QBoPLUAAFqTBCJ7KQJ17YEAS
0K3BtbPGQJTSqUBaoobBbRKfQBhPwkDoANDBrf/EQMoFCUFUBrvBk+CUQE/GnUBHGcjBrWa4QD+s
c0BMOofBkvCIQLQlUMCpFaHBYDevQIQ/V0BsUZLBnFCKQL6hQ0AcZqHBXzVCQIe1d0BHqJLBD7Xz
QEaFKUDDYJfBWZyeQMx30UBH2mfBFZ3PQNGV5UBhyLzBAO/hQHdkskB52o7BN6HXQNixDsAEM7PB
j5n+QD2LXb72y7nBUfqNQHuRdj6ChJ3BaL0FQSiaK0ASZa3BUDPzQBbbKkCEa7rBzU+iQE8KuUDd
NafBWV7NQJGZ3kAPyKjBgaT6QIN7okAVQLDB7TDrQDoEm0ALiaLBjuDuQMse0kAPKXnB03n3QKKz
mUCAunXBXSyMQFkPwEBnS47BeW6sQN3k6UA7oYjBm8uIQEUvekCNSbPBTkGmQOLAMkDmzbvBrcmy
QHqxkkBGlWLBGrrSQIF2u0BkHVbBtzZWQCP24EA+qnvBcSZrQPTFqEBjm3jBBLXUQKwDmED0V8HB
u4mRQPAP1EBkIrjBfyyIQF10wUAEr9bB/4+cQI894UCw2cvB58G/QLpIvkBrHNPBD73cQPQ8E0Fm
Cr/BOgSlQK5XDEHnTb7BkCbFQNFoDEGnY7LBpzuXQKE2fkC4YMzBfBNoQCUQokD+HcXB9yPSQMKA
S0A58IPBDUubQD+Ua0BLYoLBvYFjQOz5P0CkgabB8PoLQNMbeEDf55bBFL9BQH8whUBpAYvB7gyd
QExtE8CtCaTB/W3UQJ6Bnr8DLK/BQEXqQIJftL34y7LB8DWmQG7ODz7Hu6PBfZeyQC05kL+yqqfB
3ardQL2Tlj/0CK/BbYS7QIdVoz+irqfBpcTMQI7XNUCWcpnBd6SGQAWXXkDAVJfBMA3vQL9CJEAG
HrHB4Jy/QBfHwUDmSqvBdMbfQMQ9nUAk6qnBZg3nQMjBaUCufWzBCN//QFgllkC2W4fBDlWqQKxa
b0COorbB23ILQcslYkCn4mXB5EgXQbffkEAnv4PB/MC3QDdvnUD44L3B7LC0QAUgyEC1XLfB4CG2
QDdrLUAk96PByXPLQAQhYkDNR63Buo3jQO1KY0ADgoLB2kKfQO5BcUA5Rs/B2gjHQFh2CUEnSLrB
c1ubQPiCoEDpCsjBe5y0QBwFakBhkIbBR3mLQLrzUMBYHaHBOPiuQIr4WUAATpLBuZuJQFl7REBu
UaHBpy9BQGJbeUDOmpLBksjyQJECJEDtgZjBJ0IYQTCqkUDGYXDByvvRQC+Y5kDrILzB8J3yQB1N
E0BYpYTBzZPdQMiHDcA9JLLBRTMCQR99N76AZ7jBdBCNQOmLbz6f2p3BllkGQWrTLkCzj6zBSWj1
QJBaLUCbsrnBaCaiQNcRukA24abB34DNQOd+30D6GajBRvH7QBeRo0Af867BRZ/pQOyRm0DueaHB
4JzUQKOvNUANDmXBnEzaQP/jk0AlI2fBT8LzQG9UtUDunoTB/lL+QBujlEBDJJDBXJ+KQLbHfEDx
M7PBysSoQA2bNEDXd7vBdckMQWP/aUBHclTBTHMRQXWRIkBhemrB/o0dQTdRZED6r4bBmPggQes3
q0DiAIfBVDPZQMnEmEBzXMDBKbWTQEcu1EC99rfBS5CKQGsAeUCAU9bBB6/AQH/QaUC139HBKlOV
QIAfOEDTxcrBsd3eQFjUE0EXKr7B5C+nQAjFDEE8pb3BDrXGQESoDEHioLHB4YlzQMP+o0DnjsXB
zSClQELXvEDJqMzBrDyhQH3fOkA9LYLBrt+oQF1vlUBWzITB2AdiQHLKQEBvaqbBEOgKQOhxeUDX
15bBfsxAQLE/hkCV+IrBmzicQArOE8AFJqTBXErRQBl1n79W+6/BH8DmQKSbx73LyrPB+46mQOn+
BT7ZtKPBnVqxQFkzkb+i+KfBT8HbQNkYlT8Aq6/BLL67QJHNoT+5wKfBr+fNQH6JOEC0ZpnBdwWH
QILvXED1YZfBeQjtQPxYI0Ay17HB1CW9QPv9wEBC5qvBJCDeQN/lnED22qrBXOjyQAdps0Bbx4nB
9bO7QOYmvEC4P3bBKiSnQO4DbUBb+LbBSVEJQV+Ro0AgKYHBjr7dQASlq0BjVGbBnGCyQKqWnEBY
YL7BLVWwQM5dx0CD2bfBVbi2QHDwLEBCFaTBBtPJQKLxYEC+0q3BmnXDQFebqkCDnYbBFgadQODe
wUCJAtDB0fvBQPAVCUFdDLvBvEuTQPQ/nUDMF8jBCt63QObRc0CnOIfBTAyLQJA9UcDTDKHBPiCv
QAjEVkCyTpLB+fmJQCphQkAGWaHByYJCQIpReUCDq5LBIofzQHTdKEDcZpfBEBIEQd5ntkCM3m3B
gijNQPfY5UAzzrzBM7GpQJXfwECVa43BZ0XZQOXeDcArMrPBy1z/QF6gQL5s0LnBxa2OQGIeZj6I
gZ3B8YYFQXLeLUAvcK3BU67yQBF2LECac7rBjnygQPq9uEDEOafBFgfLQAbh3kA0zqjBhhj5QNBi
o0DJRbDBOcTpQKa6m0A8jqLBRz/3QDES1kAi3YrBgtb5QBHWokCtWJHB+OGbQCzRsUBLx3DBYvi8
QKlR30DUq3bB7seHQKDheEBIQrPBWZ+lQIIvMkDpybvBolQIQTGCgEB/jIDBGawZQVrfrEChboPB
GHPYQHCFukCXmVbBx/TaQKitiEBr3GTBBDnTQBBWmEBfW8HB9FKPQOKI00A+JbjBcByGQDO3wEAg
r9bBlymaQJPJ4EA13cvBGr69QOU4vkDeH9PBunLZQABzE0ELEr/BouihQCYzDEFeUr7B3xPCQGZ6
DEHRabLBGwCWQK4vfUA6XczBMddkQIUooUCSGsXBk87SQPyETkBlAYTB2jKbQNFSaEBYUoLBwoZi
QIZhPUAwZKbBED8MQJJfekDN6JbBjH9CQHFUhkBFC4vBwdOiQGyXFcALx6HBU27VQITbpL8BVq7B
u+boQOiJD74cwrLBGjCpQGhM5T25lKLBJdC1QHYElb/BQqbBDh/cQObakD+1NK/B/Ru8QJL+nj8j
TKfBdIrNQBEbOkBmsZnBIR+HQKyEX0BOYZfBx+HrQDQjIUAr9LHB6d7rQPZBtEAVxbTBrNbbQHnG
m0BJ4arBlc/pQGJaoUAci3PB2DntQCDltUD7LI3BrgSlQA5ba0D/hrbBN1ELQdUmtkB53XDBL8oM
QRuwyUAvQYvBe2a0QHzujkDXicDBh8fHQM2nukDoE73BVu+1QJcTLEAPCqTB9ZLIQKnkXkD92K3B
LA3lQH4ykEDKR4XBzll1QA9MV0CrXMzB+VveQFIT/kD5FMXBeX6OQJ8clkDca8jBkE24QAbldkBI
QYfBX1aTQGDuUsDMJJ7BcDuwQGe9YEDntpLBKFeJQG5PQUDnNKHBDk5CQMYzeUBJhpLB2BvzQNZ6
JkA7YJjBjHYOQeLA10AiSIDBP/LYQMtr0EAVYMbBRvcBQWyNY0C1KobB3bHeQHIqEcBfILHBAK8A
QS1zdL42z7jBZqKRQH1DXT44UJzBZj0FQZRDLkC17K3B//3vQITaJ0A2p7rBWtD3QJbI00ARPbLB
3gQDQaAHokDJfrjBetz2QKfdlkBAYKXBKAzDQHQBr0AF5KbB6WTmQEzJhkDYH2jB7eLQQANtuUDQ
cnDBEJPUQF6OzkDj+IvBjIDrQKTfqUB1b5XBuzKKQFI1h0BB4rLB6vyZQM/YK0BFI7nBPZ0MQQXh
w0DrtWDB07MXQfyDnUB3BHPBtDYZQbCesUCz4YzBjf8OQcw35UBCoJDBZU7NQFNZeEBsn8TBXFCu
QCMTzkDlbLnBbU5AQP8XZUCD4tHBJDmTQPp1MUDRiNDBiRZdQHXYMkCreMXBm3brQP7kBUG5fszB
4DC/QLFuBkGpVcPB8Yn0QHMoAkHZbb7BASRrQHDOqEBuU8TB4D+aQDIdqECTY8/BGie2QKv0O0Dx
eILBh4CfQCsakkDin4TBMnlgQE3NOUADFKbBwAkLQJc4dUAmh5bBYgNDQHLRh0BdCIvBPJShQJ9m
FcAXtqLBY+vUQMS8ob8V+a7B08/oQPCW3r1AKrPBBI+oQDhW7T3oFqPBYAC1QACvk7/U9KbBTzXc
QDkflD/Iba/B1QW8QON7oD8mjafBD7fNQIHoOUBYrZnB/gyHQCXIXkAEYZfBj+7rQGReI0Cr+7HB
JxG5QAwrwEA0tazBZRvbQMMXnUAscKvBvgbhQLnVskBEo3fBZfHFQFLDyUBl943B5cKkQJGUZ0BN
JbfBNQ/+QCf62kBEr3fBcRfkQOrE8ED2WY3B+Y2uQDo9mUCs3L7BznarQNSuxEBHp7jB0+O1QICC
LECRJqTBdPjHQIqkX0C3Eq7BrJbYQJLZo0DNbofBYiiXQNihu0C2s9DB90a6QA7QB0HedrzB+gKP
QBW5l0CqesjBWry5QAR2eUD3kYfBXcORQLUcU8BwRJ/BduCvQDdtXEC4nJLBojWJQCviQECEN6HB
VrlCQBx3ekCWkJLBBhrzQDkHJ0C42pfBYiPrQASI/EBCS4LBhPPGQE+H40BR7b3BmRf/QA2JmEAF
qIvB+BfeQHBED8C45bHBiLoAQTYQSr4tLrnBPL2QQLt4Vj7P35zB7v4EQaPTMEB3ua3BWP3wQAjK
KkBppLrBNNucQHbJt0A+4afBoEbGQIDP3kDs56nB/dH1QIazo0Dt7LDBWuHmQPcunUAgJaPBqezw
QDcBmUDGtG7B6WLCQHGoukBO6G/BnX2mQIGO0kDororBhk7CQH0BwEBfX5bBlGqFQFGRckBsYrPB
5dujQByPK0A1vbvBKvwAQRGL5kBhLWfBM8UOQZ9+0kB5UX7BnXMBQUOo6ECQF5HBFIXVQEvvBUEd
oJHBkWHPQHyclUAM6MHBjA2KQJG1z0AI7LjBovF/QIjquEDRSdfBzn6TQKTw2kAJyczB8dK3QNum
uED+5NPB2crQQJxWEkHItsDB9tiZQCkoCkHlrb/B/Yi6QHm5C0F64rPBSICSQGxQcUAlhszBSlhc
QP/xmkAwasXBFMjIQJVgREBrLoPBbK2bQNHIhUDaloPB2wdgQFsGOUDpDKbB8JELQEpNeEAxnZbB
n7VDQOlCiEBSDovB3ECiQJjgFcASWKLBWg/VQO6/o7/tvq7BDKLoQMShA75iELPB2vqoQOBB3z25
1qLBrmq1QHDdlL/Mq6bBLvzbQFCdkT9PYa/BtjK8QCoxnz96Z6fB2OLNQGupO0CRuZnBnB6HQKkm
X0ATWJfBVFzrQDhxIUBVIrLBljq6QJOVv0BF8azBEMPbQN65m0A416vBDjzcQGj7wkB12o/BDPPW
QMTTukBf7HfBuAekQKe2ZUDjHLfBDuMFQTRQtUD/MY/BYpIDQYCsrkAc53fBovytQJW+l0BmA7/B
CpGrQKiAw0Cj1rjBIu21QDZILEAcIaTBQLXHQM0KXkBwLq7BvOvAQNBur0B/v4bBfFGRQK7tXkBO
g8/BrFXxQAX540DU973BSFSOQFlSmEDTmcjBBoO6QOSce0CzsIfBi6ySQMmdU8D8157BCguwQMe9
XUAVpZLBfzSJQAGuQEBoKaHBDuVCQA/jeUCacZLBGCLzQG5QKEDj1pfBLoEOQSnCwUD1+oTB2t7C
QFwH5UApjL7BJs6ZQL2RwkDGE4fBY0DeQIVuEMAHnbHBi4cAQcaYYb7QIbnBSV6RQIy/Uj7Lk5zB
ndkEQS5sL0BMB67BX9HvQC/vJ0BS07rBOGWeQMoPuEDu5KfBSlzIQPcZ3kAKWKrBgej1QMqWoUAa
jLHBtozoQLvum0BhpKPBnW3aQKIS5kDvU4/Bsh7PQFJjuEAPlJfBi83GQAtjqUDk8GrBFPTTQE53
3UDGLHXBbf+EQLwWckATQrPBO2uiQMEnKUATlbvB6BUHQaphkkBPGZDBCvsOQWkLxUAqn5XBfPQK
QWMtukBf/2jBUxoFQRSoi0AG1XjBJbHOQJihk0C7GcLBfZaJQNSqzECeqbjB46d0QPkZY0D7J9bB
0OuxQL3LWECbvdLB+NeJQOWqJkBqkMrBSaL+QOfS/kD9lcLBm3f7QCux5kBqkbXBzg79QPuXxUBr
T8HBFxJbQCAhm0Awe8XB5JyVQIsxtEBhqM3BPEHYQAoHXEDxIIXBMz2gQC3LaECxU4LBV+dfQHBv
OEBH96XBKmcLQEmUdkBsaJbBSTtEQKw0iEAc9YrB

>  <OMEGA_E>  (4) 
f2yKP7q/kz9fL5Q/mjGUPxJPlD/L948/s1+TPyzHkj8=

>  <OMEGA_NBR>  (4) 
     19288

$$$$
290123
     RDKit          3D

 68 72  0  0  1  0  0  0  0  0999 V2000
    5.3987   -2.2245  -19.8336 C   0  0  0  0  0  0  0  0  0  0  0  0
    6.6216   -1.2667  -21.7610 C   0  0  0  0  0  0  0  0  0  0  0  0
    7.1203   -0.1360  -22.4466 C   0  0  0  0  0  0  0  0  0  0  0  0
    5.3319    0.1673  -20.2561 C   0  0  0  0  0  0  0  0  0  0  0  0
    5.7665   -1.1087  -20.6405 C   0  0  0  0  0  0  0  0  0  0  0  0
    6.7586    1.1432  -22.0017 C   0  0  0  0  0  0  0  0  0  0  0  0
    5.8207    1.2703  -20.9619 C   0  0  0  0  0  0  0  0  0  0  0  0
    6.4032    2.7512  -19.1883 C   0  0  0  0  0  0  0  0  0  0  0  0
    4.1997    3.3247  -18.9221 C   0  0  0  0  0  0  0  0  0  0  0  0
    7.3232    2.5040  -22.3035 C   0  0  0  0  0  0  0  0  0  0  0  0
    6.1887    6.0188  -21.3297 C   0  0  0  0  0  0  0  0  0  0  0  0
    7.0889    4.7921  -21.2141 C   0  0  0  0  0  0  0  0  0  0  0  0
    5.7207    5.8621  -17.5940 C   0  0  0  0  0  0  0  0  0  0  0  0
    6.7689    5.1042  -15.4292 C   0  0  0  0  0  0  0  0  0  0  0  0
    5.2322    3.8377  -22.7535 C   0  0  0  0  0  0  0  0  0  0  0  0
    6.5431    7.1539  -17.5015 C   0  0  0  0  0  0  0  0  0  0  0  0
    7.5544    6.4252  -15.4167 C   0  0  0  0  0  0  0  0  0  0  0  0
    6.4765    4.7128  -16.8801 C   0  0  0  0  0  0  0  0  0  0  0  0
    5.7277    4.9611  -23.6555 C   0  0  2  0  0  0  0  0  0  0  0  0
    5.8235    6.2796  -22.8092 C   0  0  2  0  0  0  0  0  0  0  0  0
    5.6984    2.6851  -20.5163 C   0  0  1  0  0  0  0  0  0  0  0  0
    6.3289    3.5017  -21.6806 C   0  0  1  0  0  0  0  0  0  0  0  0
    5.2056    6.2021  -25.8092 C   0  0  0  0  0  0  0  0  0  0  0  0
    8.1337    6.9472  -23.4587 C   0  0  0  0  0  0  0  0  0  0  0  0
    4.7567    5.1010  -24.8389 C   0  0  0  0  0  0  0  0  0  0  0  0
    5.6832    3.3973  -16.8926 C   0  0  0  0  0  0  0  0  0  0  0  0
    5.0996   -3.1159  -19.1450 N   0  0  0  0  0  0  0  0  0  0  0  0
    5.4015    3.0150  -18.2687 N   0  0  0  0  0  0  0  0  0  0  0  0
    4.3101    3.0445  -20.1937 N   0  0  0  0  0  0  0  0  0  0  0  0
    3.0683    3.8768  -18.3394 N   0  0  0  0  0  0  0  0  0  0  0  0
    7.5914    2.5364  -18.9666 O   0  0  0  0  0  0  0  0  0  0  0  0
    6.8128    7.4561  -16.1139 O   0  0  0  0  0  0  0  0  0  0  0  0
    6.7175    7.2616  -23.4086 O   0  0  0  0  0  0  0  0  0  0  0  0
    6.8936   -2.2579  -22.0925 H   0  0  0  0  0  0  0  0  0  0  0  0
    7.7704   -0.2557  -23.3007 H   0  0  0  0  0  0  0  0  0  0  0  0
    4.6388    0.2945  -19.4376 H   0  0  0  0  0  0  0  0  0  0  0  0
    8.3188    2.6177  -21.8498 H   0  0  0  0  0  0  0  0  0  0  0  0
    7.3956    2.6592  -23.3901 H   0  0  0  0  0  0  0  0  0  0  0  0
    5.2675    5.8483  -20.7533 H   0  0  0  0  0  0  0  0  0  0  0  0
    6.7167    6.8955  -20.9264 H   0  0  0  0  0  0  0  0  0  0  0  0
    7.9781    4.9357  -21.8456 H   0  0  0  0  0  0  0  0  0  0  0  0
    7.3995    4.6694  -20.1660 H   0  0  0  0  0  0  0  0  0  0  0  0
    4.7445    6.0141  -17.1105 H   0  0  0  0  0  0  0  0  0  0  0  0
    5.5693    5.5994  -18.6514 H   0  0  0  0  0  0  0  0  0  0  0  0
    7.3656    4.3156  -14.9474 H   0  0  0  0  0  0  0  0  0  0  0  0
    5.8223    5.2327  -14.8838 H   0  0  0  0  0  0  0  0  0  0  0  0
    4.3091    4.1554  -22.2465 H   0  0  0  0  0  0  0  0  0  0  0  0
    5.0279    2.9436  -23.3608 H   0  0  0  0  0  0  0  0  0  0  0  0
    7.4936    7.0226  -18.0394 H   0  0  0  0  0  0  0  0  0  0  0  0
    5.9772    7.9817  -17.9536 H   0  0  0  0  0  0  0  0  0  0  0  0
    7.7210    6.7388  -14.3755 H   0  0  0  0  0  0  0  0  0  0  0  0
    8.5240    6.2759  -15.9142 H   0  0  0  0  0  0  0  0  0  0  0  0
    7.4323    4.5504  -17.3997 H   0  0  0  0  0  0  0  0  0  0  0  0
    6.7288    4.7100  -24.0359 H   0  0  0  0  0  0  0  0  0  0  0  0
    4.8130    6.7141  -22.8065 H   0  0  0  0  0  0  0  0  0  0  0  0
    4.4891    6.2733  -26.6407 H   0  0  0  0  0  0  0  0  0  0  0  0
    5.2471    7.1644  -25.2777 H   0  0  0  0  0  0  0  0  0  0  0  0
    6.2028    5.9583  -26.2044 H   0  0  0  0  0  0  0  0  0  0  0  0
    8.6774    7.7765  -23.9349 H   0  0  0  0  0  0  0  0  0  0  0  0
    8.5128    6.7993  -22.4368 H   0  0  0  0  0  0  0  0  0  0  0  0
    8.2845    6.0271  -24.0424 H   0  0  0  0  0  0  0  0  0  0  0  0
    4.7128    4.1443  -25.3800 H   0  0  0  0  0  0  0  0  0  0  0  0
    3.7571    5.3504  -24.4533 H   0  0  0  0  0  0  0  0  0  0  0  0
    6.2747    2.6076  -16.4062 H   0  0  0  0  0  0  0  0  0  0  0  0
    4.7369    3.5343  -16.3488 H   0  0  0  0  0  0  0  0  0  0  0  0
    3.5583    3.0708  -20.8525 H   0  0  0  0  0  0  0  0  0  0  0  0
    2.2679    4.0860  -18.9012 H   0  0  0  0  0  0  0  0  0  0  0  0
    3.0531    4.0657  -17.3575 H   0  0  0  0  0  0  0  0  0  0  0  0
  1  5  1  0
  1 27  3  0
  2  3  2  0
  2  5  1  0
  3  6  1  0
  4  5  2  0
  4  7  1  0
  6  7  2  0
  6 10  1  0
  7 21  1  0
 21  8  1  1
  8 28  1  0
  8 31  2  0
  9 28  1  0
  9 29  2  0
  9 30  1  0
 22 10  1  6
 11 12  1  0
 11 20  1  0
 12 22  1  0
 13 16  1  0
 13 18  1  0
 14 17  1  0
 14 18  1  0
 15 19  1  0
 15 22  1  0
 16 32  1  0
 17 32  1  0
 18 26  1  0
 19 20  1  0
 19 25  1  0
 20 33  1  0
 21 22  1  0
 21 29  1  0
 23 25  1  0
 24 33  1  0
 26 28  1  0
  2 34  1  0
  3 35  1  0
  4 36  1  0
 10 37  1  0
 10 38  1  0
 11 39  1  0
 11 40  1  0
 12 41  1  0
 12 42  1  0
 13 43  1  0
 13 44  1  0
 14 45  1  0
 14 46  1  0
 15 47  1  0
 15 48  1  0
 16 49  1  0
 16 50  1  0
 17 51  1  0
 17 52  1  0
 18 53  1  0
 19 54  1  6
 20 55  1  1
 23 56  1  0
 23 57  1  0
 23 58  1  0
 24 59  1  0
 24 60  1  0
 24 61  1  0
 25 62  1  0
 25 63  1  0
 26 64  1  0
 26 65  1  0
 29 66  1  0
 30 67  1  0
 30 68  1  0
M  CHG  1  29   1
M  END
>  <OMEGA_C>  (5) 
8MGsQJxeDsAoq57BYeTTQAwjor+JFq7BbNnjQLBPC76xkrPBkJ6qQKhEKz5qDKLB6Ia4QOzojb/J
H6XB2kbYQPtVkj99A7DBCUO6QAqaoj/2safB7ObMQFgUMECKgZnBlWOGQMXHVECDYJfB6VfqQIJB
IECAbbLB6QnGQPyZwEA2o6rBjdjiQLRYmUB6tqnBTBC3QAqWu0B2wIzB85rYQPxVo0D43XbBzW2n
QImddUA3B7bBJ2HRQGTs5ED+AozB1L3xQCqbzUCbqnbBVD/PQJzPlkBtCofBJEm3QKjBnkCGPr3B
F1q6QLTyyEBXebbBklm2QC/YK0BzIaTBGobKQLkbYEDNca3BP5SmQPx3xkAkec7B1yMCQUBP3kCC
q7vBwTaYQIo7o0AqtsbBFd21QOVsWUALJIfBqS+jQHhrR8AAKZnBBdmsQD/1QEA+JpLBiOyJQEnZ
QkCZjKHBnF5EQAkeeEASt5LBDO3yQL1TIkCku5fBXQLaQAiY7kAu6YDBzfXWQDRf6EDaRLvBG5jc
QAOCEMBxvbDB1Kb4QBjxgr7gZ7rBZXGUQH7Klj4igJvB8BkFQWyIJ0BPzK7BeKjsQCcwKkDXHrvB
K4+oQIAlu0CvBqbB5O7WQOin3EA3aafBj0z/QHbxnUC8w67BocjsQJRrlUD7U6HBo9KXQKlzwEBG
4ojBuDeyQAYus0D7NZXBsbLrQKgZikCoKG/BiVC6QHFyp0D3I27B2uOJQLj4hEDv+LHBjOSgQBpk
PED24rrBbMvvQMu44ECpUJDBkUW/QFxq/0DwoI/BYxL3QCyk10A4AmbBbGIIQenTyECdoH7BW9Xt
QBydkUCuMovBX1LXQHu4lkCHScDBvwOaQDva1kDFc7bBd6aPQBm/yEA3INXBN+inQFxC5UC6OMrB
73zGQAWqvkCOotHBkdYKQf/Y+ECfer/BUzQIQdKT2UB3frPBRY0EQc/dwEDpVsDBE8+WQBKehEBG
CsvBtHRwQGk2q0ByoMPBLMrIQMfiJkDcP4PB8JSXQDUxYkBNyoLBE7tjQJuIREDi0abBICURQFzA
gkCuNZfBAmZDQC4agkAr3IrBV06kQD+JCsC7Vp7BBYnLQDozpr92D67BfBPdQJb9Vr7EwrPBfhmp
QFYJbD6kaaHBQYeyQLqlib8kw6TBYF3VQNLLiz9rGLDBVXC6QCZ1pT+EPafBcfLOQNnVNkDLaJnB
bYqHQN66VkAeeJfBB/zoQIbFGUAqGbPBjdjPQH5awEAfXKvBILXpQPy5lkDm96rBzU7kQAb3skBm
+43BdYKYQPQZwEBFGYjBSLCoQMDQeEDW57XB0srsQMoi40DO5ozBtBSkQD6e70Du44bBo9HAQJxb
pEDiKIbBG3W6QEInnkA9e73BeA3AQB52yEC5BLfBK5a4QCHNLkA3EKTB8NHMQG6xXkBrz63B1Tui
QJFcfUBL/s7BdUIEQdqq2kD06r3BIT6dQACEpEA7MMfBxvm2QBauZ0C6IYfBWMaYQIFYQsBN3pjB
vuWuQD+xTEBMNZLBdFOMQOkESECBraHB1nBBQIeybUBE7JLBQ5f0QAVGJ0CPaZfBImPFQCyl+kBp
dI7B75nbQPAU5kDXzLzBDDLRQMSsE8AxzLDB+yXwQB2twb7O1rrB8gSVQNjV0T5Sh5rBUf4EQdfM
HUBPFLDBzgbpQMOvIUCu17vBbha0QOG4vUAZ/aXByivkQNAs20CNx6jBiRMCQbCymEBYwbDB+MX2
QM15kkDP3aLB0i7aQGz3q0D9OZbB//cAQfdcoUACMYzBQnh/QPydt0DhN4LBjVOMQOU/ukBiOZDB
Mi+NQJuQiUACgrHB5HOeQApcQECBf7rBMYH5QEXs6UBy34TBliMCQUkV7UBm95LBTpWHQPGnAUH9
c4jBromvQMWd9UBZaX3BUhDMQEeDqkCS7XvBMyTaQIzCk0DkTMDBICGgQF0T10AqY7bBeieNQICB
g0DZ79XBlqrDQNeBeUBKtNHB2HOZQI2FQUAP6crBiqUMQe7P80B0bcLBmoQLQftz10D+8LXBpZgF
QXcYvEBjOsLBf5F3QOZopkD9fsTBff+lQApnwkA4SsvBYYHSQCCDQ0AuB4TB5XmaQAojWUAfTILB
3hdqQAM1TUDbIKfB5GYNQAeuc0D3hJfBT389QIRGeEBhDIvBWmKlQBp0DMCCmZ7BwyvLQEnxpb+0
bq7BpX3cQJhdSr5AELTBBu6pQCiaVD5faaHBuxGzQLDCi7/p9KTBA2/VQCFvjD+yJ7DBzf26QG2s
oz9cMKfBVeTOQErtNkBGXZnB6FCHQJAeVUDMfZfBdDrpQL65GkBq8rLB8hzMQNYVv0DPkKrBea/n
QF71lkA2lKrB2P6zQHuIqkD8FHPBr0vTQEWCuUDvz4vB/PCnQHC/dkCf87XBDAniQBd2o0CS8WrB
pgwAQfi3sUDtEofBnaOwQBxCoEDfiYXBvm23QP1Hn0B+Jr3BTBK9QPS4yEBTI7bBToO4QA6rLUAv
BKTBLS/MQGAzXkA4uq3BJsykQHmhyEAXBs7BJd8CQVqe3EBZtrzBZrCWQLCApUC4NMbB8qi0QLpY
XkBxDofB7FiaQBQfRcDlM5nBfzmuQCApSEACNJLBOBWMQNCKRUBHqKHBbiRCQMhQb0DS65LBJsH0
QFznKUBaU5fButb/QIFNvED0nXfBnQ3ZQOYB6EC1NrvBiVHQQOArE8AfXbHB3+PuQNDJtL5MRbvB
FU2WQOxJwD6wbZrBH/MEQev8HkAat6/Bux3qQFx6I0AErbvBIBGwQOgMukAoZqXB6eneQGhA2kBa
h6fB7uoAQTTamkCEY7DBhy71QJQVkkAZi6LBixieQPOJlUDzJ2rBp+6qQO0izEAgc3DBz+3LQL3j
20APZovBuQ3TQLoPr0AqN5TBuVGLQMv2hUAKkbHBMPKfQAeIPkB227rBFirkQLiFrUCMHFrB/C/q
QMhQgUC2O2zBA2oEQRHcj0AoFojBr8kLQcj2xUAGPovBVPKQQHBgqkDZaYjBwpnWQMahlkCNnsDB
PBudQOA210DndrXB9amMQBQnzEB9XtTBUySoQGMY50ABssnBfrbDQLrVv0B2nNHBKlULQUxA90DP
nMDBhD0KQQoV1kC547TBKvUDQcfjv0CixMHBy0GTQKg5h0CInMrBQF9vQFF8rkASssLBsr7UQI2O
SUCHiYTBmF2cQCzzPUBUJILBUmtpQCJTSUDSGafBtT0OQBk+d0D2fpfB6t8+QGJIekDTDIvBcQqd
QN+LFMALD6TB5bXRQFz3n7/h8q/BiODmQAbHyb04zLPBP9ymQKJe+j0cqaPB79uxQIg1kr8x6qfB
3a3bQF3NlD8BsK/BE8S7QCYeoT8UvqfBWfjNQFi+OEDmcJnBCyiHQIlUXUCqWJfBYabsQE9LI0AJ
6rHB3Ei8QMa1wEA096vBO4TdQJLSnECwA6vBscm9QGzlukC71XXBWkTxQK9ItEArZYrB7XamQN0U
bEAg/rbBlxLiQA2UqkA+HGfBs7UJQV09pECpZ4LBLfXCQAMqqkA1jobBlU2xQAUxnEASa77BURiv
QKP7xkBR5LfBnpK2QJGtLEDvFqTBGlrJQLiUYECc4q3Bmm6bQAxNwUDlB9DBbyvAQDD0CEG0HLvB
ThGSQGWfnEAaGsjBWCm4QFnvckD9MYfBNyKMQIg0UsAl8KDBbVWvQCAwV0B4UZLB29iJQAPrQUBF
SaHBb/1CQPDFeUB6l5LBd6TzQABCKUBtepfBU6oFQcUhtkAc4W/B95nLQPyo5UA747zBctnZQHQV
DsCNJrPBuWz/QBVqPr7T1rnBnQqPQFwZWj5LcZ3B31sFQalGLkCpjK3BpB7yQBo+LED5iLrBAdSf
QNFCuEB3PKfBRhLKQPOs3kCt5KjBxCb4QMJro0C3hrDB85zpQIvMm0AbwaLB1OaeQCHRr0Didm/B
aV++QM8W3kBYCHbBjaT0QBEh10DpT4vBHJX2QPGkpECEKpLBxSCHQIKDd0BvP7PB6hKlQDA0MUD1
zbvBc4reQI8IuUAIKVfBZfzfQD2Lh0D+wmXBQA0JQfYcgUAa8YHBKaoZQbg4rkAjKIXBD2KsQJOX
u0CstovBViDSQOonmEDDbsHBMP6NQNjp0kDlIrjBCm2EQJ38v0DdrtbBxW2YQNkz4EBb4svBaiC8
QNTdvUAmLdPBxmbXQLZlE0G7Kr/BlfqfQBL2C0HPVr7BrGrAQPxXDEEkerLBUOmUQPn0e0CGX8zB
VG1iQIJQoEC7FMXBiHzTQO8tTkAcFoTBy76bQB0gZkA4QYLBVPRhQM46PEAaRabBlG4MQPw2ekAI
xpbBbGlDQBnjhkAa/orBjeGaQKoQE8ASNqTBnn3QQDUKoL8D/q/BRmPmQDQ13b2sw7PBJwqmQMKr
Cz4Cu6PBvXqwQCmukL/AAajBQL/bQDf6kz9vnq/BAai7QFeioT9Tu6fBwvHNQEILOEA8XpnBfhqH
QKzvXEDOYJfBQ3LtQM9zIkDcvLHBAYm/QNmIwUCxOazBwBbfQD1KnEBzm6rB/6zEQE3VukDav3XB
lha5QLkZyUBbh47BbAKoQNmGbUBQ4bbByBv1QDqYwkDUq3nBwenpQE2/zUDpwY/B+XCtQBuuqkCI
HIXBduC0QMqmm0D4ir7BLwi0QPIOx0DNPrjBM+i2QJXGLECqDKTB4GjKQLKeYEC5tq3Bh9uXQCRP
bUDnfM/Bw5H8QIV+40DXRrzBDE+WQPDXnkBaU8jBItK4QBpydUBdUYfBL0mJQKENUMDLH6HBa5Cv
QA/2WUATbpLBCTWKQNHzQkCkXaHBIUZCQJQteEATrZLBNKzzQPUQKUCbZZfBHoT7QBJp3kC984XB
+nzOQPdq50Coer3BYjDYQBpGDsAyN7PBCwv/QI6CUb7yxLnBOBeOQID5cT6FjZ3BmroFQUZPLECr
Tq3BND7zQOy1K0AQV7rBUh6iQFH7ukC+rafBTz/OQNtB30C5RqnBl3L7QFaxoUBupK/BusDoQN07
m0BFJqLBzQHBQOm6okACDmnB0Nq1QA0P2UBPm3DBHCCrQCHS6EBa/YzBdMSrQMUBvEDT/JXBkO6I
QObCfEBzNrPBNkKlQP3hMUAXgbvBapgBQaCR0UBKYmvBIHYCQX29o0DktXzBjB34QERHrkDgeJHB
agvxQMXa40CGXpbBi72KQOzSrEBKvIPBw6DVQN71lUDbb8HBZbeSQGZg0kAof7jBFrWBQOpPdUDt
QNbB/pO4QHthZEC/iNLBQGaOQAPqNEDtx8rB7zoGQWK//UBOlsDBJn0CQQca5UCtvbPBs5QDQRen
xEAJl7/BUsdqQEUQo0DHZMXBZpGfQAHMukCZJc3BOCrbQJgxbEAyxoXBeSCmQL8xTUCX0IHBeDdj
QGLHPkC0dKbBkhkMQHDHeEBW75bB59lBQAaVhUBRCYvBA6i1QDpDFsDZBZ7B1ajDQKAMqb+alq/B
zf7IQFQxOL7HHLbBN3q4QB8p1T2h2Z/BHFq7QNdAl793f6TBI6vGQInHjD+he7HBfLC+QEtLnT+4
eabB/LvPQK/pN0CJPJjBj/qHQIcgWUB0tJfBN13IQMTKHkAfRbbBTn4LQYCKl0A2iaXBVOACQdeO
YUCu/6vBVfvhQDPYg0DSPWzBse/hQGDp7T8con3BNDPBQNftm0Do5q/B5JUHQQywckAbgGPBqKgH
QfJqzj949XTBjhDcQNmlWEAw0YDB0/DTQCw+w0Cp0KnBDu0CQQQwwkB1+6nBGr28QEiXLEBOQaPB
12/TQOq1XEBN96zBxN7NQEMM80AvLpnBXuoKQTQ180CCmLjB1rvBQMbUx0BdUZ7Bc2uwQLu/bEBd
MYbBuwmxQHlIU8BCx5jBT4GtQHmcT0ANj5HBN4iPQFSvRECHv6HBscJAQGWIdEDp7pPBzQL0QGUd
IUC01ZXB5H4KQVbkFkBnTmHBQtQKQZCDx0AbzLTBFu3FQOuZE8BhE7PBD9DOQP8VlL6Glb7BkLCx
QGpTYz5bbpfBQC/hQP7cIUCEf7zBwCypQLWiL0Cdw7nBoXUGQVhIlECeJJ3BUxIdQei5l0Cq+KXB
zpAJQdsKZUBvILTBVnYIQeuqJkBqEajBeI7JQFQyckB9w2DBLu7eQCaOpkB1vG7BeJvdQIe8pz9c
XobBsjHKQAiawT8N4XHBrYmeQBRNm0CuYK7BVfvGQKMQoUCqfLjBga0TQUP0hUBNoG7BVpQJQVKI
iEC3v1PBEtkJQWIPCj9QynHB9IATQQoR+T/aaoDBUZP1QMCibUCbSIbBOxnKQC3y30B8Rq7BYN0I
Qa1d3EBc56TBcVLAQMvZ9EAjEpHBvuvwQDfE9UCFvZjBYgfBQNqsBkGTEZ7BJCERQdcm9EBc08DB
VAT1QJ7v/0BTd7jBDywVQaplA0FEYrPBkKWeQJJgxUAQqp7B7InOQBXLrUADVpnBtgeXQL7PTEBK
loHB/mOrQAc0mUCf+4XBryRzQDxoRUD3kKfBLjgPQJegeUAw9ZjBemU5QKWQgUDdMozB5SOiQAiY
FcDyi6LBjEzVQESdor+z1a7BpADpQLA/8r0NGbPB+t6oQCjt6z2v/aLBgGu1QPIIlL/00KbBTUHc
QI7rkj+1bK/BRTO8QGQ6oD9tg6fB3dvNQPRxO0Aay5nBWxSHQIvlXkBWYpfBRLjrQFtIIkDzIrLB
rLy5QDXHv0DF+6zBIrTbQASAnEAyAKzB07DYQDQLuUB1QHjBl0jZQNuiwkAECZDB/1ekQBbTZUBU
NbfBPnwEQTuTrUCsrnnBNawEQfBbtkCsEJDBsHHAQN8BrkBBnobBc8ytQHY2mEA2A7/BQouqQPO5
w0Dy1bjBdPa1QOHRLEBXNqTBouzHQBPUXkA7Qa7BtV2SQAqvX0Crn8/BOfa3QBNtB0GazLzBJ4iO
QE2EmECOrMjBwWe6QDP9eEAmq4fBZnySQNx1U8ALGp/BdOWvQDIkXECypZLB7zWJQN82QUCKPaHB
pwJDQFEdekDTeZLBL+TyQEzEJkB03JfB6EIOQTn8wUBRA4bBnY7EQGnY4kBFd77BXJPeQO/PD8Dv
s7HB4c4AQdLyVb6RHrnBQxiRQNiwVz5oxJzBrPQEQc5BMECO9q3BcXrwQFfaKEAl0brBmzWeQDjF
t0Cf4KfBZ4nHQM9x3kAdYqrBWWn1QEGkokAC0LHBfwHpQB7rnECg2qPBkUTKQNz7pkAp+mrBkYzV
QJSM20C6JXXBQ5fWQBmk5UB7Zo/Bj9TKQKzrt0BKmZfBIyWFQPTbcEC4X7PBU1WjQBmGKUAjvrvB
r5cMQRl4uECJCmvBNDIGQfSrikBzMHvBA0MGQQikk0BnR5HBqdgMQelmx0A9l5bBPYmgQFTKvEB/
O4bBJ6fOQNK2lEA2DMLBCuCIQL7+zUDL2bjB9jh3QD12Y0A2UtbBXiKzQBOWWkAkxtLBxxeLQKcI
J0DMucrBGVjNQDgKEkFeWcHBWdOWQECuCUG5i7/BvR66QMJNC0GBO7TB2ShbQCfOmkAOosXBA5+V
QN2UtEBnrs3BK0zYQGyaWUChLYXBqUegQKxRZUDVToLBAvpfQJF9OUByEabB4ZULQODUd0BBd5bB
IG1EQLv6h0BY9YrBrdqWQOZoEMCzd6PBeHfMQJuZo7/roK/B+zDjQIhnJ74WobPB2JekQEghLD6B
RqPBv1CtQMnFjr9Fe6fB/UbaQNIIjz9Zja/BPhi7QF8poj8sfqfBktvOQBp2OkCVW5nBKbiHQFrs
XECNcJfBDy3tQDbFHkCI6bHBeDjBQGekwEDnTKzBAyPhQHGfm0CfIqvBXHGvQHaeykDXo43BubbL
QM17ukBrRXbBM3WoQObqbEBYCbfBsaaDQNfJ1EANd4jBApWeQIORxUCUjG3BtQvKQBM5qkB55YbB
z5e0QH/Fm0BBmb7BSHe0QM7wxkBlOrjBKLW3QArvLUALDqTBk0fLQFJkX0BA7q3BVyKfQHsnwUAx
NdDB3uLIQLBuCEG+pLvBG9eUQGYanUCCLMjBWu+3QLhmd0CKTYfBZpmEQIALTMBtNaDBZdmvQCg4
WUBBWZLB/k2LQOrXRUBVfqHBG+JBQGoxc0AIzpLBLIL0QL5dK0DxUJfBSq+JQOsZ5EDfcnvBD0bS
QPsQ5EAOUb3BdeDSQKzLEMB5zbLBQC77QLWDlr6twrnBQEWNQM6Hmj5l/ZzBYsIFQRV6J0AZlq3B
LrXyQJKIJkBtjLrBO1ykQKp2uUC/l6fBkALQQPg83kDcS6nBazv8QF3soEAXmLDBotbsQAOUmkD/
1qLBYvOpQHXrvEAMoZXBrr7BQEWI6ECxZo7Bo9LfQMhX10BXmXXBB9zZQMtfoUCAKmzBkHKJQIYx
e0BBRrPBts2lQCC9MUCtwbvBMIFmQPh87UBwNY3BAw9gQLCSt0CdSojB9TqLQPk1qEDvumzB36ih
QNdn00B6cF3B3eLqQM2wqUCtD4rBVAzVQFcxlkD4tMHBKPOTQEZf1EBlhLjBELeHQGuEwECOxtbB
q4udQJdF4EAOHczBmn2/QLphvED7ddPBCf/gQJRBEkG2w7/B4faoQCEbDEF23b7BJIvJQHD7C0Gk
BrPBn0WWQJV9fECLZMzBYKdoQKgiokCeC8XB/SzPQAsfTEChgYPBRqOZQJKddUAY1ILBOS5mQE2n
RECzuKbBqD0MQCMSckB6KpfBY6E/QMIugkBzGovBa4CfQA6BFMCA+qLBS/jTQE/zob9Y/K7B44bo
QLiP8r18FrPBKqmnQNarAz5hLqPBmrSzQFSFkr8kEqfBZz3cQLMukz/CXa/B4dO7QJ1RoT+KjafB
Wq/NQPwQOkDTpJnB1iqHQFp+X0CwZZfBwZnsQO4cIkDS7LHBoUy8QEMuwEDSSqzBza/dQLRXnEAj
gKvBJRLoQCVaukCTfIzBGxjuQE8BnECQAXTBOVKmQOKwaUDJJ7fBTsgKQSCOzED/c4vBbo4NQSig
sEAWo3LBgLfkQLHokEAVxIXB5MWwQAjRmkBYp77BAzauQNvTxUAfMrjBSjK2QAo3LUArJ6TBRTTJ
QMaeX0AkDq7BUf2aQO6FvkBJbtDB/969QNJsCEGys7vBj5WRQKN6mkCpVcjBrpe4QCJRdUBgRYfB
NRePQNQYUsATrp/BkSewQOzWX0CcsZLB2o+JQKzSQkB4S6HBXmdCQM7neECqg5LBtgDzQF4uJkBc
65fBSBwPQYCb1UAfUIDB/P3JQOm55ED0W73BMuPcQNyND8BE5rHBkbgAQe8OXL6LBrnBmKKPQCp3
aj7LBZ3B/V4FQSSqLkDKqK3BOMTxQKY3KUCalbrB0EWgQMnXt0CiZKfBpEfKQC5I3kBaXKnBYZP3
QLKookABQLHBm97qQNa8m0CmV6PBCs3QQHX60UASiYnBJE7hQIgUs0DU7ZTBgkXtQJhmfUC2Q2rB
cO3VQLusskAbEW7BduyGQIu5dEB9bLPBUj6lQAV0LkAd57vBd2kWQZgCtUApc47BmxMMQd026kDl
JZDB7ZEQQSe/ukBHDWLByaAZQbTfmEC+bnfBpqH9QGRedUDQjYjBvqPRQE7/lkD7p8HB6emMQLg6
0UDqVrjBRgOEQLW0vED8FNfB8PmXQL283UABb8zBerK7QBbXukDWjNPBOJbUQPj0EkFl4b/BOnad
QDQSC0Hx3r7BT1O+QKELDEFDF7PB4nCUQIYEd0CkdMzBsHBhQOpnnkDPVsXBUSO4QNf4OUDMiYLB
ikqfQHpHkECsZ4TBdRBhQOCEPEBvN6bBCj4LQHPzdUDbjZbB3ARDQLsOh0B/94rBzQmgQL7IFMBa
MKPBK0TVQPVcoL878K7BW+3pQNzdx72g47LBdoWnQBwX/D0YXaPBVEe0QGmFkr/GMafBzf3cQMxk
lT+fMq/Bqae7QAFzoT/+nafBjxfNQFRHN0DXipnBNP+GQMinX0BIY5fB/2DtQAoJJECGgbHBHEi8
QE1OwUChJqzBU7fcQNj0nEDObarBqCH/QArEnUDULYjBBT/rQKpBb0DYVW7BQG6nQCala0Df7rbB
a0wXQbANmkAeBoXBVM0NQeD8aUAoH2nBof/lQPCgbkB9YIPBTZSzQMn6mkDch77BmTyxQKtwxkAs
O7jBKse1QCaTLECIDaTBrF/JQKS9YEAzpK3BAO+eQJ3DvkCAZ9DBU3f5QM1C5EDaGrzBivmUQIi/
mkBbV8jBlka2QFDHbkCh5obBUoKPQGdsUsC68J/B6tKvQLlZXkBGkZLBKEyJQHyWQkAmQ6HByilC
QEn1eUAbj5LB0uXyQH3bJEASRJjBpjkZQcdEmEBW/XLBcFzLQF+V50DrR73BmaveQCyDDsDz1rHB
LrMBQbmXPb6pr7jB+vWOQK8YXD5nVJ3BEpcFQZFSMEDuFK3BFCHzQAxnLEDfH7rBrtOeQML8uUCJ
safBaQrKQM5t30AYK6nBojj5QGUro0BKWq/BkePlQMUWnECN76HBxfDxQKfku0DyCoXBeDf8QAJj
nUDD8pDB+IfaQHXwN0AIXGfBDdDdQExalUBhuGfB7emHQAf8eED5YrPBbd6lQAHgL0ABkbvBexQe
QU9+eUCShojBEBIgQRwPtkDnDYjB1gIQQQ/SbEDdrFfBgjkUQTktLUBxPG/BzLL0QE6MM0AscYbB
B5fUQCk9lkC3WMHBr62PQPb00EDUm7jBy1mIQEn8vEDQI9fBO7+bQDn93UC+a8zButC/QMICu0DR
ZtPB63gEQd4d/0BgRsDBse8AQWFD5UAukLPBHkICQRrgxUB1lb/BYQKYQO6Ld0C9c8zBxOFnQG3A
nkCreMXBz1alQK3JPECQYILBx32oQATYlkBe+ITBE5NgQJFQPEDcMKbBQRoLQFhZd0C6n5bBgL1C
QJq7h0BNBovB

>  <OMEGA_E>  (5) 
qCiLP8ohiT/1IIk/uvuSP5uwkj/2lo8/faiRP8XukT9ALZI/t1OSPw==

>  <OMEGA_NBR>  (5) 
     30301

$$$$
290124
     RDKit          3D

 63 66  0  0  1  0  0  0  0  0999 V2000
    5.7024   -2.3457  -19.7524 C   0  0  0  0  0  0  0  0  0  0  0  0
    6.1000   -1.3264  -21.9586 C   0  0  0  0  0  0  0  0  0  0  0  0
    6.2527   -0.1885  -22.7798 C   0  0  0  0  0  0  0  0  0  0  0  0
    5.7721    0.1049  -19.9919 C   0  0  0  0  0  0  0  0  0  0  0  0
    5.8601   -1.1824  -20.5694 C   0  0  0  0  0  0  0  0  0  0  0  0
    6.1862    1.0926  -22.2038 C   0  0  0  0  0  0  0  0  0  0  0  0
    5.9518    1.2276  -20.8255 C   0  0  0  0  0  0  0  0  0  0  0  0
    6.4985    2.8676  -19.0378 C   0  0  0  0  0  0  0  0  0  0  0  0
    4.2694    3.4300  -18.9718 C   0  0  0  0  0  0  0  0  0  0  0  0
    6.2348    2.4680  -22.8091 C   0  0  0  0  0  0  0  0  0  0  0  0
    8.6752    4.7568  -20.7523 C   0  0  0  0  0  0  0  0  0  0  0  0
    8.1522    3.5307  -21.5411 C   0  0  0  0  0  0  0  0  0  0  0  0
    5.9990    4.8622  -22.0480 C   0  0  0  0  0  0  0  0  0  0  0  0
    6.5814    6.1155  -21.3290 C   0  0  2  0  0  0  0  0  0  0  0  0
    8.1413    6.0799  -21.3385 C   0  0  2  0  0  0  0  0  0  0  0  0
    5.8961    2.6967  -20.4238 C   0  0  1  0  0  0  0  0  0  0  0  0
    6.5834    3.4467  -21.6559 C   0  0  1  0  0  0  0  0  0  0  0  0
    6.4414    7.6128  -19.2403 C   0  0  0  0  0  0  0  0  0  0  0  0
    7.9194    3.1140  -15.8630 C   0  0  0  0  0  0  0  0  0  0  0  0
    6.6447    5.1250  -15.0333 C   0  0  0  0  0  0  0  0  0  0  0  0
    8.6312    7.5833  -23.1929 C   0  0  0  0  0  0  0  0  0  0  0  0
    5.9922    6.2980  -19.9114 C   0  0  0  0  0  0  0  0  0  0  0  0
    5.5442    3.5947  -16.7586 C   0  0  0  0  0  0  0  0  0  0  0  0
    6.8962    4.2222  -16.2611 C   0  0  0  0  0  0  0  0  0  0  0  0
    5.5753   -3.2968  -19.0900 N   0  0  0  0  0  0  0  0  0  0  0  0
    5.4696    3.3656  -18.2319 N   0  0  0  0  0  0  0  0  0  0  0  0
    4.4873    3.0816  -20.2233 N   0  0  0  0  0  0  0  0  0  0  0  0
    3.0230    3.8117  -18.4843 N   0  0  0  0  0  0  0  0  0  0  0  0
    7.6108    2.4894  -18.6913 O   0  0  0  0  0  0  0  0  0  0  0  0
    8.6380    6.2259  -22.6922 O   0  0  0  0  0  0  0  0  0  0  0  0
    7.4393    5.0185  -17.2217 F   0  0  0  0  0  0  0  0  0  0  0  0
    6.1665   -2.3135  -22.3919 H   0  0  0  0  0  0  0  0  0  0  0  0
    6.4191   -0.3008  -23.8410 H   0  0  0  0  0  0  0  0  0  0  0  0
    5.5720    0.2255  -18.9375 H   0  0  0  0  0  0  0  0  0  0  0  0
    7.0073    2.5117  -23.5910 H   0  0  0  0  0  0  0  0  0  0  0  0
    5.2579    2.7261  -23.2440 H   0  0  0  0  0  0  0  0  0  0  0  0
    8.3490    4.6731  -19.7051 H   0  0  0  0  0  0  0  0  0  0  0  0
    9.7744    4.7658  -20.7943 H   0  0  0  0  0  0  0  0  0  0  0  0
    8.5690    3.5735  -22.5581 H   0  0  0  0  0  0  0  0  0  0  0  0
    8.5087    2.6205  -21.0367 H   0  0  0  0  0  0  0  0  0  0  0  0
    4.9186    4.8390  -21.8425 H   0  0  0  0  0  0  0  0  0  0  0  0
    6.1640    4.9973  -23.1272 H   0  0  0  0  0  0  0  0  0  0  0  0
    6.2783    6.9927  -21.9194 H   0  0  0  0  0  0  0  0  0  0  0  0
    8.5087    6.9099  -20.7171 H   0  0  0  0  0  0  0  0  0  0  0  0
    5.9922    7.6861  -18.2389 H   0  0  0  0  0  0  0  0  0  0  0  0
    7.5378    7.6233  -19.1519 H   0  0  0  0  0  0  0  0  0  0  0  0
    6.1147    8.4668  -19.8520 H   0  0  0  0  0  0  0  0  0  0  0  0
    8.1093    2.4617  -16.7281 H   0  0  0  0  0  0  0  0  0  0  0  0
    8.8618    3.5828  -15.5435 H   0  0  0  0  0  0  0  0  0  0  0  0
    7.5087    2.5159  -15.0362 H   0  0  0  0  0  0  0  0  0  0  0  0
    5.9242    5.9128  -15.2982 H   0  0  0  0  0  0  0  0  0  0  0  0
    6.2390    4.5191  -14.2097 H   0  0  0  0  0  0  0  0  0  0  0  0
    7.5921    5.5861  -14.7171 H   0  0  0  0  0  0  0  0  0  0  0  0
    9.0226    7.5975  -24.2209 H   0  0  0  0  0  0  0  0  0  0  0  0
    7.6018    7.9710  -23.1873 H   0  0  0  0  0  0  0  0  0  0  0  0
    9.2640    8.2140  -22.5511 H   0  0  0  0  0  0  0  0  0  0  0  0
    4.8946    6.2982  -19.9846 H   0  0  0  0  0  0  0  0  0  0  0  0
    6.3177    5.4547  -19.2845 H   0  0  0  0  0  0  0  0  0  0  0  0
    5.4090    2.6268  -16.2537 H   0  0  0  0  0  0  0  0  0  0  0  0
    4.7263    4.2734  -16.4752 H   0  0  0  0  0  0  0  0  0  0  0  0
    3.7908    3.0786  -20.9409 H   0  0  0  0  0  0  0  0  0  0  0  0
    2.2318    3.8316  -19.0955 H   0  0  0  0  0  0  0  0  0  0  0  0
    2.9186    4.0660  -17.5228 H   0  0  0  0  0  0  0  0  0  0  0  0
  1  5  1  0
  1 25  3  0
  2  3  2  0
  2  5  1  0
  3  6  1  0
  4  5  2  0
  4  7  1  0
  6  7  2  0
  6 10  1  0
  7 16  1  0
 16  8  1  1
  8 26  1  0
  8 29  2  0
  9 26  1  0
  9 27  2  0
  9 28  1  0
 17 10  1  6
 11 12  1  0
 11 15  1  0
 12 17  1  0
 13 14  1  0
 13 17  1  0
 14 15  1  0
 14 22  1  0
 15 30  1  0
 16 17  1  0
 16 27  1  0
 18 22  1  0
 19 24  1  0
 20 24  1  0
 21 30  1  0
 23 24  1  0
 23 26  1  0
 24 31  1  0
  2 32  1  0
  3 33  1  0
  4 34  1  0
 10 35  1  0
 10 36  1  0
 11 37  1  0
 11 38  1  0
 12 39  1  0
 12 40  1  0
 13 41  1  0
 13 42  1  0
 14 43  1  6
 15 44  1  1
 18 45  1  0
 18 46  1  0
 18 47  1  0
 19 48  1  0
 19 49  1  0
 19 50  1  0
 20 51  1  0
 20 52  1  0
 20 53  1  0
 21 54  1  0
 21 55  1  0
 21 56  1  0
 22 57  1  0
 22 58  1  0
 23 59  1  0
 23 60  1  0
 27 61  1  0
 28 62  1  0
 28 63  1  0
M  CHG  1  27   1
M  END
>  <OMEGA_C>  (6) 
Nnq2QFsgFsAEBZ7BkTPDQN7Iqb8eq6/BKRbIQK7/QL4RPbbBCrW4QNbo1j1475/BT4a7QEpal78v
jqTBrfXFQMfZiz93obHBR3W+QMcgnT+QmqbBdfPPQE6GN0BfTZjBi56IQIuFW0AnxpfBLoPHQDnz
HUAXebbBqM0KQew3mECsBKbBWW8CQff2YUAVVKzBmPe/QAGXm0BnYrDB9ZrSQFmyw0DFoarBpUIC
QZCOwkBZtarBj6y8QCqWLEDbY6PBgKvSQLOWXEAvP63BGiDOQG6c80Au7JnBs2v9QFRLR0DOzn3B
eaHUQGUApEA/iHDBixkKQcyq8kAhi7nBC8C/QDeJyUCASp/B6mmxQJEPZkCWEYbBEa7cQJUch0Cx
FoLBsGiyQKD+UsBSuJjBDQevQGxmV0D42pHBJpiPQAI5RUBVyaHBxHhBQJjyc0DQ35PBRYvzQIVR
H0DHh5XBYjUKQVU6x0CkibXBpg7uQMOXoEAhxonBS1TFQK8PFMCXIrPB62jNQHn+mb5gur7Bh02y
QKDlZj4BgJfB1zvgQHfAIEBJurzB60CoQDd5LkC/87nBTZUFQVuKlUAVpJ3B02McQSOBmECtWqbB
sxoJQV+0ZEAHd7TBsyMIQQC2J0AfS6jBOWWdQBDZmkBZva7B4j/FQMDpn0BwBLnBHejIQIzE30AA
W6/BfyMIQYId3UCcvKXBP8C/QNH09UBE6ZHBvDXxQODx80AYN5nBBKzDQN53B0HU0J7B3r8BQcaM
HUA604XB78kNQd9MZUBBsnjBNkfwQOQDIUBDlHDB2JK9QBA2vUB6xXTBhqXHQI+ckEAQW2PBLvLy
QAzBskAPeWvBjVwQQdwe80BUxMHB/kHzQBkS/0CQf7nBVzkUQVdsA0GmaLTB1KCcQPWKyUB04J/B
jCrKQBmNrkC5RprBvBatQFgdKEChB4LBeD2XQP+/iEAwzYPB6pxyQIgIRUDihqfBQdUOQEU5dUCK
w5jB18o6QJYcgkC2LozB

>  <OMEGA_E>  (6) 
gWqJPw==

>  <OMEGA_NBR>  (6) 
     31655

$$$$
290130
     RDKit          3D

 59 63  0  0  1  0  0  0  0  0999 V2000
    5.1068   -2.2644  -19.9059 C   0  0  0  0  0  0  0  0  0  0  0  0
    6.4006   -1.3379  -21.7877 C   0  0  0  0  0  0  0  0  0  0  0  0
    6.9597   -0.2345  -22.4639 C   0  0  0  0  0  0  0  0  0  0  0  0
    7.2355    5.2560  -16.7502 C   0  0  0  0  0  0  0  0  0  0  0  0
    5.3193    0.1572  -20.1699 C   0  0  0  0  0  0  0  0  0  0  0  0
    7.4743    6.6225  -16.5416 C   0  0  0  0  0  0  0  0  0  0  0  0
    5.2254    6.9154  -15.9625 C   0  0  0  0  0  0  0  0  0  0  0  0
    5.6025   -1.1426  -20.6323 C   0  0  0  0  0  0  0  0  0  0  0  0
    6.7057    1.0571  -21.9830 C   0  0  0  0  0  0  0  0  0  0  0  0
    5.8676    1.2389  -20.8696 C   0  0  0  0  0  0  0  0  0  0  0  0
    5.9344    4.7644  -16.5376 C   0  0  0  0  0  0  0  0  0  0  0  0
    6.4679    2.9210  -19.1797 C   0  0  0  0  0  0  0  0  0  0  0  0
    4.2293    3.3518  -18.9301 C   0  0  0  0  0  0  0  0  0  0  0  0
    7.2819    2.3802  -22.3559 C   0  0  0  0  0  0  0  0  0  0  0  0
    5.6724    4.4706  -24.0162 C   0  0  0  0  0  0  0  0  0  0  0  0
    5.1705    3.7809  -22.7444 C   0  0  0  0  0  0  0  0  0  0  0  0
    7.1071    4.7215  -21.4024 C   0  0  0  0  0  0  0  0  0  0  0  0
    7.6920    5.3281  -22.6891 C   0  0  1  0  0  0  0  0  0  0  0  0
    6.5494    5.6827  -23.6615 C   0  0  1  0  0  0  0  0  0  0  0  0
    5.7541    2.6947  -20.4990 C   0  0  1  0  0  0  0  0  0  0  0  0
    6.3286    3.4321  -21.7444 C   0  0  2  0  0  0  0  0  0  0  0  0
    8.5052    6.5794  -22.3262 C   0  0  0  0  0  0  0  0  0  0  0  0
    6.5148    7.4217  -25.3207 C   0  0  0  0  0  0  0  0  0  0  0  0
    5.6294    3.3216  -16.8282 C   0  0  0  0  0  0  0  0  0  0  0  0
    4.7049   -3.1754  -19.3003 N   0  0  0  0  0  0  0  0  0  0  0  0
    6.4676    7.4327  -16.1457 N   0  0  0  0  0  0  0  0  0  0  0  0
    4.9430    5.6042  -16.1629 N   0  0  0  0  0  0  0  0  0  0  0  0
    5.4453    3.1450  -18.2699 N   0  0  0  0  0  0  0  0  0  0  0  0
    4.3611    3.0607  -20.1991 N   0  0  0  0  0  0  0  0  0  0  0  0
    3.0477    3.7753  -18.3433 N   0  0  0  0  0  0  0  0  0  0  0  0
    7.6530    2.7294  -18.9292 O   0  0  0  0  0  0  0  0  0  0  0  0
    7.1175    6.1955  -24.8757 O   0  0  0  0  0  0  0  0  0  0  0  0
    6.5815   -2.3384  -22.1521 H   0  0  0  0  0  0  0  0  0  0  0  0
    7.5746   -0.3822  -23.3394 H   0  0  0  0  0  0  0  0  0  0  0  0
    8.0309    4.5974  -17.0663 H   0  0  0  0  0  0  0  0  0  0  0  0
    4.6975    0.3149  -19.3010 H   0  0  0  0  0  0  0  0  0  0  0  0
    8.4633    7.0273  -16.6974 H   0  0  0  0  0  0  0  0  0  0  0  0
    4.4309    7.5743  -15.6446 H   0  0  0  0  0  0  0  0  0  0  0  0
    8.2940    2.4901  -21.9393 H   0  0  0  0  0  0  0  0  0  0  0  0
    7.3221    2.4875  -23.4499 H   0  0  0  0  0  0  0  0  0  0  0  0
    6.2647    3.7555  -24.6060 H   0  0  0  0  0  0  0  0  0  0  0  0
    4.8098    4.8090  -24.6090 H   0  0  0  0  0  0  0  0  0  0  0  0
    4.4592    4.4506  -22.2387 H   0  0  0  0  0  0  0  0  0  0  0  0
    4.6588    2.8495  -23.0283 H   0  0  0  0  0  0  0  0  0  0  0  0
    7.9244    4.4819  -20.7063 H   0  0  0  0  0  0  0  0  0  0  0  0
    6.4261    5.4465  -20.9326 H   0  0  0  0  0  0  0  0  0  0  0  0
    8.3553    4.5916  -23.1661 H   0  0  0  0  0  0  0  0  0  0  0  0
    5.9151    6.4484  -23.1911 H   0  0  0  0  0  0  0  0  0  0  0  0
    8.9279    7.0206  -23.2408 H   0  0  0  0  0  0  0  0  0  0  0  0
    7.8493    7.3130  -21.8346 H   0  0  0  0  0  0  0  0  0  0  0  0
    9.3209    6.3009  -21.6427 H   0  0  0  0  0  0  0  0  0  0  0  0
    6.9990    7.7523  -26.2514 H   0  0  0  0  0  0  0  0  0  0  0  0
    5.4425    7.2579  -25.5036 H   0  0  0  0  0  0  0  0  0  0  0  0
    6.6410    8.1939  -24.5475 H   0  0  0  0  0  0  0  0  0  0  0  0
    6.4647    2.6935  -16.4851 H   0  0  0  0  0  0  0  0  0  0  0  0
    4.7093    3.0277  -16.3020 H   0  0  0  0  0  0  0  0  0  0  0  0
    3.6200    3.0838  -20.8700 H   0  0  0  0  0  0  0  0  0  0  0  0
    2.2219    3.8758  -18.8982 H   0  0  0  0  0  0  0  0  0  0  0  0
    3.0208    3.9804  -17.3650 H   0  0  0  0  0  0  0  0  0  0  0  0
  1  8  1  0
  1 25  3  0
  2  3  2  0
  2  8  1  0
  3  9  1  0
  4  6  2  0
  4 11  1  0
  5  8  2  0
  5 10  1  0
  6 26  1  0
  7 26  2  0
  7 27  1  0
  9 10  2  0
  9 14  1  0
 10 20  1  0
 11 24  1  0
 11 27  2  0
 20 12  1  1
 12 28  1  0
 12 31  2  0
 13 28  1  0
 13 29  2  0
 13 30  1  0
 21 14  1  6
 15 16  1  0
 15 19  1  0
 16 21  1  0
 17 18  1  0
 17 21  1  0
 18 19  1  0
 18 22  1  0
 19 32  1  0
 20 21  1  0
 20 29  1  0
 23 32  1  0
 24 28  1  0
  2 33  1  0
  3 34  1  0
  4 35  1  0
  5 36  1  0
  6 37  1  0
  7 38  1  0
 14 39  1  0
 14 40  1  0
 15 41  1  0
 15 42  1  0
 16 43  1  0
 16 44  1  0
 17 45  1  0
 17 46  1  0
 18 47  1  6
 19 48  1  1
 22 49  1  0
 22 50  1  0
 22 51  1  0
 23 52  1  0
 23 53  1  0
 23 54  1  0
 24 55  1  0
 24 56  1  0
 29 57  1  0
 30 58  1  0
 30 59  1  0
M  CHG  1  29   1
M  END
>  <OMEGA_C>  (7) 
gWqjQKTrEMA5P5/BFNLMQLhBq782Ta7B9rXeQOwUcL4StrPBFonnQGsxqEBuAIbB5zeqQOj1ID7j
W6HBay3vQDvr00AgVYTBVjanQPFK3UBiZn/Bg0ezQM1Bkr8JD6XByZTWQENOhz8o3a/BHsO7QNuT
nj/l9KbBtea9QDJ2mEALTYTBsvjOQFzyOkD+b5nBKVaHQFKDVkDEcJfBYwXpQNBUGEDz2LLBjoS1
QAgPj0A4IcDBgnSlQCT6cUCP9LXBQW3jQMgWl0APOKvBrST2QLB/qkA0g7XBpJTRQH7YtUC7Sr3B
wyG4QHR2LEDm/aPBLITKQIinW0CH9K3BUBUIQTyK0kD/m7LB1njQQOF+7UDWkMrB8iO0QFCVVEA8
oIbB2o6WQM45S8DvZprBYvbOQPPY7UBtKoHB6SyeQNRVs0CoTYHBRUCuQGpHSUDDKJLBdY6LQPri
Q0Cwl6HB/Q1DQByecUAdv5LBPeX0QAKuLkDobpfBVcLjQOZBxkCFAcfBupvSQE6oFcB6N7HB1GLy
QOqyw74et7rBlH4AQfwdk0DTh4jBUlKWQHU5oT50aJrB1GkHQfXf4EAvlIXBCMqNQJhg8kAqUHrB
OrQEQRFdH0Cog6/Bt07qQKQzH0B8mbvBqnjIQKlacEAq2cTB++mZQKXjmUAl38TBEbKOQO5qjkD0
6LHBjRSVQHRdNkDjObjBxpT9QMBrj0BwpqXBjKLNQM9JrkAKdqfBfK8FQcnukkBDVLnBmEi9QJhZ
zkBOh7nBr9gOQd2o4EBB7bnBjS37QNED6kA/ra7BdCIVQRahyUBTJK3B2vffQAET+EDsAtLBEimu
QF5A6EBoB8zBI4PUQEgaA0FfYcTBht7OQMNhLEB64YPBTbKWQJTFQUBlaoLBca1nQKFdRUC29abB
nTMOQJsNeECEL5fBd1RBQLG+fkBr64rBmmacQKcyFMCis6PB+RXRQGVhob8/sK/BuHDmQLZa7L2c
lrPBHW7+QNqJlkAD9YLBntCmQKKX/z33YaPBrfUUQeKuj0D5oIDB4F4OQZKiDEBf6n3BW3OxQEZg
kr98nKfBApbbQCkwkz9jgK/B8tO7QA+poD+tiKfB8rjiQDHqZUAb+YLBW8/NQBfZOECrVpnBx+aG
QP/VXUA4ZpfBfRHtQPAJIkB/urHB73e4QLsHk0D8z7/Bt4unQFr0cUCBOrbBy6feQEL5m0AvB6rB
ueDwQFsNtUD+s7PB3ifNQFGAvUAxFbzBHtO2QDaELEB26qPBlnnKQMS6YEAdd63BDCwCQVCl30BO
ra/BzT/AQLke6kAotsvBJdu0QMpPb0Afx4bBQESLQI93UcDliaDBsUEcQelXT0AScH3BiVnyQAm6
FkCY5YDBQxKvQGFjWkDeUJLBJR2KQJayQkB8VaHBwaFBQALTeEAVuJLBL77zQB+qKEBe1JfBhy3f
QH2S00DSOMXBx+rYQIb3DsCF4rLBZ9/+QBCcV77FprnBC5LyQLBAtkAysITBJi2PQDqMZD4SIZ3B
L94fQU93qkCDXYDBuHEUQfvVmT/BF3vBq8YFQS3EK0Dsf63BvfTxQPFEK0DVXbrBApDQQBbXf0AW
GMTBk7CdQOJKmkBJOsXBVgSNQIjGikCCiLLBO7ubQO4GNECtMbnBnb34QGa8lUAxVKTBjePFQF2L
r0BBIqbBBSMFQdXhoUBqd7fB2Uq0QJ9t0UDSV7jBCq8IQfur8UCSf7bBlljrQBG78kCUuavB5hMP
QV7Q2EBK8anB4a/QQJDW+UCUbdLBmoyoQKNJ00Ca1c7B6fSvQL4yAUGdz8bB/YigQJsgREADCYLB
dLWqQBXzmEDgdoXBAC9jQDbIPUDSb6bBnFwLQCJQeEB99ZbBjipBQFBdhkC1HYvB

>  <OMEGA_E>  (7) 
/EuGP8hXjz8=

>  <OMEGA_NBR>  (7) 
     33900

$$$$
290128
     RDKit          3D

 58 61  0  0  1  0  0  0  0  0999 V2000
    5.1484   -2.2416  -19.8545 C   0  0  0  0  0  0  0  0  0  0  0  0
    6.4076   -1.3260  -21.7717 C   0  0  0  0  0  0  0  0  0  0  0  0
    6.9538   -0.2234  -22.4641 C   0  0  0  0  0  0  0  0  0  0  0  0
    5.3368    0.1745  -20.1582 C   0  0  0  0  0  0  0  0  0  0  0  0
    5.6246   -1.1269  -20.6065 C   0  0  0  0  0  0  0  0  0  0  0  0
    6.6992    1.0726  -21.9932 C   0  0  0  0  0  0  0  0  0  0  0  0
    5.8642    1.2531  -20.8797 C   0  0  0  0  0  0  0  0  0  0  0  0
    6.4560    2.8884  -19.1917 C   0  0  0  0  0  0  0  0  0  0  0  0
    4.2217    3.3390  -18.9393 C   0  0  0  0  0  0  0  0  0  0  0  0
    7.2640    2.4025  -22.3838 C   0  0  0  0  0  0  0  0  0  0  0  0
    5.6964    4.6312  -23.9398 C   0  0  0  0  0  0  0  0  0  0  0  0
    5.1894    3.8764  -22.7095 C   0  0  0  0  0  0  0  0  0  0  0  0
    7.1591    4.7163  -21.3379 C   0  0  0  0  0  0  0  0  0  0  0  0
    7.7287    5.3867  -22.5971 C   0  0  1  0  0  0  0  0  0  0  0  0
    6.5682    5.8223  -23.5096 C   0  0  1  0  0  0  0  0  0  0  0  0
    5.7510    2.7018  -20.5091 C   0  0  1  0  0  0  0  0  0  0  0  0
    6.3428    3.4603  -21.7302 C   0  0  2  0  0  0  0  0  0  0  0  0
    8.5812    6.5957  -22.1796 C   0  0  0  0  0  0  0  0  0  0  0  0
    6.3648    7.5996  -25.1143 C   0  0  0  0  0  0  0  0  0  0  0  0
    7.5070    3.8763  -14.6883 C   0  0  0  0  0  0  0  0  0  0  0  0
    5.6298    3.2317  -16.8672 C   0  0  0  0  0  0  0  0  0  0  0  0
    6.2432    4.6128  -16.6184 C   0  0  0  0  0  0  0  0  0  0  0  0
    4.7613   -3.1424  -19.2243 N   0  0  0  0  0  0  0  0  0  0  0  0
    5.4260    3.0701  -18.2875 N   0  0  0  0  0  0  0  0  0  0  0  0
    4.3554    3.0680  -20.2108 N   0  0  0  0  0  0  0  0  0  0  0  0
    3.0526    3.7840  -18.3415 N   0  0  0  0  0  0  0  0  0  0  0  0
    7.6391    2.6873  -18.9345 O   0  0  0  0  0  0  0  0  0  0  0  0
    7.1052    6.4444  -24.6853 O   0  0  0  0  0  0  0  0  0  0  0  0
    6.5175    4.7865  -15.2220 O   0  0  0  0  0  0  0  0  0  0  0  0
    6.5875   -2.3281  -22.1321 H   0  0  0  0  0  0  0  0  0  0  0  0
    7.5597   -0.3763  -23.3450 H   0  0  0  0  0  0  0  0  0  0  0  0
    4.7263    0.3377  -19.2824 H   0  0  0  0  0  0  0  0  0  0  0  0
    8.2930    2.5066  -22.0091 H   0  0  0  0  0  0  0  0  0  0  0  0
    7.2592    2.5142  -23.4781 H   0  0  0  0  0  0  0  0  0  0  0  0
    6.2940    3.9499  -24.5633 H   0  0  0  0  0  0  0  0  0  0  0  0
    4.8373    5.0001  -24.5193 H   0  0  0  0  0  0  0  0  0  0  0  0
    4.4844    4.5233  -22.1667 H   0  0  0  0  0  0  0  0  0  0  0  0
    4.6689    2.9674  -23.0452 H   0  0  0  0  0  0  0  0  0  0  0  0
    7.9868    4.4210  -20.6763 H   0  0  0  0  0  0  0  0  0  0  0  0
    6.5045    5.4265  -20.8115 H   0  0  0  0  0  0  0  0  0  0  0  0
    8.3616    4.6663  -23.1362 H   0  0  0  0  0  0  0  0  0  0  0  0
    5.9389    6.5374  -22.9595 H   0  0  0  0  0  0  0  0  0  0  0  0
    8.9932    7.0818  -23.0762 H   0  0  0  0  0  0  0  0  0  0  0  0
    7.9550    7.3130  -21.6288 H   0  0  0  0  0  0  0  0  0  0  0  0
    9.4055    6.2576  -21.5344 H   0  0  0  0  0  0  0  0  0  0  0  0
    6.8326    8.0214  -26.0161 H   0  0  0  0  0  0  0  0  0  0  0  0
    5.3288    7.3075  -25.3412 H   0  0  0  0  0  0  0  0  0  0  0  0
    6.3661    8.3539  -24.3137 H   0  0  0  0  0  0  0  0  0  0  0  0
    7.6535    4.0800  -13.6173 H   0  0  0  0  0  0  0  0  0  0  0  0
    7.1613    2.8404  -14.8204 H   0  0  0  0  0  0  0  0  0  0  0  0
    8.4589    4.0160  -15.2216 H   0  0  0  0  0  0  0  0  0  0  0  0
    6.3116    2.4510  -16.4989 H   0  0  0  0  0  0  0  0  0  0  0  0
    4.6660    3.1539  -16.3428 H   0  0  0  0  0  0  0  0  0  0  0  0
    7.1806    4.7021  -17.1870 H   0  0  0  0  0  0  0  0  0  0  0  0
    5.5379    5.3891  -16.9498 H   0  0  0  0  0  0  0  0  0  0  0  0
    3.6169    3.1040  -20.8842 H   0  0  0  0  0  0  0  0  0  0  0  0
    2.2293    3.9195  -18.8927 H   0  0  0  0  0  0  0  0  0  0  0  0
    3.0326    3.9695  -17.3590 H   0  0  0  0  0  0  0  0  0  0  0  0
  1  5  1  0
  1 23  3  0
  2  3  2  0
  2  5  1  0
  3  6  1  0
  4  5  2  0
  4  7  1  0
  6  7  2  0
  6 10  1  0
  7 16  1  0
 16  8  1  1
  8 24  1  0
  8 27  2  0
  9 24  1  0
  9 25  2  0
  9 26  1  0
 17 10  1  6
 11 12  1  0
 11 15  1  0
 12 17  1  0
 13 14  1  0
 13 17  1  0
 14 15  1  0
 14 18  1  0
 15 28  1  0
 16 17  1  0
 16 25  1  0
 19 28  1  0
 20 29  1  0
 21 22  1  0
 21 24  1  0
 22 29  1  0
  2 30  1  0
  3 31  1  0
  4 32  1  0
 10 33  1  0
 10 34  1  0
 11 35  1  0
 11 36  1  0
 12 37  1  0
 12 38  1  0
 13 39  1  0
 13 40  1  0
 14 41  1  6
 15 42  1  1
 18 43  1  0
 18 44  1  0
 18 45  1  0
 19 46  1  0
 19 47  1  0
 19 48  1  0
 20 49  1  0
 20 50  1  0
 20 51  1  0
 21 52  1  0
 21 53  1  0
 22 54  1  0
 22 55  1  0
 25 56  1  0
 26 57  1  0
 26 58  1  0
M  CHG  1  25   1
M  END
>  <OMEGA_C>  (8) 
yb+kQNZ2D8D+1Z7B+QrNQBS6qb9vLK7BI4XeQNjPZL6PtrPBx8aqQCCjMj73Q6HBrfyzQHw+kL8F
2qTB71/WQMZJiT8c8q/Bl6e7QH5loD+qCafBcZfOQILbOECEiJnBWRiHQNayVUCzg5fBs3LoQDbC
GUAaErPB/Ei2QMEylECphL/Bfg+mQJIXeED9rLXBexflQDjslkD1s6rBmFH3QHtfrED1xrTBdC7S
QK9QukDDE7zBMQi4QITpLECoEqTBnfjKQDZ2XUCB163Bn0wJQd4P00C9b7HBb6zLQNUv80Am6sjB
hjnwQH4VeEBWA2vBRie0QCjUTkD974bBmMjHQK+bk0B38oTBwlyYQIIdScBFy5nB5aGtQOZ7REDk
TJLBE1+LQHxaREDKr6HBmF1DQH4tckBau5LBTnP0QPL7K0DYeZfBdl3jQI04zkBve8XBbo/QQLkq
mUBsjXPBfszSQBb/FMCGDrHBuujxQD6mwL6SwrrB3D2XQKTprD5EQprB7q8EQZpsIECuErDBoEvo
QNjnIEA+07vBamjJQOXLfEClgcTBicuaQB8BoECaJ8TBWICPQM++kEBpVbHB1GeVQFfpPUCHXLjB
0pP/QIB4jUAFaaXB1iTQQCymrUDnfabBIskFQZJSlUDuFrnBegu+QLwy0UAQrbfBAuQPQcKd4kAh
nLjBk4/+QPwD6kC0B63BHX0WQY8+yECFRqzBfKTaQJ9XAEEPIdDB2IWqQCfX6UDQusrBNLfLQLip
BUGFgsLBoen0QLmPgkCK4FnBbynlQM/JNUCEIG3BzFcHQRCDgECBi3PB/PjJQFndHEDR/YPBiU+V
QAjZSUAUvoLBmsflQNZ3lkACf4nBdzaxQDlzrEA3mYfBVXtnQKyoRkDLEqfBKa0OQMDYekBSJJfB
PhZCQLAMfkBQ34rBaPqVQGJIC8BBgJ7BTKnBQFv/sr+Zsq3BwQvXQORcur6dMbPBuMKkQBgOVT6R
v6DB2kSpQGrVjr8/Z6TB/3zTQMblcj//Zq/BBtK5QCkbnD/Ha6bBkF3PQJZtPUB8Z5nBP2SIQAz5
XkDa3ZfBhsvpQGI9DUCGl7LBOuifQMWQp0AcQrXB+KqrQGB1cEDHhrbBlJbrQL1ikUBh5qrBxp7y
QOVFrEDo47TBthnIQLssxECqLbfBaAG5QA70K0At66PBp0XOQH7UVUCm763BF+MLQeGNy0BFQLPB
QO+wQOMW+UDq7MPBWHDsQB7YX0AON2nBJKS3QMyPfUDGHIjBZzC3QKigLEBxK4HB7HSGQE5pQsAu
kJnBWc+wQFYIZkCAM5PBBrmMQMS/SEAA6KHB73lDQAobcEAu15LBUqT0QI4xLkCv+5bBmhXJQE+A
0kABGMLBAyLBQFDkQUAGjGzBLeHDQL16GsAJl7DBQOTpQBXKFL+AObrBS6aRQOlY3z7myJnBAyUF
QXshD0B2N6/BupPrQNtiEkBmW7vBBQKHQEXyr0BxHbvBKbqTQFMbrUBwHq3BNM2OQLYiSUBObrXB
PrS4QJjPZUB3l77BOT4FQeiEhUCY56fBRAvcQGjWpEAFrqTBku/5QLwdl0BvrrvBaiPGQMXk30DV
xrHBBisOQaaq3kBnjbrBQD0IQTvw4EDUgKzBsJkaQaKGuUBphLHBbCezQOoIAUGIaszBBjiPQHWe
80B8zMHBqfy9QOeFCUEP9b7BdTbxQIqObkCGK1jBQpMBQQbVLUCtKW7BS+LxQD71jEDfyHLBJgSe
QBaFlEAYfoXB/cLWQNjojkAwTofBaz6XQGUxD0CihIHBEyHPQB1E/j9HN4TBAPhqQIXySkA2ZqfB
wrIMQFvTa0Be8ZbBs4pCQMhdgEC6HYvB6LOYQG99CsCRB57BEXXEQFI4sr9QPq3B5m/ZQIaztb51
zbLB2lKkQPDaZj6/4aDBGdSqQKxljb/OK6TBt0vUQF38dj+bSK/B2tK4QLLZnj84pKbBZgbPQGD7
OEDlVZnB9JOHQKX1WEAIpZfBuq/qQNucDkD0V7LBSgmeQB12pUAxGbbBcjmrQB2ebEBC0LbBqpLp
QCLpkkAiJavBxnLwQIuerEBQZbXBQXTFQHfawkDnLbjBNa+4QNdCLUBG/6PBl/LNQKt3VkA1BK7B
Yz8KQZpFzUDo87PBNX2tQKuK9EC8qcXBLQC1QF8rw0DQOYfB8UCxQO2hREBlbIbBaEzVQEE+fkAK
JILBsiyKQIpkQcBf3pjBNe6tQJEFSUD6LJLBmy+NQN49TUAW66HBzwZCQA+LcUA5F5PBC9/0QCxR
LEBsSZfBPsfGQDwrz0DMQsPB5AjZQGN6pkAsL4jBiPDHQLp3GsC66q/BXi3tQNAyE78hrLnBSCCQ
QAOC6T41HprB3E4FQQCHEUBHqK7BWcztQGtWE0DVFrvBg0WFQN4ZrEC5ILzBaTORQMcGrEADEq7B
iN2OQBwfREBokbXBtrC4QCj+X0Adyr7BDk0EQTWOiEAe5afBQ9rYQOOnpkCwLaXB9u/4QDyblkAu
7bvBAEfCQMx830CHH7PBSG0MQc5d30AIbLvBLBYGQTZz40COca3Bsy8ZQc13vEDg87HByRCwQCP4
+0CgPc7BzNCLQFhV7kB2n8PBrUi5QPbrB0Gs9MDBm8y6QKT430CbEozBg+GXQF4Es0AIFIrBKt6w
QChezEDgln3BWs+3QE8UAkCPEYTBH7WSQNljWUBD54LBfYPOQCMJh0CWeHPBfsTzQNo4W0DspILB
6jduQNNnWED2iafBF88OQKRge0BDupfBZ6M9QK9ueUCzK4vBneWhQHCLEsBfiZ/BTRTMQJtHrb+a
aq7BVl3eQJCjfr5curPBiDyqQCARCT48SqHBVpWyQJT2lL/aJ6XB/5zWQFQzhT/eyK/BF0C8QK6p
mz8UyqbBDuTOQMGfPkCgmZnBxCyIQHMCX0BxzZfBLZDoQGmfF0BC3bLBB4i1QDihkECNyb/BtUWl
QDeCckCnzrXB343jQPJelkCN8arBzRD2QIjdqkApELXBWjPRQPJMt0BhmbzBsua3QMXrKkCc8aPB
pzDKQAXAWkBk3q3BXzMIQZZc0kA82bHBGNLNQFp08EAia8nBniPFQMQSLz/3wnzBWqq4QJKphECA
m4jBzkaxQK2zP0CCvIDBv1+UQCwpTcCh3ZrBHz+xQHMAbEBlmZPBciKLQB13QEDrhaHB18VDQAVA
cECOoZLBtxv0QL+YLUD4TpfBC+LiQAzDyUA6IMbBeUzQQBop+z9zwoLBAYjRQFqEFsAybLHBNg7y
QLehyb6bu7rBv4uWQMD3kz5+TJrBOZIEQZkhH0DNqq/B6j/pQIdZHkBSn7vBK9XIQLbndEBcoMTB
6QOaQLTMm0AIg8TB1E+OQKcSjkC0orHBTRqVQONON0AnU7jBYdb9QCb1jUAde6XBTALOQHJErUBr
/KbBkoMFQZK3k0CbH7nBycC8QNXNzkCggLjBiPEOQVVj4UCZDrnB0p/7QI1p6UDxsa3BjkUVQaqO
yEBTfazBLQXdQGC5/EA4vdDBhdqrQF6+6UAgAcvB9nPQQOtCBEHnB8PBUGXeQIQ3N73oRoDBvsrB
QNjPRD9KS2vBs6emQOt8sT5S24HBQXeiQJL0nkBOwYbB0NHZQDMYkEDs2YfBS+O0QNw6V0C4+3DB
TdSQQLjWJUBl04HBqSNlQOnkOEDbj6bBtSoMQIJYZUCPWZbB5iREQIPLg0CjLovB

>  <OMEGA_E>  (8) 
NP1wPz7Bdj86enQ/anVxPw==

>  <OMEGA_NBR>  (8) 
     41443

$$$$
290129
     RDKit          3D

 62 66  0  0  1  0  0  0  0  0999 V2000
    4.8719   -2.3115  -20.4765 C   0  0  0  0  0  0  0  0  0  0  0  0
    6.5512   -1.2609  -21.9407 C   0  0  0  0  0  0  0  0  0  0  0  0
    7.2293   -0.1170  -22.4167 C   0  0  0  0  0  0  0  0  0  0  0  0
    5.2002    0.1287  -20.4325 C   0  0  0  0  0  0  0  0  0  0  0  0
    5.5419   -1.1409  -20.9520 C   0  0  0  0  0  0  0  0  0  0  0  0
    6.8796    1.1499  -21.9171 C   0  0  0  0  0  0  0  0  0  0  0  0
    5.8653    1.2580  -20.9437 C   0  0  0  0  0  0  0  0  0  0  0  0
    6.4232    2.8832  -19.1816 C   0  0  0  0  0  0  0  0  0  0  0  0
    4.2104    3.4451  -18.9157 C   0  0  0  0  0  0  0  0  0  0  0  0
    7.4324    2.5315  -22.1894 C   0  0  0  0  0  0  0  0  0  0  0  0
    5.8340    4.6191  -23.9585 C   0  0  0  0  0  0  0  0  0  0  0  0
    5.2781    3.7987  -22.7774 C   0  0  0  0  0  0  0  0  0  0  0  0
    6.9811    4.8734  -21.2172 C   0  0  0  0  0  0  0  0  0  0  0  0
    8.2943    3.2789  -16.3841 C   0  0  0  0  0  0  0  0  0  0  0  0
    7.1307    3.3421  -14.6862 C   0  0  0  0  0  0  0  0  0  0  0  0
    7.5784    5.6600  -22.4076 C   0  0  1  0  0  0  0  0  0  0  0  0
    6.4831    5.9380  -23.4712 C   0  0  1  0  0  0  0  0  0  0  0  0
    5.7076    2.6985  -20.4931 C   0  0  1  0  0  0  0  0  0  0  0  0
    6.3481    3.5160  -21.6685 C   0  0  2  0  0  0  0  0  0  0  0  0
    6.7739    2.8645  -16.1507 C   0  0  0  0  0  0  0  0  0  0  0  0
    8.1863    6.9828  -21.8821 C   0  0  0  0  0  0  0  0  0  0  0  0
    6.4890    1.3415  -16.2439 C   0  0  0  0  0  0  0  0  0  0  0  0
    6.1278    7.3445  -25.4236 C   0  0  0  0  0  0  0  0  0  0  0  0
    5.7307    3.7607  -16.8810 C   0  0  0  0  0  0  0  0  0  0  0  0
    4.3266   -3.2679  -20.0925 N   0  0  0  0  0  0  0  0  0  0  0  0
    5.4570    3.3118  -18.2701 N   0  0  0  0  0  0  0  0  0  0  0  0
    4.3116    3.0523  -20.1689 N   0  0  0  0  0  0  0  0  0  0  0  0
    3.0275    3.9005  -18.3405 N   0  0  0  0  0  0  0  0  0  0  0  0
    7.6087    2.6337  -19.0043 O   0  0  0  0  0  0  0  0  0  0  0  0
    8.4542    3.5773  -15.0471 O   0  0  0  0  0  0  0  0  0  0  0  0
    7.0734    6.6299  -24.5973 O   0  0  0  0  0  0  0  0  0  0  0  0
    6.8035   -2.2350  -22.3329 H   0  0  0  0  0  0  0  0  0  0  0  0
    8.0090   -0.2146  -23.1576 H   0  0  0  0  0  0  0  0  0  0  0  0
    4.4485    0.2290  -19.6636 H   0  0  0  0  0  0  0  0  0  0  0  0
    8.3796    2.6808  -21.6503 H   0  0  0  0  0  0  0  0  0  0  0  0
    7.5975    2.6751  -23.2674 H   0  0  0  0  0  0  0  0  0  0  0  0
    6.5914    4.0204  -24.4857 H   0  0  0  0  0  0  0  0  0  0  0  0
    5.0107    4.8582  -24.6477 H   0  0  0  0  0  0  0  0  0  0  0  0
    4.4444    4.3561  -22.3255 H   0  0  0  0  0  0  0  0  0  0  0  0
    4.9098    2.8363  -23.1622 H   0  0  0  0  0  0  0  0  0  0  0  0
    7.7810    4.6678  -20.4906 H   0  0  0  0  0  0  0  0  0  0  0  0
    6.2023    5.4873  -20.7413 H   0  0  0  0  0  0  0  0  0  0  0  0
    8.9307    2.4524  -16.7331 H   0  0  0  0  0  0  0  0  0  0  0  0
    8.4206    4.1453  -17.0500 H   0  0  0  0  0  0  0  0  0  0  0  0
    6.5898    4.2464  -14.3707 H   0  0  0  0  0  0  0  0  0  0  0  0
    7.0118    2.5587  -13.9232 H   0  0  0  0  0  0  0  0  0  0  0  0
    8.3765    5.0589  -22.8679 H   0  0  0  0  0  0  0  0  0  0  0  0
    5.7028    6.5642  -23.0139 H   0  0  0  0  0  0  0  0  0  0  0  0
    8.6140    7.5496  -22.7222 H   0  0  0  0  0  0  0  0  0  0  0  0
    7.3999    7.5811  -21.3988 H   0  0  0  0  0  0  0  0  0  0  0  0
    8.9772    6.7579  -21.1513 H   0  0  0  0  0  0  0  0  0  0  0  0
    5.4187    1.1569  -16.0695 H   0  0  0  0  0  0  0  0  0  0  0  0
    6.7655    0.9774  -17.2444 H   0  0  0  0  0  0  0  0  0  0  0  0
    7.0811    0.8107  -15.4839 H   0  0  0  0  0  0  0  0  0  0  0  0
    6.6612    7.8371  -26.2500 H   0  0  0  0  0  0  0  0  0  0  0  0
    5.3910    6.6375  -25.8327 H   0  0  0  0  0  0  0  0  0  0  0  0
    5.6110    8.1028  -24.8172 H   0  0  0  0  0  0  0  0  0  0  0  0
    4.7892    3.7382  -16.3127 H   0  0  0  0  0  0  0  0  0  0  0  0
    6.1145    4.7910  -16.9140 H   0  0  0  0  0  0  0  0  0  0  0  0
    3.5477    3.0009  -20.8123 H   0  0  0  0  0  0  0  0  0  0  0  0
    2.1903    3.9429  -18.8858 H   0  0  0  0  0  0  0  0  0  0  0  0
    3.0149    4.1852  -17.3820 H   0  0  0  0  0  0  0  0  0  0  0  0
  1  5  1  0
  1 25  3  0
  2  3  2  0
  2  5  1  0
  3  6  1  0
  4  5  2  0
  4  7  1  0
  6  7  2  0
  6 10  1  0
  7 18  1  0
 18  8  1  1
  8 26  1  0
  8 29  2  0
  9 26  1  0
  9 27  2  0
  9 28  1  0
 19 10  1  6
 11 12  1  0
 11 17  1  0
 12 19  1  0
 13 16  1  0
 13 19  1  0
 14 20  1  0
 14 30  1  0
 15 20  1  0
 15 30  1  0
 16 17  1  0
 16 21  1  0
 17 31  1  0
 18 19  1  0
 18 27  1  0
 20 22  1  0
 20 24  1  0
 23 31  1  0
 24 26  1  0
  2 32  1  0
  3 33  1  0
  4 34  1  0
 10 35  1  0
 10 36  1  0
 11 37  1  0
 11 38  1  0
 12 39  1  0
 12 40  1  0
 13 41  1  0
 13 42  1  0
 14 43  1  0
 14 44  1  0
 15 45  1  0
 15 46  1  0
 16 47  1  6
 17 48  1  1
 21 49  1  0
 21 50  1  0
 21 51  1  0
 22 52  1  0
 22 53  1  0
 22 54  1  0
 23 55  1  0
 23 56  1  0
 23 57  1  0
 24 58  1  0
 24 59  1  0
 27 60  1  0
 28 61  1  0
 28 62  1  0
M  CHG  1  27   1
M  END
>  <OMEGA_C>  (9) 
rOabQH3vE8DKz6PBQaPRQCtkob96hq/BI1bnQCKz7710VbPB6memQDbTAz7KdaPB31axQJoKkr/L
nafBDSbcQMgvkz9RVq/BxrC7QL0HoT++jKfBe4rNQPCGOEDUc5nBfLuGQPl8XEBtU5fBgdbtQCUE
IkDUg7HBHbC6QAjQk0ACq7/BAeaoQDEec0AkOLbBKmXfQK3ym0DivKnBcrUEQefZUUCMEoPB6i7k
QFjkVUDU+mrBS4LyQGAetUDHQrPBK3XPQFwEvkDyxLvB8KS2QPW0LEDf8aPBwSPLQJMFYUAQWa3B
IsTYQPJTN0C3NIHBNPsCQfZy30CKDq/Bv6XPQG62qz+D84HBVBfEQMIF60CQY8vBnmG3QJavcEBY
DIfBS3OKQHslUcCFvaDBsJ+uQJD0U0AtKZLBe/iJQGlZQ0DyWaHBKMNBQJmheUBguZLBtXrzQFSP
KEC5CJjBPEQHQdnyZEDnwHDBQVniQO0n1EBLx8TBp7bZQKQJD8DIqbLBACUAQRrHW76wQrnB71mO
QBuIaj79Tp3BuxIGQc2SK0DAM63BFR/zQOY0K0CbI7rBqOzSQHSngECq4sPBvFegQHV2m0CPLsXB
JziOQGlli0CumrLBMB2dQFCFNUAvTLnBlv34QGdelUDK7KPB8HjGQLqXr0Ab7qXBBuQOQZLzHEBk
3YXBq7oGQWemhEBRZojBjd/SQIjih0B07mXB4WDgQBHCI0BlxV7BBAYGQZTioUBh8bbBq322QDwO
0kBeHLjB5dIJQX+W8UAbx7XB5cvsQEKY8kDPMKvBdKIPQcZA2EDwNanBCWatQOQTlD9cjoDB9X7Y
QLM2ej+A9InBfJjiQBSHTz8fvnfBnijVQFbJ+kDr/9HBUIOsQJ5m1EBgqc7BEI2zQCOlAUGoicbB
uUCZQAw/b0BTgILBJKrDQDZQmUDsT4fBJA5jQBoOQECEf6bBfS4MQDxYfEANFpfBePRAQILthUBV
DovBXqeeQJivFMA/C6PBNm/TQH1qor81Aq/B3E3oQC5R+L3FBrPBAVOnQL5L+z1eKaPBkCezQGkm
k7/wF6fBR0TcQEHrkj94Pa/Bqqu7QBqOoD+Ce6fBdUTNQLsCOEDzgpnBGOiGQJLWXkBuZZfBOjft
QEQpIkA7mrHB7rG4QMNHkkBY47/B0pCnQLCycEC0ULbB6eTdQLMgnEDxB6rBMN7qQPU/ZECJB23B
t6f5QEm8DUDbXoLBN0fwQD8ttUCjr7PBadrMQAkHvUDrLLzB9DO2QD11LEBQ+KPBRS3KQBiJYECi
eK3BrhDlQF4Ya0CbDIPBm40BQSgV4EAprK/BJ+gAQbe4mECEHojBqjvAQHG96ECf+cvBGKO1QAHF
bEBB1IbB6+6NQBEIUsDFxJ/BC4WvQGGgXEAMe5LBDKWJQFX+QkCYUKHBdLhBQCgNeUDznpLBFSfz
QNttJkAkTJjBw/H9QHYmFEA1227BQhjfQGD10kDvTcXBJCLcQC61D8BO/bHBnaIAQQz1Xr5g87jB
hkyPQNNpZD7AAJ3Bs8oFQckZLUAqXq3BqyfyQHCTKkBuQLrBkSTRQBaGfkCXEcTBdBqeQOkqmUAN
ZMXBHcCMQJ0HikATt7LBYB2cQO1vMkC/QrnBVc/3QP8xlkB3Q6TBedPEQA+Rr0CIN6bBrQsAQdW9
ikC4RWbB033MQHGMY0B5I2TB5evjQJegtD+l8ITBHSUMQbe4B0CQo4bBRQYFQdMyokB7WbfBMKez
QIza0EBzi7jBkB4IQaAU8kBEfLbBsLrpQBf+8kDv0avBr10OQQys2UAv26nBXnf8QK6omUBc0JDB
x7H5QEf/t0DqoITBt9ARQYtnkUAmgIbBI9jQQH5o+EATrNLBzhOpQO1o0UCCH8/BGkavQIZ9AEHj
NMfBhv2jQFdiO0AlX4LBI0eoQEUTlkAc9ITB6NNhQGTYPUDHWabBxgMLQCVZd0BzxJbBEcNBQP/K
hkA7C4vBMzqgQKxcFcD1i6LBPyrTQHjyo78KA6/BNjjnQJrhB76NRbPBxk6oQKRD5j0m5aLBKOiz
QIqOlL9X2KbBsmnbQCKGkT+KdK/B0uu7QBspnz/ta6fBI6vNQOp5OUD6j5nBuh+HQNwfX0AxbJfB
eqrrQA96IUBSCbLBd4+0QNVLkEAiP8DBVfakQFqHbUABcLbBSUjcQJThm0CquqrBrk73QDCWrUBk
o47BhKznQJ/zuUD0133BtAvtQLOttEB2nrTB/H3IQBaSu0A03LzBkDa2QL3jK0ARBaTBNbXIQCdZ
X0D1y63BSMflQHujjkCFfYXB7LT/QE8U4EC75bDBpSQDQVjDWUBDXYHBp1G5QEZD5kCVtMzBc/W3
QFK5eECIZIfBbi2QQPqqUsDnDp/BORawQMI8YEA7t5LBIouJQGoRQUC5PqHBPlNCQAkbeUDvlpLB
sE/zQJKaJ0AO9JfBTXH6QGYzz0AYgIfB1UjZQJ870UBMNcbBxrTbQJyKEMC4/7HBbGL/QE+/ar5o
ZrnBbP+QQDjcWj5kkZzBtywFQQhxLUDT/a3B2sXvQPM1KUABubrB9MnMQHK3ekBXh8TBWDqZQCBr
lkCKk8XB91aKQCtTiECftrLBCpmZQCKYLkA5LLnBOA33QFSglkD/KqXBgYDDQNs7r0DVxabBkxkL
QV6Do0CwBZLBs1bgQLcws0BnKJXB+wjIQBmMxkCOY3nBDCL8QAlTuEB5i2/B2FEDQRfjoUDvarjB
fnWvQNU9z0BGG7nB8dcFQXDn8UCf3rfBe4rmQGfP8kD656zBthMNQfZe2kCrRKvBCiz3QKeFMkDm
OHbBNSUIQWJrMECNCIjBTzgRQZyDekCRDXzB2+DIQMTC9UAsldPBAxSiQPZ5zkD7ls/B/6ioQCSO
/kAx48fBrsKzQAG0P0DjVoLB1m+gQDXdlEAUFYXBMxdhQPOcOUDRJqbB1yMLQFF8dUConZbBrvVC
QFKyh0A9F4vB

>  <OMEGA_E>  (9) 
QMKJP35jiT/qC4k/

>  <OMEGA_NBR>  (9) 
     44775

$$$$
298703
     RDKit          3D

 57 60  0  0  1  0  0  0  0  0999 V2000
    5.1289   -2.2507  -19.8896 C   0  0  0  0  0  0  0  0  0  0  0  0
    6.3923   -1.3265  -21.8016 C   0  0  0  0  0  0  0  0  0  0  0  0
    6.9530   -0.2201  -22.4769 C   0  0  0  0  0  0  0  0  0  0  0  0
    5.3052    0.1632  -20.1891 C   0  0  0  0  0  0  0  0  0  0  0  0
    5.5983   -1.1342  -20.6422 C   0  0  0  0  0  0  0  0  0  0  0  0
    6.7049    1.0714  -21.9906 C   0  0  0  0  0  0  0  0  0  0  0  0
    5.8518    1.2447  -20.8895 C   0  0  0  0  0  0  0  0  0  0  0  0
    6.4484    2.8588  -19.1777 C   0  0  0  0  0  0  0  0  0  0  0  0
    4.2220    3.3069  -18.9325 C   0  0  0  0  0  0  0  0  0  0  0  0
    7.3067    2.4005  -22.3288 C   0  0  0  0  0  0  0  0  0  0  0  0
    5.2115    3.8203  -22.7039 C   0  0  0  0  0  0  0  0  0  0  0  0
    7.1120    4.7419  -21.3304 C   0  0  0  0  0  0  0  0  0  0  0  0
    5.7220    4.5222  -23.9654 C   0  0  2  0  0  0  0  0  0  0  0  0
    7.7158    5.3867  -22.5885 C   0  0  1  0  0  0  0  0  0  0  0  0
    6.6067    5.7384  -23.6043 C   0  0  1  0  0  0  0  0  0  0  0  0
    5.7505    2.6885  -20.5004 C   0  0  1  0  0  0  0  0  0  0  0  0
    6.3521    3.4493  -21.7108 C   0  0  2  0  0  0  0  0  0  0  0  0
    4.4979    4.9742  -24.7770 C   0  0  0  0  0  0  0  0  0  0  0  0
    8.4917    6.6489  -22.1775 C   0  0  0  0  0  0  0  0  0  0  0  0
    5.9695    4.7648  -16.7644 C   0  0  0  0  0  0  0  0  0  0  0  0
    5.6311    3.2744  -16.8761 C   0  0  0  0  0  0  0  0  0  0  0  0
    6.3743    5.0973  -15.3388 C   0  0  0  0  0  0  0  0  0  0  0  0
    4.7495   -3.1513  -19.2546 N   0  0  0  0  0  0  0  0  0  0  0  0
    5.4120    2.9843  -18.2715 N   0  0  0  0  0  0  0  0  0  0  0  0
    4.3574    3.0556  -20.2062 N   0  0  0  0  0  0  0  0  0  0  0  0
    3.0657    3.7988  -18.3464 N   0  0  0  0  0  0  0  0  0  0  0  0
    7.6433    2.7403  -18.9243 O   0  0  0  0  0  0  0  0  0  0  0  0
    7.2249    6.2123  -24.7947 O   0  0  0  0  0  0  0  0  0  0  0  0
    6.6312    6.4266  -15.2672 F   0  0  0  0  0  0  0  0  0  0  0  0
    5.3621    4.7765  -14.4885 F   0  0  0  0  0  0  0  0  0  0  0  0
    7.4945    4.3984  -15.0093 F   0  0  0  0  0  0  0  0  0  0  0  0
    6.5693   -2.3259  -22.1706 H   0  0  0  0  0  0  0  0  0  0  0  0
    7.5640   -0.3667  -23.3552 H   0  0  0  0  0  0  0  0  0  0  0  0
    4.6762    0.3213  -19.3255 H   0  0  0  0  0  0  0  0  0  0  0  0
    8.3125    2.4904  -21.8926 H   0  0  0  0  0  0  0  0  0  0  0  0
    7.3672    2.5299  -23.4195 H   0  0  0  0  0  0  0  0  0  0  0  0
    4.5046    4.4897  -22.1919 H   0  0  0  0  0  0  0  0  0  0  0  0
    4.6922    2.8975  -23.0020 H   0  0  0  0  0  0  0  0  0  0  0  0
    7.9188    4.4957  -20.6243 H   0  0  0  0  0  0  0  0  0  0  0  0
    6.4143    5.4489  -20.8578 H   0  0  0  0  0  0  0  0  0  0  0  0
    6.3119    3.8122  -24.5636 H   0  0  0  0  0  0  0  0  0  0  0  0
    8.4127    4.6751  -23.0553 H   0  0  0  0  0  0  0  0  0  0  0  0
    5.9671    6.5206  -23.1693 H   0  0  0  0  0  0  0  0  0  0  0  0
    4.8323    5.4838  -25.6927 H   0  0  0  0  0  0  0  0  0  0  0  0
    3.8922    4.0965  -25.0463 H   0  0  0  0  0  0  0  0  0  0  0  0
    3.8927    5.6660  -24.1728 H   0  0  0  0  0  0  0  0  0  0  0  0
    8.9284    7.1187  -23.0712 H   0  0  0  0  0  0  0  0  0  0  0  0
    7.8068    7.3572  -21.6886 H   0  0  0  0  0  0  0  0  0  0  0  0
    9.2952    6.3738  -21.4784 H   0  0  0  0  0  0  0  0  0  0  0  0
    6.8009    5.0020  -17.4444 H   0  0  0  0  0  0  0  0  0  0  0  0
    5.0876    5.3609  -17.0415 H   0  0  0  0  0  0  0  0  0  0  0  0
    6.4663    2.6696  -16.4932 H   0  0  0  0  0  0  0  0  0  0  0  0
    4.7218    3.0512  -16.2986 H   0  0  0  0  0  0  0  0  0  0  0  0
    3.6222    3.1053  -20.8821 H   0  0  0  0  0  0  0  0  0  0  0  0
    2.2603    3.9852  -18.9090 H   0  0  0  0  0  0  0  0  0  0  0  0
    3.0372    3.9670  -17.3610 H   0  0  0  0  0  0  0  0  0  0  0  0
    7.7732    6.9609  -24.5909 H   0  0  0  0  0  0  0  0  0  0  0  0
  1  5  1  0
  1 23  3  0
  2  3  2  0
  2  5  1  0
  3  6  1  0
  4  5  2  0
  4  7  1  0
  6  7  2  0
  6 10  1  0
  7 16  1  0
 16  8  1  1
  8 24  1  0
  8 27  2  0
  9 24  1  0
  9 25  2  0
  9 26  1  0
 17 10  1  6
 11 13  1  0
 11 17  1  0
 12 14  1  0
 12 17  1  0
 13 15  1  0
 13 18  1  0
 14 15  1  0
 14 19  1  0
 15 28  1  0
 16 17  1  0
 16 25  1  0
 20 21  1  0
 20 22  1  0
 21 24  1  0
 22 29  1  0
 22 30  1  0
 22 31  1  0
  2 32  1  0
  3 33  1  0
  4 34  1  0
 10 35  1  0
 10 36  1  0
 11 37  1  0
 11 38  1  0
 12 39  1  0
 12 40  1  0
 13 41  1  6
 14 42  1  6
 15 43  1  1
 18 44  1  0
 18 45  1  0
 18 46  1  0
 19 47  1  0
 19 48  1  0
 19 49  1  0
 20 50  1  0
 20 51  1  0
 21 52  1  0
 21 53  1  0
 25 54  1  0
 26 55  1  0
 26 56  1  0
 28 57  1  0
M  CHG  1  25   1
M  END
>  <OMEGA_C>  (10) 
SCCkQEILEMD4HZ/BeY3MQLfKqb+saa7Bm37eQHhmYb6d0LPB1MOpQNgmJz5Ng6HBgiWzQHEtkb8p
I6XBV47WQLskiT/F7K/BNkK7QOhRnz+nHafBAVnOQBX3NkDfa5nBnRqHQKKkU0C4dZfBMNDpQC6i
GUByobLBSsSmQA5/dECrobXBy5XjQMm9l0CPpKrBYRq3QHm1kEAVub/Br+f2QJ9frEBLtbTB62nT
QEOht0CR1bzBvQO4QIIQLEDeAKTBbUTLQL7BXECrr63BDe+PQPAsn0BAN8bBFN4HQXrD1ECXa7HB
LAa/QCp5mEBmHYbB0DG0QCqPUUA9AofBd/rLQOEco0DEa3XBtvuXQAyvScCDCZrBVi+tQP/9PkD7
K5LBOXCLQFaOQ0AzpqHB4zREQL4ec0BcxZLBmJX0QMphL0AMZZfBEDLnQDXLxkB3W8bBKDPUQPqm
zUCNRnTB8ZWrQEbZmEDD0GfB/9LvQJm/jEDkJXDBiDfSQELcFMBvXbHBsgzyQCPCu75x17rBiqOV
QMmGpD6dmprB0/8EQd1iH0AJJK/Bt7/rQDrpIUAwW7vB8CWQQNSrj0D6iLHBUSaWQCxwOUADBLjB
CGf9QOzcj0Ce/qTBK0LNQMJdrkDA3KbBefvJQFj7c0BSgsTBmZoGQRealUAxcbjBwvK+QIOo0ECj
WrnBbaKaQCB7r0Clis3BTxl5QB8Wg0DeXsjBTSF5QBZQtUDUYcHBsNoOQVfM40C/kbjBDtH5QIpu
60BJgq3B9LgUQR32y0C106vBEqHZQLsQoEAljovBOc2iQFmMq0AXVYjBPuzOQB7bKkD/8YPBWRmX
QBJGQ0CXY4LBINJnQEe9RkCWDqfB76gQQDEOf0CTRZfBbGFCQCDjfUBl44rBtL34QHq/3kArusTB
N2yjQE1kEcCJqJ7BC2XQQChVrb/q96zBVc7hQKj/hb5VnrLBi/CnQCC4Lj65aqHBY5yzQPxRkr8g
ZaTB6OfWQDTbhT8nk6/BRua5QKi7nz/5JKfBk6bOQOKOOEDbqpnB5jmHQB7qVECOfpfBmL7nQCZL
GECOObPBXbCmQMBee0CIh7XBZGXmQAOklkDMxarBiKq2QHYMlkD4Y7/Birj4QO42rEA82LTBienT
QLh/u0DwErzBiae3QOqTLUB+LaTB/lfLQKqeXUA6463BClKPQIxHp0B9ZcXBG38KQRQp0kDUgbHB
GgCzQDIZiECXV4HBtwOyQJpmOEA90IbBIjLaQM4Do0BzpoTBbr6WQAdYTcA1GZrBrLKtQDAmQUD2
XJLBbqKLQNCmSEC7waHBgRJDQKTrbkCzp5LBKrn0QE7WLEDLxpfBClnlQMSdzkDZb8XBUhPdQFZ9
xED/nnvBRJj+QIhJi0CK7oPBIwHWQOqKskDgx47BzRvZQHYdF8CHNK/Btlz3QJz/276fPLnBfNaR
QNePsD4s7JrB/p8EQcMWIECftbDBcKblQExRHUCc/LvB9AGRQHm8kkBRBLHBCw2VQFR4QkBUQLjB
pnQAQa2XjEDzjqXB+/7RQC6arUBdeabB1YXIQJ8cgEDZoMTBHycGQZ7klEDxQbnBIqrAQMP90kAI
oLfB+s+ZQHv5uECFiczBMaJ1QKdgjEAK1cfBzVp6QPTOvEBUHcDBqxQRQZet4UDor7jBRdcAQXJj
6UBC/azBgbAXQdWVxkDEc6zBHsiVQKqxmUBwhIPBn92zQAxNg0D/QHHBeu7PQDgzFkCOBIXB/rOW
QEKQE0BUtoPBbO1oQBKDUECuL6fBUOAOQOyFeUA1F5fB0NdAQC0Yd0C5uYrBmm33QBq/5UDgdsPB

>  <OMEGA_E>  (10) 
luB4PzwkeT8=

>  <OMEGA_NBR>  (10) 
     46972

$$$$
298704
     RDKit          3D

 60 63  0  0  1  0  0  0  0  0999 V2000
    5.2532   -2.2372  -19.8092 C   0  0  0  0  0  0  0  0  0  0  0  0
    6.4542   -1.3134  -21.7615 C   0  0  0  0  0  0  0  0  0  0  0  0
    6.9815   -0.2045  -22.4594 C   0  0  0  0  0  0  0  0  0  0  0  0
    5.3447    0.1737  -20.1633 C   0  0  0  0  0  0  0  0  0  0  0  0
    5.6713   -1.1227  -20.5943 C   0  0  0  0  0  0  0  0  0  0  0  0
    6.7096    1.0879  -21.9891 C   0  0  0  0  0  0  0  0  0  0  0  0
    5.8526    1.2563  -20.8902 C   0  0  0  0  0  0  0  0  0  0  0  0
    6.4530    2.8583  -19.1946 C   0  0  0  0  0  0  0  0  0  0  0  0
    4.2219    3.3404  -18.9335 C   0  0  0  0  0  0  0  0  0  0  0  0
    7.2922    2.4237  -22.3412 C   0  0  0  0  0  0  0  0  0  0  0  0
    5.1949    3.8446  -22.6985 C   0  0  0  0  0  0  0  0  0  0  0  0
    7.0949    4.7537  -21.3164 C   0  0  0  0  0  0  0  0  0  0  0  0
    5.7018    4.5642  -23.9501 C   0  0  2  0  0  0  0  0  0  0  0  0
    7.6886    5.4284  -22.5620 C   0  0  1  0  0  0  0  0  0  0  0  0
    6.5754    5.7827  -23.5730 C   0  0  1  0  0  0  0  0  0  0  0  0
    5.7396    2.6967  -20.5052 C   0  0  1  0  0  0  0  0  0  0  0  0
    6.3371    3.4653  -21.7122 C   0  0  2  0  0  0  0  0  0  0  0  0
    4.4750    5.0149  -24.7586 C   0  0  0  0  0  0  0  0  0  0  0  0
    8.4408    6.6974  -22.1252 C   0  0  0  0  0  0  0  0  0  0  0  0
    7.2019    5.3908  -17.4057 C   0  0  0  0  0  0  0  0  0  0  0  0
    6.1599    5.0936  -15.1380 C   0  0  0  0  0  0  0  0  0  0  0  0
    5.6762    3.3972  -16.8782 C   0  0  0  0  0  0  0  0  0  0  0  0
    5.9462    4.8986  -16.6453 C   0  0  0  0  0  0  0  0  0  0  0  0
    4.9171   -3.1357  -19.1473 N   0  0  0  0  0  0  0  0  0  0  0  0
    5.4430    3.1126  -18.2849 N   0  0  0  0  0  0  0  0  0  0  0  0
    4.3488    3.0650  -20.2028 N   0  0  0  0  0  0  0  0  0  0  0  0
    3.0418    3.7711  -18.3455 N   0  0  0  0  0  0  0  0  0  0  0  0
    7.6339    2.6263  -18.9554 O   0  0  0  0  0  0  0  0  0  0  0  0
    7.1896    6.2734  -24.7582 O   0  0  0  0  0  0  0  0  0  0  0  0
    4.8729    5.6394  -17.0406 F   0  0  0  0  0  0  0  0  0  0  0  0
    6.6485   -2.3138  -22.1192 H   0  0  0  0  0  0  0  0  0  0  0  0
    7.5856   -0.3500  -23.3428 H   0  0  0  0  0  0  0  0  0  0  0  0
    4.7198    0.3303  -19.2965 H   0  0  0  0  0  0  0  0  0  0  0  0
    8.3037    2.5255  -21.9211 H   0  0  0  0  0  0  0  0  0  0  0  0
    7.3343    2.5497  -23.4332 H   0  0  0  0  0  0  0  0  0  0  0  0
    4.4862    4.5048  -22.1771 H   0  0  0  0  0  0  0  0  0  0  0  0
    4.6787    2.9240  -23.0081 H   0  0  0  0  0  0  0  0  0  0  0  0
    7.9076    4.4972  -20.6208 H   0  0  0  0  0  0  0  0  0  0  0  0
    6.3975    5.4483  -20.8254 H   0  0  0  0  0  0  0  0  0  0  0  0
    6.2987    3.8660  -24.5553 H   0  0  0  0  0  0  0  0  0  0  0  0
    8.3985    4.7377  -23.0404 H   0  0  0  0  0  0  0  0  0  0  0  0
    5.9296    6.5547  -23.1292 H   0  0  0  0  0  0  0  0  0  0  0  0
    4.8064    5.5375  -25.6680 H   0  0  0  0  0  0  0  0  0  0  0  0
    3.8772    4.1350  -25.0386 H   0  0  0  0  0  0  0  0  0  0  0  0
    3.8629    5.6947  -24.1476 H   0  0  0  0  0  0  0  0  0  0  0  0
    8.8717    7.1913  -23.0086 H   0  0  0  0  0  0  0  0  0  0  0  0
    7.7418    7.3842  -21.6257 H   0  0  0  0  0  0  0  0  0  0  0  0
    9.2470    6.4240  -21.4285 H   0  0  0  0  0  0  0  0  0  0  0  0
    7.0538    5.2532  -18.4870 H   0  0  0  0  0  0  0  0  0  0  0  0
    7.3660    6.4571  -17.1910 H   0  0  0  0  0  0  0  0  0  0  0  0
    8.0785    4.8119  -17.0792 H   0  0  0  0  0  0  0  0  0  0  0  0
    5.2701    4.7453  -14.5929 H   0  0  0  0  0  0  0  0  0  0  0  0
    7.0377    4.5151  -14.8144 H   0  0  0  0  0  0  0  0  0  0  0  0
    6.3252    6.1602  -14.9262 H   0  0  0  0  0  0  0  0  0  0  0  0
    6.5473    2.8194  -16.5357 H   0  0  0  0  0  0  0  0  0  0  0  0
    4.7885    3.0993  -16.3008 H   0  0  0  0  0  0  0  0  0  0  0  0
    3.6073    3.0995  -20.8729 H   0  0  0  0  0  0  0  0  0  0  0  0
    2.2193    3.8876  -18.9023 H   0  0  0  0  0  0  0  0  0  0  0  0
    3.0134    3.9650  -17.3649 H   0  0  0  0  0  0  0  0  0  0  0  0
    7.7320    7.0241  -24.5468 H   0  0  0  0  0  0  0  0  0  0  0  0
  1  5  1  0
  1 24  3  0
  2  3  2  0
  2  5  1  0
  3  6  1  0
  4  5  2  0
  4  7  1  0
  6  7  2  0
  6 10  1  0
  7 16  1  0
 16  8  1  1
  8 25  1  0
  8 28  2  0
  9 25  1  0
  9 26  2  0
  9 27  1  0
 17 10  1  6
 11 13  1  0
 11 17  1  0
 12 14  1  0
 12 17  1  0
 13 15  1  0
 13 18  1  0
 14 15  1  0
 14 19  1  0
 15 29  1  0
 16 17  1  0
 16 26  1  0
 20 23  1  0
 21 23  1  0
 22 23  1  0
 22 25  1  0
 23 30  1  0
  2 31  1  0
  3 32  1  0
  4 33  1  0
 10 34  1  0
 10 35  1  0
 11 36  1  0
 11 37  1  0
 12 38  1  0
 12 39  1  0
 13 40  1  6
 14 41  1  6
 15 42  1  1
 18 43  1  0
 18 44  1  0
 18 45  1  0
 19 46  1  0
 19 47  1  0
 19 48  1  0
 20 49  1  0
 20 50  1  0
 20 51  1  0
 21 52  1  0
 21 53  1  0
 21 54  1  0
 22 55  1  0
 22 56  1  0
 26 57  1  0
 27 58  1  0
 27 59  1  0
 29 60  1  0
M  CHG  1  26   1
M  END
>  <OMEGA_C>  (11) 
eBqoQOUtD8AleZ7BrIjOQGYeqL+UF67BeWjfQAhdUb7prLPBdQerQOTXMT6CTqHBZXu1QJS0j780
waTBK7XWQDw/iz+76a/Biki7QDTOoD8RH6fBCH/OQJbtNkB+jpnBiBmHQMfJVUC2d5fBoFnpQEUd
G0DdurLB8jymQDMOdkB/lrXBhAnjQCcemEACiKrBK3W2QFMOkkC3mb/Btwj2QMq1rUD/frTB/GnS
QAAMuUB4lbzBBKu3QIWWLECfCqTBpsnKQPnGXUCosq3BeTOPQOl5oECGEcbBtQ0HQcVQ1kBhALHB
MnbmQE2BrEDrPovBkh3FQG3+okAiNXLBDKO1QJtrWUCgBofBTUe+QErBnECUKYXB4lidQIKvSMDB
LZnB7iyuQF01R0BoR5LBqCmLQM8oREBun6HBiKxCQOdYcUCtw5LBHkn0QJcVKECRpJfB9xDmQHy/
yEC3EMbB5+6bQAd2tEA6U4jBisDUQPUUFMAd9LDB1rzyQDk3s74LvrrB9AiXQIQeqT4nX5rB7dsE
Qd6hIUB7Xq/BWLLqQJQuI0Apd7vByY6PQEwnkEC+arHB0reVQBkiO0CdELjBwwr9QGDpj0B196TB
CrjMQCFYrkBWmqbBjo7JQCxtd0AtccTBZWAGQZObl0DHUrjBWL+9QDvA0UCoCLnB9c2ZQOgysUAX
WM3BoyR4QOBRhEAaT8jBfzp3QLs6tkBWLsHBW/INQcUe5kCoEbjBs7z3QMVL7EBqAa3BufMTQVSR
zUCNbavBErnhQPwZqEBZ5ZPB6bXrQGugzkAuh4nBcEEBQW77mUA7oojB+qSoQBvZl0CbfGnBETXh
QKF7kECfB23BG2jKQJ4gxUCF0W7BUoPRQFtxNEApSYTBxjuZQBRbRkAPaILBmN5mQMFdRkC6+6bB
8AgOQCLOeEDYN5fB7dtAQGvCfUBm64rBWGz3QKjF4EDiX8TBxU2qQLJ2EMCdYp7B7UHRQKISqL8t
0a3BH7HhQICSSL5RXbPBABOrQIAaHz4eXaHBExi3QFJQkb9KqKTBLHDXQF21iz+2v6/BKN+6QGqL
nz++KKfB6dzNQKaUNkBdpJnBMiKHQGrGWkDSipfB/IfpQCjvG0DFfrLB/xOmQMw7dUC8mbXBp9jh
QCRWmEC9QqrBmeG2QGbkkUBlhr/BFEX1QPpFrkBfHrTBpRvSQDc6uUAaW7zB0762QBjWK0AtBqTB
8yzKQMa7XUB+k63BEg+QQLLNn0CqNcbB2U8GQT4d10BhfbDB57TWQEsNlUAMuG/BqaTjQHYLsEA+
korB/JK0QL4oXECu+obB/6zcQEmLh0Dvk4PBYBCgQOOCSsCDHpnBY1SvQIBUVkBQmpLBDF6KQMFb
Q0D9iqHBKSBCQKA+c0DkupLB6jLzQCxFIkDyAZjBfUrmQPlMyUA6usXBFrr/QNCTW0AdCITBoanY
QMTcE8CGkbDBpt/1QA+Uqb5TS7rBr0SWQCPwmT5BkJrBBdMEQbV2I0DgBK/Bf1DrQDELJECpObvB
od+OQBh5j0CzhrHBFA6WQEYAOkAXKrjB74/7QO9IkEBPmaTByQ7LQKpGrkCcZqbBnK/KQFqWd0Af
QsTBY0MGQYB9mECF27fBoty8QOWe0UDi4rjByhmbQI2tsEAebM3B1AN7QHRng0BEj8jBS4B3QABK
tUD5bsHB+loNQRkr50AUfLfB1rn1QC/I7EAjk6zB8RATQYOYzkDgz6rB6MLRQCXscEAqwWXBCmjz
QOEzpkDJNmrBVK26QDQuqkA2Zm7BNe/nQHGDpkBs+ZLBiZnHQAwlxUAu5InBICoAQbkqwUB4zIfB
Kxm3QLHyGkBWuYPBXS2YQCLbe0CBnIPB/zZkQOeyQUB0wabBG9MLQF6kc0DD9pbBdoZBQNQ+gkC+
BovBHDL3QDKH4UBM78PBqoCkQMuDF8BkcqDB6+/UQFr1rL/ls63BOWjnQDAfXL4QkrLBLzSqQJBC
pT322KHBAoi2QCZdmr/gXKXBpd3aQIiRiD+RL6/BDzy8QNpamT/u+KbBsTjOQHQaPUA46ZnBlqWH
QCcDYEBxe5fBSpjpQL2xHECSbbLBo1+hQId9Y0Bvy7bB7+rYQGJumkDS8qvByTGvQHKMiUB9IcHB
hfvnQEytsUAtPLbBwK3CQE7utUDVYb7Byri1QIP+KUCzGqTB/UTGQLFsWkD4Va7Bqs6HQF6ujkBZ
hcjBscP5QOA73kDcKLPBO6nwQFoKt0AKbo/B6mUFQcx0dUDkFYPBlf65QFlFf0Bb54fBo8rkQCnz
mEA+/YXBmtGVQL89VMB7dZzB30qxQHksZkA1KpPB4TOJQDsXPkDdHaHB6I9DQHW8eEAzfpLB3p3z
QL4zKkBZL5jBIRrSQPyCyUAx/MfBsFfeQMiaskCRsnrBuAveQCqxFcCaWrDBhO/+QJzcqL4A1bjB
goqTQD42Tz7FZZvBQUMEQRfgK0Anrq7BRKnsQBIdIUBZLbvBf9iGQHmOg0BXGrPBUl2WQFgDI0CE
ArnBLWH0QA78lkDngqbBJgfAQLDjrUByEajBqIDHQKKLbEDjScXBSeYAQd7fnkBQ77nBLoOpQF/b
yUBexbrB202RQEGIn0CG38/BC0B2QA/OXUBXlsrBpPRdQLlAoUD3WsTBREYCQQUA70COabrBI3rg
QKwH8UBzPK/B+nMKQVRY2kAlpK3BJk/VQEbpy0ATSpHBCTAGQXnJykDqLY3B1bb4QKi5o0B9gZbB
yboAQfS5S0CAyXjB3YQJQZ3zTUBpEorBfFkTQaAJjkDXvoDBvSq7QFGNREDdDoPBqVifQP7ck0D+
KoXBlWtfQI1uM0Ddw6XBYpILQPoKcUA2P5bBZyhFQAAYiUDNJ4vB5g7eQLau5EC4WMbBBCWfQMUw
FcC+iKLBhXrSQGgRpb8n9q7BEN/mQMB6Fb4aNLPBO7+nQLx96j1M5aLBeB+zQF67lL8y06bB41Db
QApCkD+SZq/BlrS7QBjlnj+UZ6fBNMfNQKh2OUC7jZnBWU+HQP5xX0Bya5fBqwHsQNSpIED58bHB
s6qlQD3vbUCdfrbB97vcQFzBm0AFqarBUM61QEonkED6aMDBiV3uQOMYtEDwiLTBdIHKQC01u0DS
+LzBzEy2QH/1K0DUBKTBVB7JQIgmX0B9x63BZLWPQHkmmECZD8jBpqkAQXBb30DI0bDBqvEDQYgi
YUC3dYLB6n7gQN/ZsUAc0HfBgy+4QFA+dkA6P4fBIULkQC/EkUB4Q4XB9d2OQDZJUsCBDZ/B8kew
QDv4X0DsrJLBormJQIHfQUC5RKHBk5NCQPh3eUCKnpLB817zQA5ZJ0AL75fBXQ3cQB/lz0DrMcbB
6sLvQEGuqEAEHI7B2NXaQMc6EcB28LHBzRr/QCJafr4QT7nBv1eQQBnZYj6rmJzBuEsFQfYlLEAk
1a3BMnPwQBtWKEA5n7rBaDqLQMQBiUAK1bLBJOmZQBgqL0BcL7nByAz3QPV6lkBs96TB6MnDQL5e
r0Ao2qbBjfjNQHCHeUBMlsTBz/4DQfXloEC0MLjBQ42xQHZqz0DbXbnBKdqaQJj+qUDDHc/BmTGC
QE2XckBxncrBzvdtQFjXqkDE48PBG/UGQYfZ8ED0xrfBSinoQFJ+8kAZ86zBerANQXN82UBAFqvB
34cFQRTMMkCBCYnBdj8TQfBSgUB+TYHB9jX/QPAwP0CfH3bB3ILHQO+LyUDfdnvBmALYQHGPoEDb
FGnBjkv/QOlJwkA4kHXB4Fq3QOXzOkDAgYLBPYaeQDerkEAkjYTBMYdhQI0xO0BINKbBmY4LQHc9
dkCer5bBwfVCQH6yh0CEGovBecLoQLdB6kAqI8TBn/2bQOtmFMAvWaPBqFjPQMj/o78QyK/Bf23k
QIfXEb6W47PBTwOnQAqk9j3XLqPB38iwQIKQk7/idafBeW7aQDJLkD8Jv6/BSN67QNtFnz89gafB
UH3OQIigOkBjZZnBlF6HQDOZXUBja5fBCunrQHwzIECvKLLBDwWmQPZfcEAAZrbBUGreQLFem0CK
p6rBHgu2QBGXkUChS8DBDtjvQLPns0DUgrTBfKbLQIAZvEDtybzBXDG3QLpNLECHAKTB89HJQHmA
X0A/za3Bn7GPQESumkCVy8fB6+ABQUKZ3kDys7DBwF2gQDL2x0Cml4nBXtruQH/JtEABCovBdOG3
QPw7c0BPIIfBgvnDQIykqUAShoXBqBuLQBxfUcCwA6DBdrOvQDWOWkCTaJLBB3WKQDJHQkC7WaHB
QHRCQBm0d0A4s5LBjxb0QM4bK0BOWZfB8Q3dQB0A0UBy/8XBcMLIQGdksEDKpnXBbY/WQA99EMD7
ALPB0wD8QMmDe74FJ7rBxCGQQOK+aD6zw5zBKV8FQXv1KUC3F67BiiLwQBXAKEBo1LrBeROMQMF7
ikDRmLLBY5qZQHFFMkD9JLnB9P/4QLZZlUAYFqXBTBTGQGg9r0Cbr6bBPaXNQGkEfEB1ncTBxnYE
QcB7oED7UrjBJkCzQEmG0EC0BrnB88uaQOitrEB+1M7BRXqBQDZteEDEZsrBShRvQBubrUDJe8PB
RR8IQbdM8ECgo7fB/SbrQKfr8UBeq6zBOAQPQQPv10DdFqvBtfOBQFrnv0CTpYXBiP6oQLhC6UCq
uYfBjdecQJBIxEC8TJLB0wUEQf8mn0DHHojB/m3rQI8VsUCRv5PB+ZT3QLcP1kB/LInBLVzSQKfC
S0DWFITBmMaaQDwGZkDcdYLBZKpjQG8YPUAYa6bBSAIMQBRadkDd5pbBqA9CQBjphUASG4vBs0/q
QLUH60Co5MPBa4iZQA9AE8DdRKTB5uPPQFw6ob/E2q/BIz3mQOjn+L3NibPB/HelQHgzCT5Eo6PB
P6evQHZMkb9O76fBasvbQN6Pkj8lZ6/BCnq7QJYUoT+ElqfBG7DNQAXQN0BpTJnBJb2GQCAVW0Aw
TZfBzTnuQIZRIUA9crHBq/apQFkSdUBhKbbBMJrgQDukm0D8j6nB32C8QC7AlEAgqL/Bm3v0QJq8
tEAQ/bLBRxbSQFR3vkAjnLvBegW3QGm9LEB85aPBD+rLQOIhYUBOQ63BEbOXQHRcn0APh8fBeT8E
QY6S3kBPpK7BFTXVQLwqrj9OB4LBc0PWQCGhTUDYCGnBiqm1QBYwbEDcuYbB8E7ZQNbKOUD2lIDB
oI6HQGg7UMAgUaHBnC6uQIg4UEBf+JHB12OKQCb3Q0C3Y6HB7ahBQO/FeECAx5LBxdrzQIAAKkAJ
2JfBgbHlQDfy00CCccTBwkYAQQ3WVUD0yIPBJmvXQDHjDsDZGLPBWSD/QF9oZL5TernBOG6NQAJM
cz5VfJ3BcD4GQSyZKUB+Eq3BgtDzQIX7KkDcDLrB1qOPQHjdjECbibLBLY+dQB8UOECFRrnBWtj5
QOOblEDOr6PBacjHQC+Pr0AtzaXBDGzUQPExgUA41MPBNfEGQbIuoUCpn7bB2GC5QP/70kAuArjB
kW+kQHXysUDjSc7Bzn+JQLB1gUAvhcrBIh9+QDo4skArX8PBtGALQcO18EC3SbXBIYPvQD8D8kAt
y6rBvrgQQVO71kBQwKjB5UXXQIgKjj+xlIrBrD/vQCrlWz8NWnvBFDS2QA0bgz/qsX3BQRHZQEaJ
iUBHgWbBmEC3QLhCN0Br3WLBMEzwQHyuLECOhWDBdHyXQGqmZEBZS4LB3Me+QIIWmEAB3YbBvXNk
QPFfQkBioabB388MQLB2fUDcQJfBQgxAQGq0hECTDovBZwHzQDp57UC6AMLB

>  <OMEGA_E>  (11) 
jsN6P570fD+yJ4U/c6+GP8BRhz+e+oc/

>  <OMEGA_NBR>  (11) 
     53137

$$$$
298705
     RDKit          3D

 60 63  0  0  1  0  0  0  0  0999 V2000
    4.9756   -2.1741  -20.6445 C   0  0  0  0  0  0  0  0  0  0  0  0
    6.5455   -1.0612  -22.1588 C   0  0  0  0  0  0  0  0  0  0  0  0
    7.1636    0.0913  -22.6474 C   0  0  0  0  0  0  0  0  0  0  0  0
    5.2431    0.2540  -20.5809 C   0  0  0  0  0  0  0  0  0  0  0  0
    5.5913   -0.9803  -21.1332 C   0  0  0  0  0  0  0  0  0  0  0  0
    6.8026    1.3124  -22.1025 C   0  0  0  0  0  0  0  0  0  0  0  0
    5.8540    1.3952  -21.0773 C   0  0  0  0  0  0  0  0  0  0  0  0
    6.4072    3.0623  -19.2825 C   0  0  0  0  0  0  0  0  0  0  0  0
    4.1694    3.5618  -18.9830 C   0  0  0  0  0  0  0  0  0  0  0  0
    7.3491    2.6663  -22.4463 C   0  0  0  0  0  0  0  0  0  0  0  0
    5.1487    3.9033  -22.9175 C   0  0  0  0  0  0  0  0  0  0  0  0
    6.8792    4.9841  -21.4505 C   0  0  0  0  0  0  0  0  0  0  0  0
    5.6128    4.7402  -24.1203 C   0  0  2  0  0  0  0  0  0  0  0  0
    7.3808    5.8165  -22.6422 C   0  0  1  0  0  0  0  0  0  0  0  0
    6.2550    6.0591  -23.6615 C   0  0  1  0  0  0  0  0  0  0  0  0
    5.6896    2.8207  -20.6384 C   0  0  1  0  0  0  0  0  0  0  0  0
    6.2625    3.6288  -21.8609 C   0  0  2  0  0  0  0  0  0  0  0  0
    4.4308    5.0000  -25.0627 C   0  0  0  0  0  0  0  0  0  0  0  0
    7.9786    7.1341  -22.1352 C   0  0  0  0  0  0  0  0  0  0  0  0
    7.2977    5.7613  -17.5261 C   0  0  0  0  0  0  0  0  0  0  0  0
    6.1949    5.6853  -15.2690 C   0  0  0  0  0  0  0  0  0  0  0  0
    5.6938    3.8594  -16.9807 C   0  0  0  0  0  0  0  0  0  0  0  0
    6.0385    5.3470  -16.7556 C   0  0  0  0  0  0  0  0  0  0  0  0
    4.4757   -3.1434  -20.2475 N   0  0  0  0  0  0  0  0  0  0  0  0
    5.4027    3.5328  -18.3717 N   0  0  0  0  0  0  0  0  0  0  0  0
    4.2821    3.1346  -20.3069 N   0  0  0  0  0  0  0  0  0  0  0  0
    2.9843    3.9419  -18.4069 N   0  0  0  0  0  0  0  0  0  0  0  0
    7.5847    2.8766  -19.0229 O   0  0  0  0  0  0  0  0  0  0  0  0
    6.7786    6.7241  -24.8108 O   0  0  0  0  0  0  0  0  0  0  0  0
    4.6585    6.3248  -17.3952 Cl  0  0  0  0  0  0  0  0  0  0  0  0
    6.8191   -2.0247  -22.5834 H   0  0  0  0  0  0  0  0  0  0  0  0
    7.9070    0.0261  -23.4346 H   0  0  0  0  0  0  0  0  0  0  0  0
    4.5156    0.3250  -19.7776 H   0  0  0  0  0  0  0  0  0  0  0  0
    8.3145    2.7973  -21.9440 H   0  0  0  0  0  0  0  0  0  0  0  0
    7.4921    2.7729  -23.5237 H   0  0  0  0  0  0  0  0  0  0  0  0
    4.3255    4.4482  -22.4365 H   0  0  0  0  0  0  0  0  0  0  0  0
    4.7233    2.9584  -23.2788 H   0  0  0  0  0  0  0  0  0  0  0  0
    7.7215    4.8265  -20.7665 H   0  0  0  0  0  0  0  0  0  0  0  0
    6.1310    5.5655  -20.8945 H   0  0  0  0  0  0  0  0  0  0  0  0
    6.3490    4.1744  -24.7041 H   0  0  0  0  0  0  0  0  0  0  0  0
    8.1954    5.2750  -23.1415 H   0  0  0  0  0  0  0  0  0  0  0  0
    5.4848    6.7074  -23.2238 H   0  0  0  0  0  0  0  0  0  0  0  0
    3.6640    5.5612  -24.5363 H   0  0  0  0  0  0  0  0  0  0  0  0
    4.0196    4.0520  -25.3983 H   0  0  0  0  0  0  0  0  0  0  0  0
    4.7711    5.5713  -25.9228 H   0  0  0  0  0  0  0  0  0  0  0  0
    7.2092    7.7115  -21.6300 H   0  0  0  0  0  0  0  0  0  0  0  0
    8.3656    7.7044  -22.9752 H   0  0  0  0  0  0  0  0  0  0  0  0
    8.7870    6.9227  -21.4393 H   0  0  0  0  0  0  0  0  0  0  0  0
    7.2084    5.5286  -18.5929 H   0  0  0  0  0  0  0  0  0  0  0  0
    8.1842    5.2351  -17.1535 H   0  0  0  0  0  0  0  0  0  0  0  0
    7.4852    6.8368  -17.4345 H   0  0  0  0  0  0  0  0  0  0  0  0
    5.3047    5.3971  -14.6983 H   0  0  0  0  0  0  0  0  0  0  0  0
    6.3528    6.7604  -15.1187 H   0  0  0  0  0  0  0  0  0  0  0  0
    7.0551    5.1713  -14.8271 H   0  0  0  0  0  0  0  0  0  0  0  0
    6.5216    3.2246  -16.6423 H   0  0  0  0  0  0  0  0  0  0  0  0
    4.8178    3.5864  -16.3809 H   0  0  0  0  0  0  0  0  0  0  0  0
    3.4786    3.0458  -20.9244 H   0  0  0  0  0  0  0  0  0  0  0  0
    2.9943    4.2282  -17.4558 H   0  0  0  0  0  0  0  0  0  0  0  0
    2.1619    3.9165  -18.9626 H   0  0  0  0  0  0  0  0  0  0  0  0
    7.4342    6.1252  -25.1988 H   0  0  0  0  0  0  0  0  0  0  0  0
  1  5  1  0
  1 24  3  0
  2  3  2  0
  2  5  1  0
  3  6  1  0
  4  5  2  0
  4  7  1  0
  6  7  2  0
  6 10  1  0
  7 16  1  0
 16  8  1  1
  8 25  1  0
  8 28  2  0
  9 25  1  0
  9 26  2  0
  9 27  1  0
 17 10  1  6
 11 13  1  0
 11 17  1  0
 12 14  1  0
 12 17  1  0
 13 15  1  0
 13 18  1  0
 14 15  1  0
 14 19  1  0
 15 29  1  0
 16 17  1  0
 16 26  1  0
 20 23  1  0
 21 23  1  0
 22 23  1  0
 22 25  1  0
 23 30  1  0
  2 31  1  0
  3 32  1  0
  4 33  1  0
 10 34  1  0
 10 35  1  0
 11 36  1  0
 11 37  1  0
 12 38  1  0
 12 39  1  0
 13 40  1  6
 14 41  1  6
 15 42  1  1
 18 43  1  0
 18 44  1  0
 18 45  1  0
 19 46  1  0
 19 47  1  0
 19 48  1  0
 20 49  1  0
 20 50  1  0
 20 51  1  0
 21 52  1  0
 21 53  1  0
 21 54  1  0
 22 55  1  0
 22 56  1  0
 26 57  1  0
 27 58  1  0
 27 59  1  0
 29 60  1  0
M  CHG  1  26   1
M  END
>  <OMEGA_C>  (12) 
9jefQJQkC8DbJ6XBdnTRQM7Th78/RbHBCjzlQEDquj3mLbXBUcenQDIPgj7CpaTBxOuyQH7yer/O
EKnBnq7ZQO78pz/f0bDB3FO7QN6Usj9jnqjBtgfNQFb9Q0CTQprBEmyFQF30Y0Af3ZfBrivrQByl
KkAOkrPBv8GkQAHQeUAOV7fBDCLcQHB9n0CMmqvBZJyzQOivl0Bh9sDBcS/sQIQgukBGI7XBQinI
QIXkwUC3Sr3B7BC2QCKGNEBmG6XBJGbIQNY9aEAO467BXsmNQLT/n0B5gMjBClH/QF5K5EDWFLHB
robpQFZcuECLNYzByDzGQPDttUCjTXTB0jO2QP7/dkBo2IfBGjvBQOgaq0BoC4bBNjmPQLYsScDg
+qHBiOKsQBkZYkA3+ZLBFweJQNOcSECEdKLBaP4+QNFIfEBEQZPBhLXyQDAaOED5LpjBbOrYQKor
10BwfMbBHhKVQBZlykBXKYvB/jXaQASVAcDlqrTBLQb9QIAR1jwaervBrH+QQOxspj6MOJ7BRggF
QVEGM0A/ja/BLL/vQL52MUCNMLzBO2qKQIlXjkACfrPBqSWXQLVVPUD3OrrBaxb3QP1ymkDGIabB
1DDEQG4YskDzJ6fBtirLQAiVhUDsocXBdiADQdbMqECyIbnBLYOvQPui1kBcyrnBOn5qQCb1sUBb
SsTBpKCAQFWqgUChL8vBtayYQNBHskD4Yc/BjLHmQKzE9kBHCq3BWtkFQdiK9kBOzbfBwJcMQbCG
3UCvg6vB9qrmQJ7qsEA+vpTBivICQUGGp0BROonBFIfvQCrH2kDzeYvBVMCpQGm1rEBtLGvBekrL
QERV2EAM5nHBUcPhQHN7pUCqO23BmLDQQJxfTkB8I4XBTiuaQESHZUALDIPBT6FeQJPuQkAtZafB
waI/QJFNh0BqpYvBGFwKQDuoekBws5fBGuXtQHkBxEAOl8nBzraJQEWhIMDu3aLBSGC8QCa21b8X
N7DBHGnTQABnIL8a5rTBfvybQOhNCr6QeaPBJtagQM10tr8pkafB3xXOQIDwJj9j2rDB07qyQLm8
ZT9dNqjBmADPQIBpI0AJ3ZrBUs+KQLYhVkBgfpfBhPzjQGp59D/wbLTBLSOiQH9jWUAGhLfBz5vg
QCDaiUCzKq3B1maxQJ6/g0B+r8HB9BDxQCmgoEBARLfBsgnMQPSPq0A05b7BHDO0QCZZFkB7MqXB
Mr/GQLqwQUDkka/BEtaKQLSOj0DJrcjBrDMFQXWkyEBnEbTBM8sGQWDXK0BwJofBd475QBQgm0A7
bXzBi97AQBjgYUBmdIjB8ZDwQGTXekAEtYfBqOJtQJb5WMC4DJ/BQCezQG7aS0CKQpPBIaOJQJ6c
NkDY76HBnTlQQOVueUBXbZLBLCb0QHS3DkBnV5nBRJ/cQOj9vEDXmcjBWvb9QElPmkD9yJPB/jvA
QPlSK8DiW7PB1uLoQCiEUb+YirvBYxOHQMDvej3utpzBJh4CQfP+9z+j+7DBlnbmQHLz+T8dIr3B
BleLQF73gUD4drPBuxSQQNH3H0DwyrnBvDr8QNZTgkB5GKjB6IDMQKUToECCkqjBbB/FQH8QXEBo
gMbBQsgDQeJ4i0DBdbvBQzq3QPTWw0BMQrvBkftrQKgtpUBFTcTB34tyQMh1ZUC6wcrBKeiVQOsl
n0DX8c/BCH71QJTC3kCb3a/BT38LQTAK2EDIMrvBtWESQV6Qv0DD3K7BQtsDQcliAEBo3o3BCQkE
QcNdB0AHk3/BMrsXQTTYPUDVWIfB2iDlQG6dt0D153zB7ngNQeL2pUCaXnzBpfHzQKT+ikBMIG3B
ni26QIxMK0DaMoPBEuisQCiIi0B2qYXBfNZcQHbmNUBpZqbBAoJXQFcDh0Dr9orBMmEZQFgOfUDL
aZbBfhzuQBLQpkDszMvBSL6JQHYcKsBQFKLBQEPBQGBn8b+jcq7BQG/aQHi1Xr9F0LLBNZedQB5w
l766u6LBjgijQPnkzL+fd6bBA4fUQFjK2D5CIq/BDXy2QKarNT8wKKfBThzPQDQGGUD2j5nBxYKK
QAewTkBEz5fBclLsQFU+1D/sdLLBzqysQFfYSkB/N7fBfvDnQEuIgkDrvavBBse/QNRpdkBSJ8HB
kzP8QNYFmEDzlLXBxh3aQPjTokD6CL7BUc23QK/VCkD+Y6TBvjfOQLZ8M0CMc67BGPabQOr4hkAH
A8nBRI4KQcLov0DfFbLBTgnWQBuohT9OOIXBlWjfQNs7LUAcpmzB91u7QISQW0BXtYfBsFzdQC1c
IUAHfILBUGxqQIgLYcD7g57BySmxQNDiQ0Bes5LB9ZiMQNMpLUBYJaLBgxxNQKwkdEBBm5PBCWfz
QDxiA0BWMZfB8kTuQHIDs0DkcsfB+mkIQabOP0Dy44fB4JDFQCvkOcB/T7HB3vjxQPP3i7+E77jB
GZSGQOihir2We5zBoKUFQVjx1j/zV67BIsfxQFUe1j/PFbvBEP2UQCPwdkCxyrPBMuuaQGicEUBz
tLnBMssAQdMWdkCNDqbBpsTSQA6KmUA1uafBsKbUQKBiSUBiZ8XB/tEJQfgVgkDeJ7nBfJvEQN7N
u0B6/7rBnB2GQORdnUDsOMXBaKCKQMJ/VEBXSsvBv8GpQDynlUBCGtDBs0T/QLjI1kBoea7BlS8S
QXRizkD2AbnByrYWQRjntkDSSKzB7HXUQDguYz9w4o3B6ty3QNy5LT8f1oHBg9zvQHhl1D5TF4LB
vKLkQJpycEBnX2jB/4j5QMC5B0AsnWXBvMrBQI5FGEB+4mTBw7mdQKRQWkATA4PBvZ/GQNwAj0CN
vofBI/1lQNV9LEDPK6fBoq1PQJAJhUCiJ4zBZkEZQKDnd0BnLJjBMC4AQdw7nEBIIsrB0AyHQH+A
LsCSFKDBhWm7QCLt+L+JPq3BzuHSQEjpa78cErLBk+WYQKiGtL74VKHB+JmeQMbA1L/B76TBPrbM
QB5+wD5Bg67B9xWwQMnhKD8PNqbBdRTKQHIQGUDCMZnBhEiFQEnFS0AotJbBO9jiQLZGzz8PULLB
GSuhQLqXREC2fLbBwezdQPStgUDW6KvB+LmxQPp4b0AuwMDB06rvQE3clkDzFrbB9K7LQCozoECy
Jr7BNNGwQBoXCEBCrqPBt7HEQO0wMEBgGq7BGhyMQLUKgkBgM8jBICIEQdyVv0CRGLPB0Sz4QJB2
lEAcFZDBi9UCQaUsKkD8K4TBlh25QIl0XUBLRYfBdZfoQDFsd0DWO4bBQNxnQGnPZcDtIpzBIAet
QHuVQ0BqEJLBxrWFQFC8KEBe+aDB74hDQCswcEDYI5LBaA3vQMOABUBFPJfB/YfdQAAcsEA74cfB
SPrsQHTvnkCZnnXBG+6/QOnePcC/AbDBplXpQHZHkr+PcrjBs/2CQFAaAb6J1ZrBdEkBQbAp1j9I
ma7BqI7mQP7yzj/q/7rBgqqJQIIYcEDN3rLBjKOPQAYqCkC1nbjB29n4QJF7dkBxhabBcQfJQBR/
mEB9vKfBTUTGQAvGQkBsJ8XB8XEDQXQzgUA+2rnB4DS2QHDmuEBt9rrBBQVtQHw2mECmPsTBXRd2
QBF/SUALIMrBRhyYQDp7kEDOhc/BNp/yQPw41kD9Ua/BXOIKQfDdzUBmRLrBM/YQQXSbt0Byka3B
3NXjQHBCsEBctpHBErX3QLVUgEBLQ5fBjHwMQcINoEBU/Y7BbBj7QMjQBUC3T3rBv2wTQWIbPkA5
woLBDgwDQXrD/D/uAovBMduxQF6YKEDZyoHBVJekQGebiUAJ8YTBTE1WQNYTJkADq6XBdYpIQImr
g0AOxIrB2tcNQKQEckDrYZbB4ZzvQGaNmUAWr8rBFmyVQB6DL8CR5qHBImbJQCha6L/di67BhpLe
QJTOOr8XKbPBcoGgQB+5p77DCaPB4o+qQJjJzr99i6bBYhjUQCB/Cz9mtK/Bl3C1QCwMPz8jtafB
QizIQNbYIkDhfJrBAASBQNLfSECyt5jBKiLnQNRG7D8jULPBTUCiQPjPRkCFMLjB3CXaQAIpiECz
CK3BHXSyQACHdEDSS8LB5YnrQPvdnkCKC7fBRDLIQFfppEDgeL/BvoGxQBpgDUClNqXB0CnFQKTs
OECnca/BuEyNQEAfgUAuIcrBwtf/QOKmyUBZ17PBJqSaQO3bvkBtbIzBEHnoQCUUq0D6hY3Bz0ix
QBTdY0Dlx4jBDsi9QOeboUDa+IfBjkKEQOQPasD6IJ7BVC6oQFfrR0AYrZPB4bGEQEUSJkCm9aLB
85E2QGSzZkBxiJTBvIftQI0QFkDaJZjBjhjaQLxgtkDCBsnBXSvEQHMPrkAq33PB9E3RQDB+NMBc
O7HBUJf2QBTrYr9zTLnBBP+IQB4UKL4RxpzBMvkCQbSg/j9hSK/BDj/sQJBQ7T+G9LvB0E6IQJrf
bUAr1bTBnMyTQBlzCUDQd7rBFqb0QIUvhEBDX6fBgpzCQNP8nECGGKnBqKHJQEW9S0Ded8bBFJwC
QSZni0D8jLrBLxKwQPmPu0B/hrzB/U9qQBU+lUBCasbB0JF+QK7ORED4MszBhx+ZQOuXkEBHVtHB
VKTnQJI73kDCTrDBL5MGQRQa2UD04brBRZkMQU8HxEAnDa7BpZF3QBOmuEDLkIjBmiuWQLnruUCP
CJXB+nCiQNWr4EAOLIvBvAoBQQN/lkBJdYrB5lHyQPZozEBFSozBOmXmQKYNpkCqLZbBGvTKQGqc
O0Cyi4XBS76UQG2SV0BH64PBpkxWQKWdHkDE6qfBKg83QBU0fkBcJo3BJ1sCQJKpY0BWC5nBEpbu
QLWNoUAToMvBK8WlQKibIMBkTabBluHVQMNZtb+yDrPBW/roQJbJir5tSrfBwG2uQOLWpb1UIabB
Nsq4QJVCqb9HiqrBZzLeQLgCdT8E77LBxEjBQJLVhj8bbKrBFHXVQECEL0CRb5zBJFWOQLrUT0As
UpnBrjTvQByYE0BxAbbBrzeoQBh9YkAhI7nBqJLhQH5elEACHq7BCmi1QLGHi0Bi/sLBXvnvQLaD
rkDj5bfBjpTKQFvmtUAorr/B0KS8QLcAH0AYAKfB6UfNQIK1UUB/DLHB+FGOQFh+k0DyJMrB/OUB
QdTc2EALL7TBBZgIQSSEQUA5RojBZdPzQKyKoUAox33BctTBQLpmZECs34nBW4HvQMllhEDgsIjB
XFSWQMhKXsBF3KLB3pm2QPJmTkCN25TBSBuQQP5sM0DO5aPBqnpSQPWtaEC4WJTBJnX7QG3HI0CX
v5rBiL3ZQPSzykDAHMnBPkn6QO6FpECcapTBRgneQEmxGMDgcrbB8Kj/QDp5sb7r1L3BQEeYQADS
LTptd5/B3mEHQbNTHEAuVrLBIEvyQP6KGUAQrb7BPJGOQErkgkBxELXBdB2aQG+/JUCGyLvBqnH9
QNOUj0Dn7KjBdmzKQOE2p0B9eanBpiHMQExZckAk28fBs6kEQQD4nEA+HbzBEpCyQC/WykBm+7vB
2xBtQEqupUCsusXBFLSAQLATakDRlszBXgSYQMZrpUBXMdHBvOXrQHeP60B38K/BsoEHQWLE6kCK
FrvBtUwPQWhb0kAy4a7B51kHQcr8FkC5No/BNKkGQcXDGUAFHYHBqNYYQSjaW0AEKYjBSQTcQAZJ
u0BdDH7BbMoJQepvsEAME33BJJPvQC6zj0Dc2G7BriC+QBALK0BQ54TBwXCqQLiqiUAT/obBwiFr
QJ5KLUALjKjBO79VQKzCe0AOx4zBjVwcQBCmZkCNgJjBICnuQDBet0AIYczBMParQNN5E8AOOqXB
zC/eQMaAmL9RWLHB5PbxQCDsH71FQbXBDoe0QLSK/T0EuKTBiKm/QMskjr9PI6nBaWvmQFpPlz/8
5LDBFBPIQLbooT/zsKjBBszZQAmmO0BjVZrBXDGSQHSfW0Ce7pfBbuj3QNVNIkBtpbPBGX6xQFl7
cUAaabfBaOLoQOJRm0CMravBbFbAQISFk0CnCMHBgO34QOT0tUCINrXBFeXUQLK5vUBOXb3B9dHC
QBcwLEDNLaXByiTVQJLnX0DC9a7BWoGaQCTWm0ANksjBgggGQVQe4EBkKLHBMjzWQI25sEAWjHTB
LF+rQEvRxEA6h4rB7P3CQLKobkDE6ofBjQbOQAbvpkDoHYbB0vebQIyBUcDUDKLBOKm5QJvCWUBs
C5PBE8mVQD9IQEAWhqLBFYxYQAv1c0ANUpPBVHr/QHrBL0B5QpjB9qPlQMAA00BOj8bBc+7+QNzu
sUCgV43Bzu/mQKvrCcApvrTBld8EQeBt1b3qjbvBTkGdQGyJRz5fSp7BRGcLQcmtKkAsoa/BfHn8
QKsfKUAARLzBACiXQJYtikCNj7PBpOCjQKQBNUDNTLrBI+wBQdtGlkBFNabBzPLQQDTtrUB+OqfB
EuPXQFZqgUCmtMXBwn4JQdagpEBzNbnBZEC8QIV40kB63LnBoviBQO7LrUB4W8TBUleNQBwCe0AC
QcvBBGOlQDYerkC4c8/BA3PzQPmY8kBaHa3BhTgMQbhe8kAO4bfBfPgSQRRa2UC0l6vBQ+/uQMa2
m0CX423ByD65QJoUrEAI82rB2tbgQHLV0UBhSHLBMvykQEhdvkAs/5LBhuW0QLZ85kA+04nBjiyN
QB5AwUBHLIbBIHvdQEYHRkBbNoXBpPamQL8wXUDpHYPBTiJ4QBmbOkBJdqfBKzVZQIIjg0AxtovB
KucjQI1VckC/w5fBaJ36QEHWv0BTqsnByuafQIwnGsBzAqXBphXMQAi/sL+H8bLB60XeQDZ7hL7E
ybfBQtmpQOBCazyrf6XBigiyQBZhn7+B3anBNaXVQNLUfD96drPBZcW7QHsBkD8CZarBLXvVQOLo
NUAnOJ3BDPCPQLZiWUAAuJjBq0DmQD5SFECMJbfB+BufQNMxZUC/A7nBRo3cQBSulUDvda/BElep
QLK3i0DERcPBiwPoQBalrkD3qrnBvT7AQDT9tUCsrcDB0gy5QC5aJECGK6fB2qLGQB6RVECdr7HB
vxuAQKu6k0Avn8nBObX9QOH02EBVpbbB7Zv/QOoupECBaYDBbKkAQZZ0okBugpTBjqPIQHntbkB4
eorBJ9f2QJXtiECpX4rBoS6RQCecVsDsEKHBM465QCtQV0CrHZXBAOWNQOL3OkBhNKPBfLxZQAiA
dEAjD5PB4tD7QAAaKUBhTZzBjH7MQOqhyUBvhcrBlUQNQZPWNkBw84nBwo7SQCNKF8ByTbbBFp7y
QJx5u744xL7BGBSWQLj3Aj4WaZ7B3YADQbmTHEDcLrTBSXHmQFaMGEDw3b/BQTiHQDwVhUCphrTB
lquPQFGBKECvKrvBsP/5QL3dkECa2KrBxF3HQLheqUDvdqrBZQm+QD4CcUBDe8jBJY//QMhAnEAg
S77BpOipQLqyy0AfnrzBGmZUQIjApkC91cTBqHBiQIOeakBGlcvBvqyHQJrRpEAf9dDBRqPnQNh5
7ECdB7LBGmsDQT4C6kCs3r3B1wwNQaB00kDp4rHBcVT4QAyPkkDoHXLB7urrQEs2wUCqXYDBwpoQ
QcoSrkCTBoDBOEf7QLSMj0DPvJvBo4IRQRxHrEDwpZTByh7uQM6wv0CDDJXBryrGQI2mNkDhRYXB
X7GyQDCdj0ClQofBgKhjQOTxNEArQqfB9GxiQCx1hEDJnIvBTPkgQFOwckBzn5bBPGvfQFahtUAS
Fs7B

>  <OMEGA_E>  (12) 
sgOEwaK7f8HgQX/BrLN7wa78d8HlIYbB1ZeEwRx8gME=

>  <OMEGA_NBR>  (12) 
     61208

$$$$
290146
     RDKit          3D

 63 67  0  0  1  0  0  0  0  0999 V2000
    5.1981   -2.2344  -19.8389 C   0  0  0  0  0  0  0  0  0  0  0  0
    6.4472   -1.3141  -21.7600 C   0  0  0  0  0  0  0  0  0  0  0  0
    6.9887   -0.2082  -22.4503 C   0  0  0  0  0  0  0  0  0  0  0  0
    5.3282    0.1783  -20.1723 C   0  0  0  0  0  0  0  0  0  0  0  0
    5.6467   -1.1196  -20.6058 C   0  0  0  0  0  0  0  0  0  0  0  0
    6.7131    1.0849  -21.9859 C   0  0  0  0  0  0  0  0  0  0  0  0
    5.8527    1.2589  -20.8905 C   0  0  0  0  0  0  0  0  0  0  0  0
    6.4520    2.8657  -19.1876 C   0  0  0  0  0  0  0  0  0  0  0  0
    4.2194    3.3257  -18.9364 C   0  0  0  0  0  0  0  0  0  0  0  0
    7.2847    2.4173  -22.3540 C   0  0  0  0  0  0  0  0  0  0  0  0
    5.6889    4.5794  -23.9634 C   0  0  0  0  0  0  0  0  0  0  0  0
    5.1826    3.8371  -22.7260 C   0  0  0  0  0  0  0  0  0  0  0  0
    7.1147    4.7386  -21.3389 C   0  0  0  0  0  0  0  0  0  0  0  0
    8.0805    5.0632  -14.9884 C   0  0  0  0  0  0  0  0  0  0  0  0
    6.7110    4.6099  -14.4289 C   0  0  0  0  0  0  0  0  0  0  0  0
    7.1073    5.3911  -17.1615 C   0  0  0  0  0  0  0  0  0  0  0  0
    7.6853    5.4019  -22.6033 C   0  0  1  0  0  0  0  0  0  0  0  0
    6.5276    5.7943  -23.5411 C   0  0  1  0  0  0  0  0  0  0  0  0
    5.7515    4.8485  -16.6509 C   0  0  1  0  0  0  0  0  0  0  0  0
    5.7435    2.7013  -20.5083 C   0  0  1  0  0  0  0  0  0  0  0  0
    6.3337    3.4617  -21.7265 C   0  0  2  0  0  0  0  0  0  0  0  0
    8.4994    6.6384  -22.1954 C   0  0  0  0  0  0  0  0  0  0  0  0
    6.3834    7.6181  -25.0996 C   0  0  0  0  0  0  0  0  0  0  0  0
    5.6157    3.3260  -16.8705 C   0  0  0  0  0  0  0  0  0  0  0  0
    4.8359   -3.1352  -19.1942 N   0  0  0  0  0  0  0  0  0  0  0  0
    5.4240    3.0575  -18.2801 N   0  0  0  0  0  0  0  0  0  0  0  0
    4.3532    3.0719  -20.2096 N   0  0  0  0  0  0  0  0  0  0  0  0
    3.0511    3.7778  -18.3412 N   0  0  0  0  0  0  0  0  0  0  0  0
    7.6369    2.6629  -18.9398 O   0  0  0  0  0  0  0  0  0  0  0  0
    8.1692    4.7756  -16.4041 O   0  0  0  0  0  0  0  0  0  0  0  0
    5.6300    5.1373  -15.2419 O   0  0  0  0  0  0  0  0  0  0  0  0
    7.0622    6.4080  -24.7227 O   0  0  0  0  0  0  0  0  0  0  0  0
    6.6440   -2.3154  -22.1135 H   0  0  0  0  0  0  0  0  0  0  0  0
    7.6065   -0.3565  -23.3236 H   0  0  0  0  0  0  0  0  0  0  0  0
    4.6972    0.3374  -19.3103 H   0  0  0  0  0  0  0  0  0  0  0  0
    8.2998    2.5266  -21.9447 H   0  0  0  0  0  0  0  0  0  0  0  0
    7.3157    2.5335  -23.4474 H   0  0  0  0  0  0  0  0  0  0  0  0
    6.3094    3.9005  -24.5668 H   0  0  0  0  0  0  0  0  0  0  0  0
    4.8302    4.9196  -24.5607 H   0  0  0  0  0  0  0  0  0  0  0  0
    4.4588    4.4793  -22.2029 H   0  0  0  0  0  0  0  0  0  0  0  0
    4.6841    2.9120  -23.0510 H   0  0  0  0  0  0  0  0  0  0  0  0
    7.9397    4.4711  -20.6624 H   0  0  0  0  0  0  0  0  0  0  0  0
    6.4375    5.4413  -20.8314 H   0  0  0  0  0  0  0  0  0  0  0  0
    8.1957    6.1457  -14.8309 H   0  0  0  0  0  0  0  0  0  0  0  0
    8.8829    4.5282  -14.4592 H   0  0  0  0  0  0  0  0  0  0  0  0
    6.6641    3.5109  -14.4329 H   0  0  0  0  0  0  0  0  0  0  0  0
    6.6014    4.9778  -13.3980 H   0  0  0  0  0  0  0  0  0  0  0  0
    7.2248    5.1480  -18.2279 H   0  0  0  0  0  0  0  0  0  0  0  0
    7.1425    6.4825  -17.0282 H   0  0  0  0  0  0  0  0  0  0  0  0
    8.3437    4.6887  -23.1207 H   0  0  0  0  0  0  0  0  0  0  0  0
    5.8748    6.5043  -23.0122 H   0  0  0  0  0  0  0  0  0  0  0  0
    4.9456    5.3526  -17.2044 H   0  0  0  0  0  0  0  0  0  0  0  0
    8.9117    7.1195  -23.0946 H   0  0  0  0  0  0  0  0  0  0  0  0
    7.8470    7.3486  -21.6662 H   0  0  0  0  0  0  0  0  0  0  0  0
    9.3227    6.3330  -21.5330 H   0  0  0  0  0  0  0  0  0  0  0  0
    6.8453    8.0301  -26.0090 H   0  0  0  0  0  0  0  0  0  0  0  0
    5.3233    7.3983  -25.2942 H   0  0  0  0  0  0  0  0  0  0  0  0
    6.4621    8.3518  -24.2838 H   0  0  0  0  0  0  0  0  0  0  0  0
    6.5294    2.8222  -16.5222 H   0  0  0  0  0  0  0  0  0  0  0  0
    4.7509    2.9495  -16.3045 H   0  0  0  0  0  0  0  0  0  0  0  0
    3.6165    3.1224  -20.8840 H   0  0  0  0  0  0  0  0  0  0  0  0
    2.2338    3.9312  -18.8967 H   0  0  0  0  0  0  0  0  0  0  0  0
    3.0260    3.9504  -17.3565 H   0  0  0  0  0  0  0  0  0  0  0  0
  1  5  1  0
  1 25  3  0
  2  3  2  0
  2  5  1  0
  3  6  1  0
  4  5  2  0
  4  7  1  0
  6  7  2  0
  6 10  1  0
  7 20  1  0
 20  8  1  1
  8 26  1  0
  8 29  2  0
  9 26  1  0
  9 27  2  0
  9 28  1  0
 21 10  1  6
 11 12  1  0
 11 18  1  0
 12 21  1  0
 13 17  1  0
 13 21  1  0
 14 15  1  0
 14 30  1  0
 15 31  1  0
 16 19  1  0
 16 30  1  0
 17 18  1  0
 17 22  1  0
 18 32  1  0
 19 24  1  0
 19 31  1  0
 20 21  1  0
 20 27  1  0
 23 32  1  0
 24 26  1  0
  2 33  1  0
  3 34  1  0
  4 35  1  0
 10 36  1  0
 10 37  1  0
 11 38  1  0
 11 39  1  0
 12 40  1  0
 12 41  1  0
 13 42  1  0
 13 43  1  0
 14 44  1  0
 14 45  1  0
 15 46  1  0
 15 47  1  0
 16 48  1  0
 16 49  1  0
 17 50  1  6
 18 51  1  1
 19 52  1  6
 22 53  1  0
 22 54  1  0
 22 55  1  0
 23 56  1  0
 23 57  1  0
 23 58  1  0
 24 59  1  0
 24 60  1  0
 27 61  1  0
 28 62  1  0
 28 63  1  0
M  CHG  1  27   1
M  END
>  <OMEGA_C>  (13) 
slamQOX/DsAJtp7BnU/OQAQzqL97FK7BcqPfQAwrVb4gmrPBpICqQEiZNj7fYKHBALK0QB9Pj7+n
2KTBytHWQMPcij8V46/BTUm7QJEioT+sH6fBGnfOQHZnN0AvgJnBjAWHQMbXVEC/fZfB9hvpQFS1
GkAV1bLBZwu2QGmKkkD7tL/BjNelQBCTdUDvzrXBUavjQGail0AbtqrBzUkBQZwFokB40G/Bh8DW
QAaEk0Ci3GbBr27jQEaErEDHSonBye31QHjcrEB107TBbeLQQAxruUBDVLzBqAy4QCInm0ACNYXB
Jsu3QIThLEAGEaTBvK3KQESNXUD5z63BiP0HQext1EBBkLHBKkXMQCDH80AEzMjBArSzQADdVEDX
9obBE8CaQBinSMDHjZnBZ5GtQH6uQ0COPZLBME2LQHyaREBMraHB5ERDQIjHcUC+upLBi2H0QNBs
KkC3hJfBNbUCQQzSmECHO4PB9ii0QI1kpEAC33PBo/3hQBIOzUATyMXBxZvUQLYvFMBx6LDBCmjz
QB6Jtr7LlrrB0U+WQGLCrD6Te5rB7csEQZG0IUC5jq/BkhrqQFwlIkBflLvBVObJQM2heUDIiMTB
oZCaQFxtnUBcfMTBL66OQKBWj0CRn7HB0OOVQINdOkB4aLjBYxL+QF4Tj0CNTKXBnP/NQPgerkCt
pqbBhCEDQd6pxEAqS23BZCAOQVbnkEAPWWfBOUDVQCuyYEA57WbBWj7TQLtJn0BLXlbBgDHnQMC8
pECl0pHBxY/kQF1wz0C4OYjB/H8FQc0JlkAq97jBRv67QPUi0EAIGbjBmkKeQHJIq0CuoonBLJYO
QVnT40DOwbjBARv7QG4n60BMVK3B5CkVQT+oykCCQ6zBeQzbQGh7AEFbEtDBvFiqQNS+7ECOWsrB
MMnOQMmgBUFJRcLBLfHQQE6fNEBwLYTBpAeYQDnEPECjb4LBFnVnQG7VR0BxEqfBVfcOQD2Ye0B1
LJfBM6lBQLbTfEAk2orBSGmjQLxwDsAkzZ7B7gnMQCO3qb9KJK7BNCfeQLAqa77LobPB8FapQOi3
Pj5wZaHBFY+yQOMRj7+s56TB+kTWQOfEiD9L4q/B2O66QP0XoT9oGqfBF5nOQHCvN0DDe5nBmymH
QHrsU0AHfZfBumbpQET/GEC10rLBB+K3QMXskkCvr7/BoR6nQJyydkCv0bXB4WPlQH7ylkDAr6rB
pYa8QNSv6EC6Q3jBBuaxQJjc4ECoCIjBJ4fOQBgonkBAvXPBEzL4QP3hq0Amw7TBoH/TQIdDuUCR
RbzBWPfEQJlulkBFt4XB+Ca4QFQzLUDeEqTB8J7LQLQYXUBYz63BWo0JQX7Z0kAYcrHBa3fOQJIc
8kCkJsnB6Ja0QNRgUUDm9IbBPD+XQGKvR8Crp5nBW4itQBrGQEAZOJLBpcuLQIJLRkBAu6HBmFJD
QHCIcEDcwJLBkKD0QDTmLECscJfBIgTcQP/ZyUBuF3HBGTClQLPbtEAVconBFDflQIqczECDr8XB
8qDRQMIgFcBZ/7DB8M/xQNkex75xn7rBK0OVQOJstj4ff5rBzPcEQVa1HkBriq/BXoDqQINlIEDs
kbvBbFbLQHq9eUCehcTBF6mcQG9qnkD6d8TBgkyQQJlGkEAoorHBQKWWQJwqPEB4dLjB7Iz/QPLa
jUBMQaXBphrQQHDUrUAro6bBH2fJQFqbBEE3UHbBVDyfQE9H5UBBp27BrZaXQJsT9kAvforBr1LO
QAeH50Ah84zB84WxQLxMmED2NGrB6SHoQA13iEAMbW7BwWgGQSGqlEDO57jBdwm/QARh0EAhC7jB
3bviQJQKmkAyU4rBdloQQUoN4kAEnrjBorH+QGn46UAyNK3BW5YWQQ1syEB6I6zBUcvdQJsl/0Aa
X9DBphmtQG2S6UC298rB1xXPQLIoBUGOw8LBMHLMQGE0JEAEzIPBHV2WQPbXSUDKi4LBYx9pQMsV
TEBCL6fBpLAPQDYefEDMQJfBZ+BAQG+TeUDr1orBCz6nQCn9D8Aoe57B5iDQQEiLqb9Tpq3Bl0zh
QDg6X742LrPBedWqQGBrLT65MqHBgsC1QPa2kL9ejaTB53TXQJm/iT/apK/BQ067QJFEoD+X/qbB
PGTOQLRSOkBntJnBToOHQECwW0DjlpfBNUbpQN5OGkDOsbLB2Hq3QOmCkkDAq7/BeG2mQHgJdkBu
0rXBD7njQEuYl0D7k6rB0aPSQM8YyUAdPm3BR7nNQBX5yUD64oLBYmfhQC5Fe0Av7W3B8y73QJ9u
rEDBkrTBQiHTQNYtuUCXWrzBqXXfQNZoe0DjPIPBwDy3QJgDLUCvD6TBB6TKQIpsXUDswq3B5LII
QbfH00DVKrHB5/rKQMtF6UD/RsvBXRa0QOycV0DyAYfBdIybQJoBSsDgZpnB79ivQMCbWkBFrZLB
LeeKQBQNRUChoKHB/BtCQOZwb0D8oZLBgpTzQJwpJUAuA5jBPe/GQJI5n0CSamXB7nLnQOtHqEBV
k4fBUijmQLlgy0CbwsXBtB/XQBriFMA+XbDB7b71QMVgu757C7rBJFqWQCeKpz6/WprBrd8EQUgd
IkAUca/BbTDqQKr+IECoc7vBdwzLQK+seEB7ccTBHFWcQAHUnUBvgcTBOVCPQL3ej0DWtrHBzD+W
QGguO0CgdbjBeH39QA76jkC6+6TBv9HNQEpbrkARsqbBtBH0QG35z0BU72jB4ZW9QL1c4UDFDGbB
TeyrQEIFxUAjAoXBtnbYQIon6UB89oXB+/jVQK0xPUDY52fBQVYBQYKxgkDdw2jBrzsGQXNTlUAZ
i7jBjXi+QN3m0EC5Z7jBZI34QMroT0AnKIbBQb4PQeLx4kD0SLjBdF/8QLLK6kAnFK3BUosVQeTB
yUDDsqvB6sXbQMO69UBLW9LBdm6tQLMF2UDgzM3BK/HCQML2AUF/5MXBqEKxQFy7FEBJWoTBo0Oa
QKzSfUCxaIPBvo1lQAU+REDL4abBbmsLQNPMbEBfxpbBBVdBQHwpgECv6orBqQmoQHCDEMDd3p7B
kojQQMBFqL/qCa7Bdh/hQJjfTL6FkrPBymSrQHQ7Iz4ea6HBAmq2QJgRkb8U4aTBMR7XQEY/iz/w
76/BPo27QAr4nz/8J6fBNkjOQM6WN0DagZnBEgSHQF7OVUB7bZfBPgboQLBgG0DJELPBG2WzQIzP
kUB62L/BrgSkQKixdEAWzbXBRTXiQMPdl0BYBKvBYkbuQP0a3UDl9XbBk/LAQEqJ0UDwIG/BpDfo
QDbjqEBNlYnBPhv0QJaLrEDIRrXBLtbOQOO1uEATw7zBoWa7QJznm0CgU4XB4V63QDJQLEBxEqTB
fG7JQHJtXUBP7q3BaC0HQUBE1EDKP7LBK9XJQBRF8UCOwMnBBBW0QIaRV0DL1IbBzFCcQInMSsCL
2JnB5KKtQFoWRUDqKZLB/tCKQO7GQkAvkKHBc6BDQAoudEDtuJLBCDD0QD4JKkAMlpfBDHbxQNOP
1ED8y4bB7Ve4QNJOpUB9I3TBDtrfQMYxy0BaYcbBs8bXQDEEFMAmzLDBlj71QA3GrL6rgrrBqg2X
QI33nD6EiJrBeF8EQeAIJED4AbDBSAvoQHk8IkDe0rvBVZ3GQF+gd0B6wcTBIHuXQMexnED/dsTB
xxiNQH/8jkCbj7HBgvmTQJ0yOUBoQrjBxMr8QJDQj0CLnKXBln/MQNR6rkChA6fBh2r0QBs//0D3
+HPBCwADQYm1yUAiTW7BL+u+QPdY1kAvuV3BFlGpQFUU5kBUK3fB5UsAQTDbk0BxBobBq8boQO13
pUAqV5LBZX4EQWpulUABYLnBfV+6QJIY0EDZoLjBbNaiQB+irUD2zonBH50NQTEv40CQirnBvrX5
QM9J60B2C67B2ncUQQrLykAv/azB5JPYQAiK/UB3IdHBD/2nQHC56UAnRMvBvRLMQJ/XBEETcMPB
AC3QQAYwNEAm6IPB0JeXQM7IQ0DzSoLBfqhlQM9oQ0CU26bBrA4PQDDYfEChJ5fBm4lCQL21gECI
5YrBM/aaQH6ME8AIn6PBzuXOQB7Kor9R7q/B417kQADzCb778bPBfJimQKYVBD4EU6PB/ymwQGo+
kr9KpqfBupXaQH8kkT9DwK/BpdS7QDIUoD/pjafBUWTOQNvUOUB9XJnBCy2HQCdwXEAAZJfBoWbs
QIiJIEBIELLBPSS3QK43kkDaDcDBK9CmQFUscUAMVLbBcxvfQB19m0BTfKrBh4X9QB7o2EAEUIXB
T4zwQMbQvEBcV3fB6du7QDevx0CjO47B98zwQNEVtECDTbTBkHLMQIejvEDugrzB4fGtQJt6qUAZ
AYXBblG3QLt5LEDP/KPBJ2DKQH3oX0Cts63BZncCQdKd3kC6crDBIoK+QM8a6UCaHszB6vG3QPKY
ckCvLYfBcbeJQE5UUMDtWaDBfm2vQGHfWECNXZLBBYeKQNubQkCYYKHBg0xCQJKUd0AntZLBMxn0
QHAPK0D/V5fBi9bpQMixyEDs8Y7BvTLCQBLNt0C9QHbBS9LdQDdf0kBlyMXBCfHVQD/TD8C6MbPB
UxT8QChCdL4tLbrBfZOPQPz1cT7w75zBmpQFQSq3KUAo8a3Bs9zwQIiFKUBYuLrB1LvOQNCVfUDK
a8TBUfqbQNSEmUBEWMXB/rWMQGmzikBPirLBV4qaQH49M0BYLLnB55H5QHdIlUDg5KTB7cfGQONl
r0CWhqbB5dryQO79+UDJ7YPBuEMQQRVR2EBDOIbB72r/QCAWnUCyA3nBx+P7QDQFzEDzg2jBNIau
QEjsu0Dn05XBNNOvQCoo6EATqIzB8toEQSCSoEBKKLjBQA60QKjV0EBQq7jBAQ2LQAV9rEDWH4TB
UcwIQSpU8EDTXLfBLWfsQPgI8kBDaqzBNY4PQV+510C/0qrBZ3fOQHCJ+EDn8tLB9U2mQGxy0kBu
E8/BeOmuQJnQAEG4J8fBP+zZQMXfZkBMaIXBmfWjQBlWS0Ci2YHBMyFkQAGCPkBagqbBVzkMQCdB
eEBm/JbBBbJBQMc1hUD+D4vBuFudQNUsFMB0dKPBXy3SQMdCob8hZ6/BhFXnQDiu570ZWLPBRwGn
QPw6Az5KUKPBgDKyQCIvkr9FaafBU+nbQMW2kz8PZa/B4bm7QOg/oT95iKfB9KHNQH33OEBNeJnB
xcWGQFC7XED6UJfBsSXtQPFvIkCJrbHBiLO4QJjxkkD417/B4ZmnQO7YcUD4RrbBqU/eQIY1nECe
A6rBmJwHQZhXlkDbK2nBHiYJQfKHlUB314DB4fjXQIZaQEAMFWrBrLjwQA9CtUAjqrPBIjPNQByA
vUDdGrzBTc3aQFKKO0CPWoHBuX22QKLYLEDx9aPB/FXKQHoAYUB3ea3BZvcBQUb030CZoK/Bu5jA
QFfE6UB3zsvBXoe2QMz8b0BG64bB1GGMQOyAUcDPQaDBZrauQMuzVEBdKJLBQNeJQDb1QkDHUKHB
weBBQDXUeUCKs5LBoHrzQCS+J0BqIJjBdHrkQPQuikD5tWLBhb8CQXR2V0BFloTBHmvfQLx/00AE
OsXB/WzaQMwBD8BvgLLBcwYAQee1Vb6eVbnBECyPQP+BaD5fG53BXMkFQb61LEBzca3BvRHyQGlR
K0AHUrrBXfLQQNm2f0ACFMTBlAqeQKUZmkDbTcXBnvCMQMmtikD5oLLBQPCbQHPPM0CXPrnBNEH4
QLgTlkB+RKTBYWLFQGO8r0CcK6bB5j4TQS9nf0CsXmLBAB4LQV7NtkDdVWPBif38QA8GrkBNPoTB
urkZQYIDnECmUIPBkN22QGluM0AkDWXBzGztQIwjEECDDWPBdyQFQcMkokDQX7fByTC0QORp0UD9
a7jBlKrWQI9I8D8VrYPBsosIQYX28UBwb7bBc8LqQLn98kANu6vBC80OQTRC2UDZ16nBSi7RQGh0
+UBCgdLBHSCpQCbB0kBi9M7BOgKwQFsFAUHA98bBhcaYQA2iZ0COVYLBWKK/QOX+mUB/64bBKYti
QFbtPkCZaqbBBh8MQAD8e0DGCJfBcEVBQA5KhkB+DYvBXa6gQMmRFcDiVaLBZFLTQBjPpL9R5q7B
8j3nQJjHD74zOLPBtoSoQHTV4T2izaLBWiu0QIAVlb+StabB3WjbQBTEkD8AcK/BdQO8QKDAnj/l
YafB/ePNQLhxOkBznpnBdzSHQE8jX0A1apfBKo3rQB0lIUB/ELLBl/ezQCA3j0DkY8DBz5OkQGoO
bEDPgbbBz7HbQEP2m0D+3KrBDxEPQb971EAqjoHBtPkJQVSdxUDFEI3B/MfsQFC8n0Am6nTBkmHs
QEdUtEDy2LTBuMbHQJyxukBLH73BZwLlQP2Fj0AX5IXBkjq2QLTiK0DcCaTBZHLIQGLuXkAg3a3B
jOf+QIP330DVRrHBwlC4QOOe5EDRFc3BjGq4QISkdUBRUIfBzsuQQOPPUsBAyJ7BBjSwQJoqYEBR
t5LByZGJQPUGQUAjPaHBw31CQIsXeUAhlZLBwW/zQAH+J0Dp75fBCMoLQfCUsUDBJHTBqMfpQFHi
skDkTI3BymrYQCEA0EDpisbB4+LbQHkLEcDS27HBllL/QHSrdL7XXbnB4UCRQK7rWj7Rd5zBOhkF
QblyLUB8BK7BKq/vQFecKEDswLrBoDfMQOhkeEBppMTBnI2YQMAGlUAst8XBq+eJQKCeh0CC0LLB
W1aZQB3KLEA1J7nBum/2QOUgl0AfRaXBXr/CQHRUr0BG+qbBf9QfQSgU30B1JIHBbncEQcNB70Bs
2H7BvIYKQY864UAIhJLBuNcVQUSwrUAdm4/BcibVQBSIuEAL3HDBNxbqQMQNhUCxg2nBEgMDQVpp
oUD3lbjBeKyuQGVwzkAfbLnBUEv9QAcmbkCBr4fBomcFQRR08UBqT7jBZLDlQHbU8kArWK3BNLEM
QWml2kAooqvBtsPHQOrc80B8A9TBRSShQGaezEAA5M/BU5qnQIIR/UATVMjB7OK2QLq3OkB7g4LB
RMafQGVdkUC/iITBlhFhQJSDOUDbIabBxUwLQHhodUBIm5bBXyBDQKG2h0D/FYvB

>  <OMEGA_E>  (13) 
qIyFP+FMhT+SioY/d0SGPzPmjj9OlI4/SQSOPw==

>  <OMEGA_NBR>  (13) 
     68600

$$$$
298706
     RDKit          3D

 65 69  0  0  1  0  0  0  0  0999 V2000
    4.9053   -2.1313  -19.7591 C   0  0  0  0  0  0  0  0  0  0  0  0
    6.2190   -1.3264  -21.6953 C   0  0  0  0  0  0  0  0  0  0  0  0
    6.8400   -0.2671  -22.3954 C   0  0  0  0  0  0  0  0  0  0  0  0
    5.1852    0.2570  -20.1428 C   0  0  0  0  0  0  0  0  0  0  0  0
    5.4257   -1.0641  -20.5491 C   0  0  0  0  0  0  0  0  0  0  0  0
    6.6524    1.0485  -21.9475 C   0  0  0  0  0  0  0  0  0  0  0  0
    5.7881    1.2900  -20.8694 C   0  0  0  0  0  0  0  0  0  0  0  0
    6.4661    2.8671  -19.1857 C   0  0  0  0  0  0  0  0  0  0  0  0
    4.2300    3.3391  -18.9490 C   0  0  0  0  0  0  0  0  0  0  0  0
    7.3301    2.3399  -22.3045 C   0  0  0  0  0  0  0  0  0  0  0  0
    6.4838    5.2977  -15.3841 C   0  0  0  0  0  0  0  0  0  0  0  0
    5.0834    5.9601  -17.3991 C   0  0  0  0  0  0  0  0  0  0  0  0
    5.3295    3.8816  -22.7200 C   0  0  0  0  0  0  0  0  0  0  0  0
    7.2570    4.7002  -21.3188 C   0  0  0  0  0  0  0  0  0  0  0  0
    6.8264    6.7859  -15.2167 C   0  0  0  0  0  0  0  0  0  0  0  0
    5.4802    7.4183  -17.1289 C   0  0  0  0  0  0  0  0  0  0  0  0
    5.8982    4.5454  -23.9750 C   0  0  2  0  0  0  0  0  0  0  0  0
    7.9112    5.3140  -22.5661 C   0  0  1  0  0  0  0  0  0  0  0  0
    6.8413    5.7140  -23.6062 C   0  0  1  0  0  0  0  0  0  0  0  0
    5.7673    2.7378  -20.5051 C   0  0  1  0  0  0  0  0  0  0  0  0
    6.4309    3.4504  -21.7093 C   0  0  2  0  0  0  0  0  0  0  0  0
    6.1686    4.9819  -16.8574 C   0  0  0  0  0  0  0  0  0  0  0  0
    4.7131    5.0572  -24.8086 C   0  0  0  0  0  0  0  0  0  0  0  0
    8.7322    6.5434  -22.1410 C   0  0  0  0  0  0  0  0  0  0  0  0
    5.6938    3.5142  -16.9130 C   0  0  0  0  0  0  0  0  0  0  0  0
    4.4830   -2.9885  -19.0918 N   0  0  0  0  0  0  0  0  0  0  0  0
    5.4467    3.1131  -18.2853 N   0  0  0  0  0  0  0  0  0  0  0  0
    4.3979    3.1881  -20.2332 N   0  0  0  0  0  0  0  0  0  0  0  0
    3.0282    3.7223  -18.3735 N   0  0  0  0  0  0  0  0  0  0  0  0
    7.6422    2.6256  -18.9307 O   0  0  0  0  0  0  0  0  0  0  0  0
    5.7431    7.6005  -15.7210 O   0  0  0  0  0  0  0  0  0  0  0  0
    7.5091    6.1370  -24.7888 O   0  0  0  0  0  0  0  0  0  0  0  0
    7.3086    5.1473  -17.5907 F   0  0  0  0  0  0  0  0  0  0  0  0
    6.3494   -2.3431  -22.0357 H   0  0  0  0  0  0  0  0  0  0  0  0
    7.4506   -0.4681  -23.2633 H   0  0  0  0  0  0  0  0  0  0  0  0
    4.5530    0.4707  -19.2937 H   0  0  0  0  0  0  0  0  0  0  0  0
    8.3369    2.3815  -21.8635 H   0  0  0  0  0  0  0  0  0  0  0  0
    7.4035    2.4475  -23.3968 H   0  0  0  0  0  0  0  0  0  0  0  0
    7.3406    4.6897  -15.0584 H   0  0  0  0  0  0  0  0  0  0  0  0
    5.6065    5.0560  -14.7660 H   0  0  0  0  0  0  0  0  0  0  0  0
    4.1260    5.7486  -16.9004 H   0  0  0  0  0  0  0  0  0  0  0  0
    4.9728    5.8114  -18.4833 H   0  0  0  0  0  0  0  0  0  0  0  0
    4.6554    4.5938  -22.2214 H   0  0  0  0  0  0  0  0  0  0  0  0
    4.7617    2.9892  -23.0219 H   0  0  0  0  0  0  0  0  0  0  0  0
    8.0403    4.4092  -20.6034 H   0  0  0  0  0  0  0  0  0  0  0  0
    6.5933    5.4437  -20.8533 H   0  0  0  0  0  0  0  0  0  0  0  0
    6.9827    7.0063  -14.1504 H   0  0  0  0  0  0  0  0  0  0  0  0
    7.7453    7.0138  -15.7768 H   0  0  0  0  0  0  0  0  0  0  0  0
    6.3853    7.6631  -17.7042 H   0  0  0  0  0  0  0  0  0  0  0  0
    4.6595    8.0831  -17.4363 H   0  0  0  0  0  0  0  0  0  0  0  0
    6.4583    3.8006  -24.5595 H   0  0  0  0  0  0  0  0  0  0  0  0
    8.5863    4.5721  -23.0175 H   0  0  0  0  0  0  0  0  0  0  0  0
    6.2382    6.5358  -23.1928 H   0  0  0  0  0  0  0  0  0  0  0  0
    5.0886    5.5419  -25.7219 H   0  0  0  0  0  0  0  0  0  0  0  0
    4.0652    4.2114  -25.0824 H   0  0  0  0  0  0  0  0  0  0  0  0
    4.1366    5.7845  -24.2182 H   0  0  0  0  0  0  0  0  0  0  0  0
    9.2062    6.9923  -23.0264 H   0  0  0  0  0  0  0  0  0  0  0  0
    8.0685    7.2813  -21.6668 H   0  0  0  0  0  0  0  0  0  0  0  0
    9.5091    6.2358  -21.4256 H   0  0  0  0  0  0  0  0  0  0  0  0
    6.4699    2.8657  -16.4803 H   0  0  0  0  0  0  0  0  0  0  0  0
    4.7649    3.4117  -16.3328 H   0  0  0  0  0  0  0  0  0  0  0  0
    3.6983    3.3542  -20.9282 H   0  0  0  0  0  0  0  0  0  0  0  0
    2.2311    3.8987  -18.9510 H   0  0  0  0  0  0  0  0  0  0  0  0
    2.9585    3.8222  -17.3810 H   0  0  0  0  0  0  0  0  0  0  0  0
    8.0946    6.8561  -24.5824 H   0  0  0  0  0  0  0  0  0  0  0  0
  1  5  1  0
  1 26  3  0
  2  3  2  0
  2  5  1  0
  3  6  1  0
  4  5  2  0
  4  7  1  0
  6  7  2  0
  6 10  1  0
  7 20  1  0
 20  8  1  1
  8 27  1  0
  8 30  2  0
  9 27  1  0
  9 28  2  0
  9 29  1  0
 21 10  1  6
 11 15  1  0
 11 22  1  0
 12 16  1  0
 12 22  1  0
 13 17  1  0
 13 21  1  0
 14 18  1  0
 14 21  1  0
 15 31  1  0
 16 31  1  0
 17 19  1  0
 17 23  1  0
 18 19  1  0
 18 24  1  0
 19 32  1  0
 20 21  1  0
 20 28  1  0
 22 25  1  0
 22 33  1  0
 25 27  1  0
  2 34  1  0
  3 35  1  0
  4 36  1  0
 10 37  1  0
 10 38  1  0
 11 39  1  0
 11 40  1  0
 12 41  1  0
 12 42  1  0
 13 43  1  0
 13 44  1  0
 14 45  1  0
 14 46  1  0
 15 47  1  0
 15 48  1  0
 16 49  1  0
 16 50  1  0
 17 51  1  6
 18 52  1  6
 19 53  1  1
 23 54  1  0
 23 55  1  0
 23 56  1  0
 24 57  1  0
 24 58  1  0
 24 59  1  0
 25 60  1  0
 25 61  1  0
 28 62  1  0
 29 63  1  0
 29 64  1  0
 32 65  1  0
M  CHG  1  28   1
M  END
>  <OMEGA_C>  (14) 
SPicQEJnCMCREp7BxAHHQDPIqb8LkK3BreHaQELAiL7KKbPBae2lQJKVgz6KJKHBdp+tQK80iL+O
ZKTBluDUQPQ0hj9ylK/BDDi5QL8epT+H9KbBeurOQNh+N0BqfJnB9VuHQAi0VUCTl5fBH5DqQHzA
FUCib7LB5HrPQAuHqUB4JXbBNKuiQDi5vkBIMYvB5YqqQJ5seEB5wrXBPDnoQBFolkDajKrBwHHa
QL0l2UCSd3PBt12vQK5i7UAVCInBa768QNRzkUDlzL/BJij9QPULqkBTh7TBH+zaQEzZtkCN2bzB
DY64QMo4L0BxCqTB08nNQEDTXECvrK3BA2XFQHJrn0D524bBfNGWQGfUoUAUeMbBIrcLQVFj0UDZ
ILHBlzO2QCjoYEDoTYfBzXSPQNJDP8AAvJjBK0uuQDI9R0A2SJLBVLuMQNYJTECK3aHBuc1BQNo5
bkAG/ZLBB430QGwKKEAmcpfBVMe3QBs380AHiXvBlErwQPdhxEBjT8bB59/pQNS2pEDBuYzBHi7L
QIn0FcAlSbDBtGvuQBWr774lG7rB+rGRQP788D6OWZrBImQFQUprGEBn6K7BaOnsQLSjHECVLLvB
LObqQOsRlkBT73DBzWizQBfLoUCYQWzBVgiEQIP0t0D7M4fB2CCfQCL3uUDg3ZPBN/mUQBUAk0Bz
xbHBfF+YQMNOP0DCLLjBI6UAQe4XjUDc06TBDPzSQPAyrkCR06bBA3LfQPEz4EASaGLBatn3QLlw
4ECbbXzBRVTMQAM49UAhoo3BPRqVQE9UAUF8fYvBjarOQPw8c0DiecTBqmEJQQVPkkDwI7jBQJ/H
QG0l0UDxirnB89WiQC5XsUBoxs3BERaCQBbEhkDaqMjBAF+EQL0auUDKvsHBkUwTQSvB30D4NbjB
fhgBQVQA6UCGVa3BZiUYQaeLx0C3Z6vBHQnPQGVoN0Cj14PBJHqYQB5ZWkCZqYLBT7FsQI+rVkDs
bKfBGsoOQAGFeUC7m5fBn1c9QKKedEBHDIvBSYMBQSpl20DAqMTBf3GgQO8MCcD8GJ7Bsb3IQF7F
p7+1xq3B4ZDbQB48db5+crPBXZqnQNvbgD5NL6HBPtWvQKAyiL+gf6TBGALVQO8eiT9b0a/BTem5
QKjzpT+UDKfBBCjPQNxlOEBrfJnBQH6HQEA1VkBVk5fBBNXpQBS0F0CHwbLB0FCeQBhNv0DAForB
JSDtQHBFrEAA8YrBzXypQEU2ekBftrXBnd7nQOHPlkA/rqrBLsCrQAlT7kAUuojBZyr3QH4b3EDF
i4nBDQy7QGHzkkAEw7/BRkD8QD/HqkBYsrTBnnjZQCsnuECg0LzB1qq4QBaGL0A/EqTBfTfNQBEF
XkCVxq3BA47BQLLcoECBpYXBuLqUQEnNo0BGOMbBjYYLQeLA0UB/S7HBSP61QDwuYkBzG4fBngiU
QGhvQMCSrZjBddGuQEDES0BUT5LBE6SMQH3oSkD51aHBfYVBQIaJbEBO8ZLBAZj0QFdJJ0C8bpfB
spDUQPN+9UAq543BXR/uQE1BxkAIU8bBK//EQB/9pkCb1HXBalnNQGTDFMBZhrDBvLvuQBDq2r46
errBibSTQC9Z5z7qTZrBaDIFQcP9GkBMcK/BBjnrQFnvHkCkgLvBc0yAQNW7uUBXtYXBfF2ZQEGQ
uEAUo5LBbJzrQCu2pEAZh5PBAlEDQdFFmUC9K4fB3AyUQL2bk0CslLHBzkuXQHMzQUD3J7jBt6EA
QZtGjUCDEqXB3OTSQPyCrkAq1KbBhm6TQOyXAUHGXozBPJOuQFjF9UCzJ4DB++P6QChb40Au/IDB
GYQKQbHX40BkyI3Bh53MQMq7dkAKmcTBcrUIQeUNk0AhebjBqXDGQCZB0kCcUbnBOFGgQB25s0CU
g83B9pp/QHTpiECpbcjBNaKCQAnUukBvVsHBGuoSQetZ4EA6ZrjBJCEBQflV6UBfVq3B+B0YQcJz
x0A3tqvBlGfQQEbnOkCV/IPBbKiYQEV8VEALjoLB+tprQLmfU0BmXafBW7gNQG3VdEBbhpfBzHI9
QLBYdEDKBIvBVX8AQWQo3UAYrcTBt0ynQH0QDsCQWp7BXKzNQOSip7+XAq7BFHPeQHzaVL7ssLPB
7A2rQAiiRD7RLqHBzgG1QALojb9toKTBmBXWQB1Niz8K+q/B5lC7QPNUoj96FKfB3rnOQIIXOEBN
j5nBnx2HQBa9VUAdiZfBKs/oQKqPGkBF9LLBNt3qQMWLrkCm04rBAAG9QCI4rUAEo3TBvK2mQPAk
eUAzdbXBOg3lQIehl0Aro6rBe68HQRmLmUDvYITBQPjiQF19mEDhnWjBDMS2QMQ9k0Dwhr/B1AX4
QFCyrED4srTBjEDUQKI1uUCporzB6g+4QKCELUB6DqTBhl7LQAZaXkBQva3B4F++QLiLoUCJS4bB
vWyPQLExo0DSu8XBgMkIQXeE1EATU7HBHEm1QOyKYUC2T4fBbDycQBSdR8BSG5nB+E2uQHa6SUDZ
WpLBNoGLQMw2RUA1s6HBGGJCQFqab0CdwZLB5FT0QDbmJ0A2l5fB1Z0FQSzHpEB5Y3LB9qfnQPRU
yEByNsbBtsufQKGRuEBzh4vBE6zTQAYJFMAb1bDBxXbxQG00ub7TzLrBH3CXQNOqtj5WMZrBnc0E
QVRVIEBT16/B5CfpQC1YIkAms7vBIDbuQBaL0UBjZIrB1RLtQHkzpEBROJPBZs2eQBOhoUC+sm3B
Tta+QMgz0EAK6nLBhfiQQCpRkkAGKrHBQRWVQE1VP0Bi4bfBzCn/QCWZjkBkL6XB4K3PQAh9rkCb
m6bB7MkGQSohbUCYQYXBmS8XQaX6pEBwaYfBlaXiQD8lo0Dj11fBJ7ffQFPsakCZOWnBHJ/IQMLC
eEAVg8TBqeEGQTPmlUAroLjBUK7AQHOT0kCa/bjB9eaZQJ62s0C2DM3BkDN2QL3Ih0DY5MfBvTJ6
QFiAuUDlssDB2qgPQfLi40DvdLjBwzD8QNot60DpOq3BVb8VQfP6ykB13qvB59nQQKiqPUDCLITB
+JSYQHKaUUCbn4LBtfVnQK83SEA5HKfBE4UNQEG3dkBhLZfBTpNAQAgie0D044rBQ/T5QIm830DV
mcTBz0OoQIorD8DciZ7BPSbPQDF2p78EDq7Bkg7gQHSSSr40m7PBcMeqQCztMj43Y6HB9p61QNpn
j7/By6TBvPzWQEHwiz8n4a/BPiu7QOQroT8OKKfB6oHOQKJGNkBZhpnBqESHQJ5iVkCea5fBBIjp
QJKMG0AMrrLBakzlQKx/rkBN6ozBw9vIQD4yqECN9HPB+z6mQPCndUAUprXBkafiQJthmEA3mKrB
DwTzQChp3EAtSorBx63XQFGj1kArinDBz422QF3xkUAsqb/BqOz1QH3IrUCuirTBFF/SQIoLuUA+
pLzB4J+3QGylLEATB6TBJ7jKQFbvXUBstK3BuuG+QCvXn0Cz4IXBKV+PQO9NoEBuKcbB+fkGQUpr
1kAnC7HBqDG2QEzgXkB6GofBwZKdQL7fSMARRZnBQFiuQNAkSECkOpLBeDKLQBZgRECrkqHB8B9D
QEL4cUBVspLBuGD0QDjeJ0CTp5fBJBz8QJvR30BwCn7BEQbmQGvoyEArG8bB9GCbQCOWtkDPu4jB
9rTVQDO4E8Bm4bDBpLHzQHrArr5tn7rBkmaWQFFhqD7rhJrBv+YEQahbIkAwRa/BaRPrQPCOI0AJ
arvBjuPbQFzfrECfYpXBsT8AQR/jmEAvf4vB2FbiQE1JkkDCt27BAterQBBqokAKbGrB6laPQHTT
j0DSg7HB3viVQEB+OkBSI7jBYX/8QLR7kECY9KTBtBfMQEuhrkAjw6bBa/AHQeqJ5EAr5o7BGA7Z
QOCh8kCCZozB81y9QN2R7EA8lnTBAr/gQPkg20C8rl/BG8PJQBFId0C6fMTBSlUGQeSal0A+VbjB
mZe9QBan0UA+F7nBJw2aQEoPsUACbc3BKaZ4QGYehEBPbMjB9ll3QIIDtkAlSsHBFvkNQc0a5kAs
GrjBVoD3QJl77ED1Gq3BjMsTQYG5zUBCa6vBkyvSQNsOO0AdMYTBAfSZQHq2TUD+ToLBuMZmQGBv
RkBw6abBMlQOQCMoeUDXIJfBfIlBQO2sfkC924rBRkX3QPv84EAkZcTBzAOnQBkGF8CJh6DB0w7X
QGSlqL8uv63BugLpQABlL77glbLB5SqrQGCjuD10+KHBR2S4QJozmL/ocqXBPqnbQLg9jT+JOK/B
1ZG8QH7Rmz/EFqfB2xHOQGT5PEBh7ZnBlD6HQCXWXkB7X5fBz+TpQGiRH0BHZLLBd/jKQEa0yEDx
6JDBav8DQep8nkDAyIfBiiuhQB99Y0BI5rbBEi3XQHagm0DcEKzBrEnrQJaK7UBWFZLBWu8RQUBO
xkDNdonB2NOuQKrniUBkN8HBpBnnQBabskDwRbbBVPLBQNCBtkByeb7B44O1QIbxKkCpJKTBk+PF
QPveW0BsYK7BpSPXQE58qUAyr4fBVmSHQAfBjkA4mcjB91f4QKJa30C3JrPBwci6QE/+f0AM24fB
fNmYQPM1VMDpiJzBcn+wQP9wX0Bnx5LBHeuIQEpVPkBUGKHBjh9DQGv0eUA0gZLBEQ3zQOEzJ0AS
NpjBawsLQc6L3EDj+JLBh0/RQAZEykDqDcjB7WrPQA42vkDyl3zB5MPgQGM0E8BlY7DBWWEAQcrT
i74bz7jB/kyUQJfASz4KjZvBlEIEQWWiL0D6i67B1FXtQKFTJEAbIbvBNTKrQDJM1kBSPY/BD+bJ
QIuptkAadpjB5yMHQXy1h0B4To7BNUYIQSa4j0BzFoDBJSyGQHf9gkDGQLPBb+SWQMeXIkCkJLnB
jvTxQC0pmUBMY6bBj1i9QOHBrkCVeqjBtazjQFERAEEWT5nBJVfpQDw5AUEvBYvB3mAQQZuh20Cd
gYLB/MAiQe+XvEB3X4rBMkrHQInFbUA6ZMXB5ZUAQd/Sn0DO3bnBPYuoQMQ1ykDo47rBYrWQQJTU
n0DE7s/BnRR2QBzDXUDxssrB2b5cQGT+oECKacTBouIBQRQC8EDEW7rBBJLeQBob8kCsaq/BJHgJ
QT2920Alda3BdvPLQM9VTUBrgYPB2IGcQIsbh0D2u4PBVOVeQO0wNEDexKXBzHgLQDlHdUB0aZbB
C55EQCUPiUBiGYvBjALdQLqH5UCzZcbBtayWQLhNEMAdr6LBuMXKQOClpr9xXq/B5BvhQIA5Sb47
p7PBbe6kQIAiKz7+yqLBXM+sQMDDj7+U+KbBU/vYQCCoiz+Qm6/BFRK7QHDUoD/VR6fBBELPQMAK
PEBNW5nBN+6HQCBEXUCPd5fBGf7rQPBUHEBvNrLBaz/IQEC7vEDXYXbBz7yxQPB2y0D3UI7B0nan
QLg2cUC4cbbBXmbhQGxTmkCv66rBxQqaQDyAyEC0kG/BX8WEQKS11kDM/InBlvm3QOQEkUDqb8DB
rnTzQCiusUA34bTBoz7PQCzaukCQF73BLwm4QJiuLUC2/KPBYEDLQICFXkA05K3BISnKQNSRq0CZ
4YbB3p+RQBQ3m0DD2cfB9IUEQeDL20A8PrHB2RW4QKjKeUArXIfB3q+EQKB2S8B7NJ/BbSiwQKgb
W0DlZJLBUKOLQBgfRkAAhKHBRtxBQNDWcUC/0pLB7Mf0QPAwLEASQ5fBGc6HQPDA5kCwe37BF/vg
QDTEzkBaZcbBKPfzQOS7qkC++YnB95DQQMakEsAhhLLBijb4QGqDrb4b+rnBZoCOQKJGoD4EU5zB
7JAFQSNBJEAaO67BEQ3wQL6hI0D857rBj3XcQG5z2UB4L3XBwoXUQNTmo0BnhWvBN0SuQFvYvEAz
RpbBH47EQFgX6UC6/I7B4U2OQG/yi0DyorLBAeKZQIfKM0A5FbnBft/7QBq1k0CgXKXBNdfJQAQ+
r0DZ/qbB8UyGQOxcq0B4S2/BkbKaQPXT1kAOfl/BRGxsQHpI70BlIY/B2VlhQHTPuUD9CorBNKjO
QA3feEAPxsTBJdMFQT8lnUAUsLjBlb+3QAlI0EC0UbnBhwqdQFOIrEDl9c7BazGCQOZfekBTV8rB
KsB0QLwqr0BuhMPBTv8KQVSp7ECdQbjBgUnxQEg68EAMPK3Bo5oRQTVy1EBQpqvBXkvPQMOeTkA/
iIPBAbWZQMLsd0Cw64LBsxtnQDA2RUA0yKbBKzMMQNVab0AKLJfByk8/QA6TgUDDIIvBCUHvQD5h
6EDOY8TBMSSfQCsOFcAc96LBF+fRQNT4or++c6/B8S/mQBSuAL5wprPBLRuoQOCT7j3eEqPBCgyz
QGDTk79sMKfBdAzbQB8ykj9gq6/BPge8QILFnz/GhKfBMB7OQAuGOUDMeJnBdS6HQF+JXUB4XZfB
upvrQGytIUBAMbLB/LLWQM3zt0ALeHfBYznQQJ1fwkBAmo/BrvGkQN9zbkC0jLbB8SXcQKwBnEDG
/qrBNMH0QDVp30AXRXfBadLuQO+r6EB0zI7BeHa0QOH6kEDgdsDBZLztQP13tEASyrTBGmHJQAT6
u0BECL3BnaW2QBRBLEBqDKTBaNHIQHCdX0Cg7q3BT/zYQPPuoEBKsobB7N2NQNxUmUCe7cfB3WgA
QfGP30DE87DBgGi4QE46dkAYPIfBb/COQD5zUsB6i5/BeZCvQLBpWUCoYJLB+OqJQNVgQUB8RqHB
dZpCQIWHeUAwrJLBxsfzQG1dKUCim5fBZa3qQDcJ/EAiZYTBl1PaQIIj0UA8QMbB/aoAQY7/kEBm
2IfByvTZQDfvD8B2j7LB2Qb+QDBqYr7W27nB0Q6RQN0wXT5ir5zB1SUFQaEhLUBSIK7B/MzvQNm1
KUAy37rB0IzgQLWcoUCBymrBcaG1QCKAwkDzinTB8xyvQEHrzUAN1o7BNm7UQEP/skDJcpfBS36K
QIziiEA8x7LBzFyZQPutL0AwSbnBw3b2QLQEl0AMSaXBrxDDQMqOr0AuOafBc9fwQC6c8ED8CWjB
PQwLQauS1EAU2XjBn/gHQYWt3UA484/BxL3mQFclAEGuAJXBClbMQASTe0DAzMTBo5MDQelZoUBq
j7jBxKuwQDIA0EDLQrnBSIeYQLeLq0CR+M7BtTSAQBYydUBLhsrBrNFqQOXIq0BzmMPBY7wGQSdR
8UBx3LfBFrLnQDyZ8kAPCa3B5GsNQRNh2UBUO6vBUYLFQELvP0ClsILBvyOaQM+GhUDrkoPBuR5i
QJ8jO0CkQKbB6SEMQMz5eEA535bBbaJCQF4Zh0DuGYvBeR3nQEBr60DsKMTBwkGeQE5LFMD4HqPB
isTTQDrlob8V5K7BuufoQOz18b1m1rLB+PumQO15BD5WOaPBPgazQDhukr8+GafBwKncQMxzkz9T
Ha/B6oq7QMZfoT/KfqfB3hbNQJRfN0Auf5nBRr2GQPyUXkDbW5fBoOjtQL5cIkCNarHBEnXnQMay
bUD6rmzBcsn/QBi3l0C0j4fBfN+oQGGyckDWRrbBdLHeQJ89nEBVwKnBR64LQc5EZ0C6G2bBrkgX
QS4Kk0D68oPBpN+6QDRGk0Bo2r/BsiDyQH9JtUCeQrPBOKPPQEiwvUAg9bvBYiy2QErgLEBT86PB
ruLKQC8xYUD7V63BMuHjQCtFZkDsmILB+gyWQHuAnEDjyMfBnYgCQevf30C7Ea/BONy0QK/Ea0DM
oIbBZlKNQEKhUcB56Z/BWCyvQPIgW0BtW5LB1KuJQAf8Q0DHVKHBlURBQEzReEB3nZLBehPzQLNZ
JUD7ipjBHU0YQctHlEBkyXDBQN7iQAj30kCh38TBwFDzQB1uFkA9p4TBPp7cQOp6D8A91bHBph4B
QU5XXb5iqbjBkaSOQEVnbD4EJZ3BaxQGQevnLEAzHa3B0irzQJXaKkBvDbrB903VQAKLOUD9G2XB
TGzaQOHUlUAmdWfByGHzQBDltkBl54TBFTT+QETPlUDqVpDBXC+OQC5pi0CGvLLBtg+dQMTeNECN
RrnBxgr4QIP6lUCH2aPBeXfFQJLVr0C+DabBBwkNQc/Tb0ACsVTBpNQRQanCJ0B/kGrBQ7IdQZSu
aECx0obBXtQgQXxzrUBzRofBImLTQBLqf0CT7MPBogUGQV0hokChzLbBJXK2QBbq0UCldrjB7W2i
QCjlrkCrns7B+42IQOkqfEAup8rBDOl5QH4Wr0BfucPBSHwJQZvr8UAhx7XBBZLrQCvz8kCNUavB
VQ8PQeMF2UAvIanBQM2hQNtbPEDlMoLBQMaoQF81lkDi5ITBDydiQJEEQEDNbKbBgtkKQJgdeEAj
05bByu9AQPwuhkBh/4rBlJ7vQF/u7ECSicLB

>  <OMEGA_E>  (14) 
A7CGPxwghz83S4c/AauHP4jsjj8sL48/6/qPP4JNkD8=

>  <OMEGA_NBR>  (14) 
     77194

$$$$
298709
     RDKit          3D

 63 66  0  0  1  0  0  0  0  0999 V2000
    4.7915   -2.3003  -20.5448 C   0  0  0  0  0  0  0  0  0  0  0  0
    6.4910   -1.2574  -21.9912 C   0  0  0  0  0  0  0  0  0  0  0  0
    7.1918   -0.1191  -22.4478 C   0  0  0  0  0  0  0  0  0  0  0  0
    5.1677    0.1337  -20.4599 C   0  0  0  0  0  0  0  0  0  0  0  0
    5.4839   -1.1344  -21.0006 C   0  0  0  0  0  0  0  0  0  0  0  0
    6.8687    1.1462  -21.9258 C   0  0  0  0  0  0  0  0  0  0  0  0
    5.8583    1.2582  -20.9493 C   0  0  0  0  0  0  0  0  0  0  0  0
    6.4264    2.8697  -19.1611 C   0  0  0  0  0  0  0  0  0  0  0  0
    4.2093    3.4223  -18.9126 C   0  0  0  0  0  0  0  0  0  0  0  0
    7.4486    2.5219  -22.1741 C   0  0  0  0  0  0  0  0  0  0  0  0
    7.0163    4.8661  -21.1909 C   0  0  0  0  0  0  0  0  0  0  0  0
    5.3153    3.8212  -22.7621 C   0  0  0  0  0  0  0  0  0  0  0  0
    7.6360    5.6480  -22.3702 C   0  0  1  0  0  0  0  0  0  0  0  0
    5.8836    4.6394  -23.9578 C   0  0  2  0  0  0  0  0  0  0  0  0
    6.5616    5.9464  -23.4497 C   0  0  2  0  0  0  0  0  0  0  0  0
    5.7196    2.6983  -20.4851 C   0  0  1  0  0  0  0  0  0  0  0  0
    6.3750    3.5186  -21.6522 C   0  0  1  0  0  0  0  0  0  0  0  0
    8.2570    6.9591  -21.8301 C   0  0  0  0  0  0  0  0  0  0  0  0
    4.0701    3.7206  -25.5437 C   0  0  0  0  0  0  0  0  0  0  0  0
    6.6568    1.3529  -16.2589 C   0  0  0  0  0  0  0  0  0  0  0  0
    6.6914    3.2012  -14.5653 C   0  0  0  0  0  0  0  0  0  0  0  0
    4.7470    4.9824  -24.9651 C   0  0  0  0  0  0  0  0  0  0  0  0
    5.6748    3.6859  -16.8401 C   0  0  0  0  0  0  0  0  0  0  0  0
    6.7872    2.8948  -16.0738 C   0  0  0  0  0  0  0  0  0  0  0  0
    4.2290   -3.2532  -20.1772 N   0  0  0  0  0  0  0  0  0  0  0  0
    5.4414    3.2515  -18.2458 N   0  0  0  0  0  0  0  0  0  0  0  0
    4.3243    3.0608  -20.1731 N   0  0  0  0  0  0  0  0  0  0  0  0
    3.0245    3.8869  -18.3481 N   0  0  0  0  0  0  0  0  0  0  0  0
    7.6194    2.6549  -18.9801 O   0  0  0  0  0  0  0  0  0  0  0  0
    7.1805    6.6222  -24.5484 O   0  0  0  0  0  0  0  0  0  0  0  0
    8.0145    3.3324  -16.4722 F   0  0  0  0  0  0  0  0  0  0  0  0
    6.7241   -2.2295  -22.4001 H   0  0  0  0  0  0  0  0  0  0  0  0
    7.9689   -0.2196  -23.1911 H   0  0  0  0  0  0  0  0  0  0  0  0
    4.4158    0.2364  -19.6914 H   0  0  0  0  0  0  0  0  0  0  0  0
    8.3921    2.6479  -21.6227 H   0  0  0  0  0  0  0  0  0  0  0  0
    7.6283    2.6765  -23.2483 H   0  0  0  0  0  0  0  0  0  0  0  0
    7.8049    4.6501  -20.4551 H   0  0  0  0  0  0  0  0  0  0  0  0
    6.2384    5.4873  -20.7231 H   0  0  0  0  0  0  0  0  0  0  0  0
    4.4912    4.3924  -22.3099 H   0  0  0  0  0  0  0  0  0  0  0  0
    4.9310    2.8648  -23.1463 H   0  0  0  0  0  0  0  0  0  0  0  0
    8.4320    5.0381  -22.8222 H   0  0  0  0  0  0  0  0  0  0  0  0
    6.6391    4.0292  -24.4743 H   0  0  0  0  0  0  0  0  0  0  0  0
    5.7872    6.5863  -23.0016 H   0  0  0  0  0  0  0  0  0  0  0  0
    8.7017    7.5247  -22.6621 H   0  0  0  0  0  0  0  0  0  0  0  0
    7.4740    7.5657  -21.3517 H   0  0  0  0  0  0  0  0  0  0  0  0
    9.0366    6.7186  -21.0923 H   0  0  0  0  0  0  0  0  0  0  0  0
    3.2781    4.0184  -26.2466 H   0  0  0  0  0  0  0  0  0  0  0  0
    4.8192    3.1124  -26.0719 H   0  0  0  0  0  0  0  0  0  0  0  0
    3.6311    3.1319  -24.7248 H   0  0  0  0  0  0  0  0  0  0  0  0
    6.7218    1.1047  -17.3286 H   0  0  0  0  0  0  0  0  0  0  0  0
    7.4693    0.8484  -15.7155 H   0  0  0  0  0  0  0  0  0  0  0  0
    5.6871    1.0169  -15.8630 H   0  0  0  0  0  0  0  0  0  0  0  0
    6.7806    4.2858  -14.4045 H   0  0  0  0  0  0  0  0  0  0  0  0
    5.7214    2.8524  -14.1813 H   0  0  0  0  0  0  0  0  0  0  0  0
    7.5037    2.6839  -14.0338 H   0  0  0  0  0  0  0  0  0  0  0  0
    3.9863    5.5849  -24.4471 H   0  0  0  0  0  0  0  0  0  0  0  0
    5.1744    5.5654  -25.7943 H   0  0  0  0  0  0  0  0  0  0  0  0
    4.7314    3.5687  -16.2866 H   0  0  0  0  0  0  0  0  0  0  0  0
    5.9615    4.7477  -16.8552 H   0  0  0  0  0  0  0  0  0  0  0  0
    3.5697    3.0354  -20.8288 H   0  0  0  0  0  0  0  0  0  0  0  0
    2.1992    3.9605  -18.9079 H   0  0  0  0  0  0  0  0  0  0  0  0
    2.9989    4.1471  -17.3829 H   0  0  0  0  0  0  0  0  0  0  0  0
    6.5287    6.8085  -25.2139 H   0  0  0  0  0  0  0  0  0  0  0  0
  1  5  1  0
  1 25  3  0
  2  3  2  0
  2  5  1  0
  3  6  1  0
  4  5  2  0
  4  7  1  0
  6  7  2  0
  6 10  1  0
  7 16  1  0
 16  8  1  1
  8 26  1  0
  8 29  2  0
  9 26  1  0
  9 27  2  0
  9 28  1  0
 17 10  1  6
 11 13  1  0
 11 17  1  0
 12 14  1  0
 12 17  1  0
 13 15  1  0
 13 18  1  0
 14 15  1  0
 14 22  1  0
 15 30  1  0
 16 17  1  0
 16 27  1  0
 19 22  1  0
 20 24  1  0
 21 24  1  0
 23 24  1  0
 23 26  1  0
 24 31  1  0
  2 32  1  0
  3 33  1  0
  4 34  1  0
 10 35  1  0
 10 36  1  0
 11 37  1  0
 11 38  1  0
 12 39  1  0
 12 40  1  0
 13 41  1  6
 14 42  1  6
 15 43  1  1
 18 44  1  0
 18 45  1  0
 18 46  1  0
 19 47  1  0
 19 48  1  0
 19 49  1  0
 20 50  1  0
 20 51  1  0
 20 52  1  0
 21 53  1  0
 21 54  1  0
 21 55  1  0
 22 56  1  0
 22 57  1  0
 23 58  1  0
 23 59  1  0
 27 60  1  0
 28 61  1  0
 28 62  1  0
 30 63  1  0
M  CHG  1  27   1
M  END
>  <OMEGA_C>  (15) 
S1SZQDo4E8CpW6TBALbPQFrzoL8T7q/BQyPmQOT3870ZlbPBbV2lQPrfCD7KraPBf3yvQJcykb9K
AajBT8zbQCS3kj8YaK/ByXa7QBMOoT8qmKfBOaXNQN2pN0DcSZnBdbKGQI8HW0DxTJfBV1vuQC5n
IUCMZLHBcoXgQNK2m0ACh6nBSheqQAeOdEDQGLbBtVn0QLy8tEA99rLBTEa8QNh1lECQqb/BgvjR
QNZIvkABmbvBNAe3QC+wLEBj4aPBXwDMQIgwYUCgN63BnxwEQciw3kAXpK7BlT6CQHEebkCQWczB
agTVQLArrT9QEoLBwh/WQDLhTEBJC2nBxOeXQPRvn0CAuMfB/pe1QDfla0BwuIbBCDHZQD1EOUAo
l4DB+1OHQBM1UMDWaqHBCyCuQO4XUEBy95HB62CKQKXjQ0B6YqHB35FBQKPDeEDzyJLB6dHzQGDq
KUBO15fBY8blQD7p00AJY8TBizsAQQVGVUASx4PBkyvXQBOwDsBcM7PB6AD/QLPgYL5eh7nBQ06N
QAINcj7uh53B+EUGQWp2KUA3+6zBcRv0QA9LK0Bv/LnBpsH5QMHNlED8o6PB1KDHQCOYr0DPyKXB
67ePQK6OjEDAerLB/cqdQFdYN0CfK7nBjOkGQUE4oUDck7bBvXPUQDvvgEB2y8PB/jC5QErD0kAw
A7jBSDoLQYbK8EAQTLXBoirvQA0a8kBE0KrB4JUQQcL+1kAFvajBK8xRQKyWgED4+NHBxTaaQPww
R0BEk9DBfWRoQGFxSEBNzMXBShnXQMVmjT/5oIrB1gTvQDgzWT/dcnvBZPy1QL0qgj/yzn3Br/rY
QAUliUDJeGbB0BW3QAGNNkB55mLBQx7wQHHEK0BkimDBNCB/QMu3skCtk8PBoZSlQJkXskCkWs7B
0meXQOBkZED+SoLB4MS+QGjtl0Bz14bBknZkQJtDQkBaoabB4r4MQKF4fUBcQ5fBve0/QDy1hEAu
EIvBxerQQALf2UAVtsnBbVacQIewFMDMmaPBfdLPQMfnor8V7q/BD+jkQNJlBL5g9LPBCxSnQJix
7j1RU6PBkBKxQMaLk7/TpKfBT73aQDJ4kT+wwq/BU/O7QApbnz/Oj6fBLlLOQBu/OUDAW5nBM0KH
QKhBXUC2ZJfB+jTsQCQBIUAiEbLBxh/eQLKYm0ANh6rB2z6mQD4xcECiU7bBuIzvQK9PtEAJWLTB
XBa2QMi1kUAfQMDBVXnLQENYvEBBqLzBICO3QAYgLEAt+6PBT+TJQNneX0AvuK3B0YwBQTse30BK
fbDB3h51QAQBZECNKszBlaTrQMsztkDhjIvBqcvFQN+CtED7gXPBcxeQQAUzm0CE+MfBYda3QOcZ
ckA4F4fBYqvBQHOpqUBGyIXBVoGLQHPoUcC7UqDBVWqvQOBnWEBCUpLBGFiKQOneQUBVU6HB645C
QMqpeEAYtJLBIf7zQCTTKkCjVJfBqCfdQCum0UDqx8XBGPagQKYowUBV74nBdi3XQLrAD8B0MLPB
zJz8QBdvZ76cMbrBtgSQQLI1Xj6+8JzBfHMFQX2vKkDk7q3B/a/wQLUMKkDIuLrBdab4QPexlUAj
76TBwpfFQN9Fr0DwkqbB1hyMQOkpikC1ibLB/h6aQInhMUCvFLnBgmsEQdQZoUCAI7jB/vXNQFKp
fECfiMTB0t6yQMmQ0ECh6LjB6ssHQcr28EDaZrfBl0nqQCk88kB3eazBkKgOQUmW2EBK2arBViVA
QPIPdUA2jtHBSjaSQBJuPUAZjdDB4yBcQLbOPkAaYcXBRfPoQIqTrkBqHZTBTFLxQBy42EDkkYrB
O0EDQaM7pEC5EIjBCg6oQOStq0B1MWvBprvgQIWLokC0mmzBfIvLQP8H10AKnXHBcxhwQJJIrkAR
qsPBEjKcQD+YrUAQ1s7BJ3rTQNN+TUC4IYTBQ3ebQDCKYkBBQoLBqmxjQACCPEBcY6bBizcMQO9M
eEDo7ZbBt01CQMVchkBUG4vBoTjHQMCk1kCZ5MrBMbOfQNRRFcCMkKLBzsvSQCRjpL9rBK/Bsw7n
QNAmDb6ZQLPBvAeoQNDc5z0o6aLBlYCzQI6mlL9a3KbBqnHbQIoNkT8la6/Bid67QKgSnz+iaKfB
ZsTNQFCzOUBhkJnBAzuHQDAnX0BpaZfBogbsQAs6IUCI7rHBuULcQMsDnECPrqrBK3mlQDwxbUAS
cbbBLqHtQNdOtEColbTBiCi1QP+9j0AZcsDBD67JQF8Fu0A5BL3BY0q2QJz9K0AFA6TBDvzIQENj
X0B4w63B1iUAQRHH30BA7LDBOwd1QGDZW0AwQ8zBnvgDQZLmYUC+hoLB+mLgQI8ZskCH53fBezeP
QNLfl0B/RcjB6Ce4QDp/dkDeQ4fBcSzkQBgIkkByT4XB9pGPQLuKUsA8E5/BKjqwQA8LYED/rpLB
gamJQDdzQUCGQKHBsFpCQDXweEBMm5LBoWnzQN7tJ0AG95fBTULbQOzlz0CfNsbB6YPvQOT6qEAT
Ko7BIjXbQNnLEMARBLLBzjv/QCRicr4jYLnBg6SQQCYKXj6bmpzBe0cFQQDXLEDozK3Bx4bwQI4W
KUCimrrBDab2QLEDl0Ba/qTB/zDDQHx+r0CR4abBr/CKQJp8iEC8xrLBGvOZQP4WLkCiErnBO7AD
QV0+oUD8OrjBbYLNQL/2eECel8TBlpiwQHMXz0Bna7nBJFoGQeM+8UCY57fBXwTnQHrK8kDPD63B
cDcNQbsy2kAwMqvB2QlAQFf7akAVvdHBeZySQHlTNUAagNDBn1hcQCF3N0C4Y8XBTpEFQbSVM0D/
GonBfEATQUzPgUDfYoHBYGP/QAXmP0A8P3bBY07HQAq2yUAph3vBWQbYQNnHoEDiKWnB8CP/QCKk
wkBjsHXBQXltQM7rqkBWHMTByiybQPvZqUC5OM/BlXC3QHtDO0A7g4LBxHKeQBG9kECQkYTBxWFh
QJJoOkBALabBm08LQABrdUAcqpbBgLdCQAp+h0CuGIvBqWbFQI8S1EAnZMvBip6kQCCeFsB3BaHB
9D7WQCnFp7/H4K3BRBPpQFj5J771gbLBQPGpQJDsxD38M6LBh+y2QO9ol7+tu6XB2fLbQEA/jj9t
GK/BxTS8QFehnD+EIKfBU7vNQC00O0B+wpnBchyHQLB2X0DCbJfB0g3rQL4nIEBuCLLBZ3fZQLG6
m0DJJavBMo+jQKxBaEAxqrbBgT7qQImIs0A9KrXBv2CyQLvAjEDk1sDB42zGQMrEuEAHsb3BfJ+1
QIgSK0BNCaTBvlrHQKZVXUBD/K3BKdr7QBLG30DKvbHBtJ6UQNejpUCJR9PBXj/3QNoVK0Dd8n/B
baDrQGzgoUAVw3TBh5+KQIxYkUCuTsjBg6+3QNoOf0AajofBlmPnQMBDgkAByIPB0qyVQPjBU8Ae
Mp3BFlWwQLohYkAs0ZLBYA6JQARXP0C1JqHBvHVCQGJkeUDbipLBTULzQKz1JkC6b5jBxwzZQFXi
zEAk2MbBMn0AQfdlkkDHnYvBd8nfQO6+EsCSkLDBPqkAQQVIiL4hnLjBkpuSQEnPUT6245vBhdEE
QeWiLkDeEa7BPu7uQKn8JUC8v7rBKvDzQPTql0AYbaXByeG/QLPkrkCLdqfB8bqIQMPAhUDSDbPB
raiYQCI+KECJHLnBqEECQWrNoEAgr7jBgMvKQNogc0CG+8TBxQytQN0czUBpU7rB5+wDQTPr8EBA
0bjBqBziQCqB8kBv/K3BRQ0LQWdV20Ak/KvBVB1uQFq2p0AxB9jB6s2hQIHuxUA6GNLBTiOsQIK/
kUDmidfBQ3r0QEvd+T9PlYbBQnIMQU6tL0CN53rBM5TjQGx2FUD3Y3LBjZDgQFa5wUB60nnBFQTY
QIWulkDEQmfBM6oGQfbJo0Baxm/BRUV6QG+WYkDzq8nBfZplQDd6pUBHOsTBG/+mQJwPUkDwOYLB
v4qpQJaVn0B/tYbBE5JfQHn/NUAF66XBL+EKQFURdEDXc5bBBp5DQMSriEAFIIvBe9bDQPqE0EBE
NszB3xqmQKyrCcDV/p3BQ0jOQECcpL/4mq3BdBDgQOcfRr4UP7PB/Y2oQNdtdD68kqHBKrizQNl3
iL+Gk6TBDPTWQIZPjj+50q/BW+e5QC7opj9cZqfBu0fOQFMMNUAEpJnBMvCGQLTtU0Drh5fBu6Lq
QGksHED0mbLBO+/lQIVimEBT+6nBSsypQP20fECgmrXB4S77QKTmrUDinrPBHX67QFMvlkDyYr/B
fnHZQCiYu0Ca97vBssi3QDM8L0APMaTBBdPMQI5gYED/k63BVmgKQaXr1EA5r6/BvJGeQDtLvUCf
D9DBbwDMQFjDo0CwYnTB0eSwQCZeu0B0PYzB96STQCWhpUB/qsXB4Ny1QCV+V0A5KYfBCHvKQKqS
mEAAIYbBny2bQDMjQcASZJjB6MytQO1qQkDoUJLBXLCLQNuUSUCj06HBukFCQPCkbkDhx5LBgODz
QEvRI0Bay5fBB6TwQBJlykAZCcXBt1vzQDn6l0AD6YnBTvrUQOzhEsACMbDBuWX0QOw8ub4RGrrB
FiWTQIeZ1T5b8ZrBo4MFQT8cIUCfNq/BLDDsQClSJEBpVbvB/Lj+QFLsjkDpMqTBcMHPQKIZr0BJ
LqbBDkuTQCSek0DtarHB97iYQE5fQ0AHaLjB8K0IQagQl0CWYLfBqrTNQAFhf0D+ZMTBSsvFQJt2
1UAQlLjB1SASQSyu5ECKirbBDhP/QGqd60CTuKvBz7YWQRFZykDB+anBNtiAQDg/x0B1ENTB/Pix
QGe12UBRNM7Bgb2wQBTnp0AvX9XBrijeQOoNi0D5vWvBWbXbQHT6wkBwRHLBGjmrQO9LpUBEBG7B
o9WvQD1Ks0AWzZTBiBqQQEvpvEA5EInBx5bAQNCX2kBPMIvBXPN/QBKPiUBUq8fBKTWBQGRdu0B3
gMDBp5/LQAh8J0CnuIPBf2KXQG3UVkBawoLBF29pQClNUkDUSafBHfYOQL4ve0D4TJfB8wQ/QDVe
dUDZ1YrBOSfdQAk/00C9bsrB

>  <OMEGA_E>  (15) 
zviLP1mYiz/kvIo/PcWJP25Tgj8=

>  <OMEGA_NBR>  (15) 
     90307

$$$$
298712
     RDKit          3D

 58 62  0  0  1  0  0  0  0  0999 V2000
    4.7575   -2.5353  -20.4858 C   0  0  0  0  0  0  0  0  0  0  0  0
    6.3688   -1.5678  -22.0557 C   0  0  0  0  0  0  0  0  0  0  0  0
    7.0478   -0.4709  -22.5890 C   0  0  0  0  0  0  0  0  0  0  0  0
    5.1710   -0.1269  -20.5048 C   0  0  0  0  0  0  0  0  0  0  0  0
    5.4364   -1.3969  -21.0211 C   0  0  0  0  0  0  0  0  0  0  0  0
    6.7687    0.7866  -22.0795 C   0  0  0  0  0  0  0  0  0  0  0  0
    5.8417    0.9590  -21.0458 C   0  0  0  0  0  0  0  0  0  0  0  0
    6.5119    2.6478  -19.3137 C   0  0  0  0  0  0  0  0  0  0  0  0
    4.3152    3.2895  -19.0052 C   0  0  0  0  0  0  0  0  0  0  0  0
    7.3908    2.0932  -22.4740 C   0  0  0  0  0  0  0  0  0  0  0  0
    7.8482    1.9448  -16.4564 C   0  0  0  0  0  0  0  0  0  0  0  0
    7.4300    2.5923  -15.1658 C   0  0  0  0  0  0  0  0  0  0  0  0
    5.2640    3.4485  -22.9582 C   0  0  0  0  0  0  0  0  0  0  0  0
    7.0775    4.4649  -21.5469 C   0  0  0  0  0  0  0  0  0  0  0  0
    6.4261    2.3964  -16.2678 C   0  0  0  0  0  0  0  0  0  0  0  0
    5.7620    4.2176  -24.1924 C   0  0  2  0  0  0  0  0  0  0  0  0
    7.6140    5.2263  -22.7705 C   0  0  1  0  0  0  0  0  0  0  0  0
    6.4919    5.5072  -23.7840 C   0  0  1  0  0  0  0  0  0  0  0  0
    5.7682    2.4051  -20.6525 C   0  0  1  0  0  0  0  0  0  0  0  0
    6.3731    3.1382  -21.9065 C   0  0  2  0  0  0  0  0  0  0  0  0
    4.5842    4.5223  -25.1267 C   0  0  0  0  0  0  0  0  0  0  0  0
    8.3004    6.5189  -22.3135 C   0  0  0  0  0  0  0  0  0  0  0  0
    5.8938    3.5919  -17.0390 C   0  0  0  0  0  0  0  0  0  0  0  0
    4.2064   -3.4595  -20.0511 N   0  0  0  0  0  0  0  0  0  0  0  0
    5.5477    3.2054  -18.4018 N   0  0  0  0  0  0  0  0  0  0  0  0
    4.3882    2.8131  -20.3162 N   0  0  0  0  0  0  0  0  0  0  0  0
    3.1584    3.7564  -18.4346 N   0  0  0  0  0  0  0  0  0  0  0  0
    7.6800    2.4033  -19.0600 O   0  0  0  0  0  0  0  0  0  0  0  0
    7.0403    6.1009  -24.9604 O   0  0  0  0  0  0  0  0  0  0  0  0
    6.5774   -2.5592  -22.4523 H   0  0  0  0  0  0  0  0  0  0  0  0
    7.7741   -0.6055  -23.3833 H   0  0  0  0  0  0  0  0  0  0  0  0
    4.4608    0.0134  -19.6951 H   0  0  0  0  0  0  0  0  0  0  0  0
    8.3695    2.1808  -21.9882 H   0  0  0  0  0  0  0  0  0  0  0  0
    7.5245    2.1566  -23.5559 H   0  0  0  0  0  0  0  0  0  0  0  0
    8.4891    2.5123  -17.1198 H   0  0  0  0  0  0  0  0  0  0  0  0
    8.0442    0.8797  -16.4456 H   0  0  0  0  0  0  0  0  0  0  0  0
    7.3459    1.9613  -14.2896 H   0  0  0  0  0  0  0  0  0  0  0  0
    7.7911    3.5934  -14.9648 H   0  0  0  0  0  0  0  0  0  0  0  0
    4.4825    4.0578  -22.4849 H   0  0  0  0  0  0  0  0  0  0  0  0
    4.7766    2.5208  -23.2844 H   0  0  0  0  0  0  0  0  0  0  0  0
    7.9172    4.2774  -20.8673 H   0  0  0  0  0  0  0  0  0  0  0  0
    6.3736    5.1089  -21.0022 H   0  0  0  0  0  0  0  0  0  0  0  0
    5.6705    1.6324  -16.1297 H   0  0  0  0  0  0  0  0  0  0  0  0
    6.4524    3.5890  -24.7676 H   0  0  0  0  0  0  0  0  0  0  0  0
    8.3863    4.6193  -23.2614 H   0  0  0  0  0  0  0  0  0  0  0  0
    5.7699    6.2165  -23.3584 H   0  0  0  0  0  0  0  0  0  0  0  0
    3.8621    5.1465  -24.6080 H   0  0  0  0  0  0  0  0  0  0  0  0
    4.1095    3.5923  -25.4267 H   0  0  0  0  0  0  0  0  0  0  0  0
    4.9464    5.0444  -26.0088 H   0  0  0  0  0  0  0  0  0  0  0  0
    7.5758    7.1594  -21.8183 H   0  0  0  0  0  0  0  0  0  0  0  0
    8.7107    7.0368  -23.1762 H   0  0  0  0  0  0  0  0  0  0  0  0
    9.1035    6.2788  -21.6208 H   0  0  0  0  0  0  0  0  0  0  0  0
    5.0047    3.9881  -16.5380 H   0  0  0  0  0  0  0  0  0  0  0  0
    6.6478    4.3856  -17.0616 H   0  0  0  0  0  0  0  0  0  0  0  0
    3.5734    2.7532  -20.9224 H   0  0  0  0  0  0  0  0  0  0  0  0
    3.1922    4.0698  -17.4928 H   0  0  0  0  0  0  0  0  0  0  0  0
    2.3323    3.7630  -18.9852 H   0  0  0  0  0  0  0  0  0  0  0  0
    7.6516    5.4498  -25.3364 H   0  0  0  0  0  0  0  0  0  0  0  0
  1  5  1  0
  1 24  3  0
  2  3  2  0
  2  5  1  0
  3  6  1  0
  4  5  2  0
  4  7  1  0
  6  7  2  0
  6 10  1  0
  7 19  1  0
 19  8  1  1
  8 25  1  0
  8 28  2  0
  9 25  1  0
  9 26  2  0
  9 27  1  0
 20 10  1  6
 11 12  1  0
 11 15  1  0
 12 15  1  0
 13 16  1  0
 13 20  1  0
 14 17  1  0
 14 20  1  0
 15 23  1  0
 16 18  1  0
 16 21  1  0
 17 18  1  0
 17 22  1  0
 18 29  1  0
 19 20  1  0
 19 26  1  0
 23 25  1  0
  2 30  1  0
  3 31  1  0
  4 32  1  0
 10 33  1  0
 10 34  1  0
 11 35  1  0
 11 36  1  0
 12 37  1  0
 12 38  1  0
 13 39  1  0
 13 40  1  0
 14 41  1  0
 14 42  1  0
 15 43  1  0
 16 44  1  6
 17 45  1  6
 18 46  1  1
 21 47  1  0
 21 48  1  0
 21 49  1  0
 22 50  1  0
 22 51  1  0
 22 52  1  0
 23 53  1  0
 23 54  1  0
 26 55  1  0
 27 56  1  0
 27 57  1  0
 29 58  1  0
M  CHG  1  26   1
M  END
>  <OMEGA_C>  (16) 
0j2YQDJCIsD34qPBH83LQNasyL8AcrDB04fhQEwU8b5CtrTBdHilQO37Ab7RCaTBGvetQLrOsr82
K6jBMJnYQOZbST/NorDBGe+6QM6CdT/UXajBGWHQQDt2KUBsgprBIhaKQH2HUkCuCpjBP4HsQG72
BUCsyrPBQiT7QHzw+D+ypoPBNMLtQN7oJUAlp3LBx3KoQB20XEBUqrfB6nriQFDgjkAUYKzB76LN
QCVeGUCAJILBHWK4QIL2hkD3icHB4qXzQJA9p0AKKrbBoL3PQEI7sECsRb7B05S4QBLtGUBDOKXB
kPDLQNXXSECGQK/BIrKSQKy2kECGA8nBk84EQYqa0EAkgrLBTZq8QMnhZUDyT4jB75qGQAxoXcCb
aKDBdoaxQHklTUDXNpPBUGyMQPsJNECYh6LBcCNKQIFocEAfepPBdsL1QNDPGUDqepjB1EnhQM46
w0D+rsfBGHrSQGzJI8A4nrPBm8X4QCMEG78NEbvBv76OQOAkXDyBj53BmOkFQZKRC0Dn56/Basjw
QAQGCkCVcrzBadMHQTPJIEBb9YjB47QAQd4yYT+qkIPB2BHrQE0L+z8JomTBX1D5QMb5ZUDIb2/B
UXCPQJXZgUD+4LPBBNqYQCdUIUBqRrrBhFn9QHLgiEA48KbBr/TLQMx7o0BwBKjB/nS1QHTz0D+v
CYHBQHrOQPyxZUD2I8bBIy4GQV/Rk0BvF7rB3KK4QGrtxkAB3rrB4Cx3QFCwpEBI3cTBLYGDQJ/o
ZUDgacvBFUmeQBtsoUAQEtDB92zyQLQZ5UDbi67B8V4LQRQt4UDgaLnBBKgRQSTsyEB+96zBMSag
QCY9f0DPTYTBe7rUQHdWjEAlfojB67JkQPE0MEADYafB00xMQA48gkBF8YvB+0MVQPvUcECa4ZfB
ntn0QKJkrkD4sMrBrqKYQCw/GMD34qPB+jHMQMumtL8AcrDBruzhQCD8oL5CtrTBT92lQGGj8TzS
CaTB9VuuQK/Inr83K6jBC/7YQPxncT/NorDB9FO7QHLHjj/UXajB9MXQQEF5M0BsgprB/nqKQIOK
XECuCpjBGubsQHT5D0CtyrPBG4n7QEN7BkCypoPBDyfuQOTrL0Akp3LBo9eoQCO3ZkBUqrfBxd/i
QNLhk0AUYKzBygfOQCthI0CAJILB+ca4QAX4i0D4icHBvgr0QBI/rEAKKrbBeyLQQMY8tUCsRb7B
r/m4QBjwI0BDOKXBbFXMQNvaUkCGQK/B/RaTQC+4lUCGA8nBAQEFQQ2c1UAlgrLBKf+8QNDkb0Dz
T4jByv+GQAZlU8CcaKDBUeuxQH8oV0DXNpPBLNGMQAENPkCYh6LBJ+1KQIhrekAfepPBUyf2QNbS
I0DqepjBr67hQFE8yED/rsfB8t7SQGfGGcA4nrPBdyr5QBrw5b4OEbvBmSOPQKfyLT6Cj53BBhwG
QZiUFUDo56/BRS3xQAkJFECWcrzB2AUIQTjMKkBb9YjBUOcAQXufhD+rkIPBtHbrQKyIB0AJomTB
ObX5QMr8b0DIb2/BLtWPQBjbhkD+4LPB4D6ZQC1XK0BqRrrBX779QPThjUA48KbBilnMQE59qEBw
BKjB2dm1QH755D+vCYHBHN/OQAK1b0D2I8bBkWAGQeLSmEBwF7rBtwe5QOzuy0AC3rrBl/Z3QNOx
qUBJ3cTBCeaDQKXrb0DgacvB8a2eQJ5tpkAQEtDB0tHyQDgb6kDbi67BXpELQZgu5kDgaLnBcdoR
QabtzUB+96zBDIugQBaghEDPTYTBVx/VQPpXkUAmfojBo3xlQPc3OkADYafBihZNQJA9h0BG8YvB
sQ0WQADYekCa4ZfBeT71QCVms0D5sMrBrOuVQMESHMBD4KLBkTTJQAO2ub94Z6/B+5/eQL0fsb7n
orPBuniiQFCw2rzP86LBrlKrQGVppb9cH6fB8lbVQOouaD9kha/B4aC3QBWbiD8WP6fBR5nMQEZT
MEAlVpnB2CCGQOATWEBY2ZbBp+DoQBQdDkDDorLBz0POQAqQxkBeEInBgdijQFB3wUAhl47BMHGk
QHTGY0Cgd7bBwC/eQHa+kkAwJavBhiqvQD8OpUAeToXBzSi0QM7KikAQUcDBiyPvQEhpq0AD6bTB
RCfLQI02tEBrAr3Bid60QAG1IEDwDaTBHgXIQLtGUEBJEK7BH2OOQPxTlEA1yMfByF4CQY7o1EC9
NrHBAY+4QEjTa0AqHIfBlIuEQCmjV8BYbZ/B7JatQMI8U0AkBpLBIZmIQEr1OUAOWqHBgfZBQFkp
dUAZRZLB7QvyQAhFIUCQUJfBYIjcQBCDx0DxZsbBzyjQQMsVHMCdm7LBH+f1QJ028b69/rnBP7WL
QKyG1T1oeJzBBhYEQf8lFEBEv67BECPtQDyFEkAkSrvB3qfqQHtlvEBaVY3BrsbSQECB4kAsEITB
F+uLQFYA2kAUTI3Bd9SjQMDks0Drj5bBKUOLQBAbhUBxqbLBWBuVQOc1KEApG7nBrRv5QFrljEDQ
tqXBcHvHQIwVp0BrxKbBb9aeQMicqkAYk3vB6m3KQF7jbUAP8MTBqgIEQatEmEA827jBtdmzQMqm
ykAZlbnBijVuQMQIqEAAncPBfup+QM7ybEAFNsrBO9SZQJQ/pUCI0s7Bjl/tQGwj6UBaO63BX9wI
QRq05UBLGbjByEAPQeBdzUD+ravBOpLaQEBPX0CGtYXBlzKmQBAGRUAecYHBgxVdQMvRNUD4M6bB
+/JDQJiAhEDAuYrBdhYNQB5CdUCLrJbB0EbwQDjlskAcbsnBrOuVQMESHMBD4KLBkTTJQAO2ub94
Z6/B+5/eQL0fsb7norPBuniiQFCw2rzP86LBrlKrQGVppb9cH6fB8lbVQOouaD9kha/B4aC3QBWb
iD8WP6fBR5nMQEZTMEAlVpnB2CCGQOATWEBY2ZbBp+DoQBQdDkDDorLBz0POQAqQxkBeEInBgdij
QFB3wUAhl47BMHGkQHTGY0Cgd7bBwC/eQHa+kkAwJavBhiqvQD8OpUAeToXBzSi0QM7KikAQUcDB
iyPvQEhpq0AD6bTBRCfLQI02tEBrAr3Bid60QAG1IEDwDaTBHgXIQLtGUEBJEK7BH2OOQPxTlEA1
yMfByF4CQY7o1EC9NrHBAY+4QEjTa0AqHIfBlIuEQCmjV8BYbZ/B7JatQMI8U0AkBpLBIZmIQEr1
OUAOWqHBgfZBQFkpdUAZRZLB7QvyQAhFIUCQUJfBYIjcQBCDx0DxZsbBzyjQQMsVHMCdm7LBH+f1
QJ028b69/rnBP7WLQKyG1T1oeJzBBhYEQf8lFEBEv67BECPtQDyFEkAkSrvB3qfqQHtlvEBaVY3B
rsbSQECB4kAsEITBF+uLQFYA2kAUTI3Bd9SjQMDks0Drj5bBKUOLQBAbhUBxqbLBWBuVQOc1KEAp
G7nBrRv5QFrljEDQtqXBcHvHQIwVp0BrxKbBb9aeQMicqkAYk3vB6m3KQF7jbUAP8MTBqgIEQatE
mEA827jBtdmzQMqmykAZlbnBijVuQMQIqEAAncPBfup+QM7ybEAFNsrBO9SZQJQ/pUCI0s7Bjl/t
QGwj6UBaO63BX9wIQRq05UBLGbjByEAPQeBdzUD+ravBOpLaQEBPX0CGtYXBlzKmQBAGRUAecYHB
gxVdQMvRNUD4M6bB+/JDQJiAhEDAuYrBdhYNQB5CdUCLrJbB0EbwQDjlskAcbsnBQOmyQKw8F8DX
ZaTBEoPhQPK6nb9RSrHB6gfzQIBOkL2mqrXBKjS4QIBomT29iaTBpknEQNp8lL+ryajB4ovmQFxH
kz/2d7HBknzJQIjMnD9w+ajB8vvaQHf/PUDHNJvB/EuTQE15WEDsL5jBPLT1QEbzIEAdtrTByKzo
QKR/vUC5zH7BXDn8QFTkukBkXorBfiatQKdzaUDVA7jBWujkQPTfmkCVHa3BsJTPQK6RqkCEgojB
UEy5QN7vjkCt98HBEFHyQA73tEAz/rbB1rfMQA5WukAy0b7BXtHCQHHrKUDcvqXBxHfSQO+/XEBB
4q/BuO2RQCrglEAAJcnB9TECQfpP4EB4cbPBQnHGQCOwdUC904jB6s2kQJe+VcAZ1aDBoF67QOkN
W0DCqJPBvOeVQCfXOkCftaLBAgpbQIOObkDuU5PB7ZgAQR4BNkCTd5nBuBjbQH4fz0DmU8jB1v7q
QGqODMB2jrTB8ucEQexnA76KMrzBkO6hQHhnDz5B453B/IMKQe3TLEByDrHBtrT4QIMLJkBqZL3B
Egz1QEBEqEDClHLBai3fQJS/3EBOAHnBfNj/QFZm2ECm0o7BC9kKQSLro0DImovBRsGSQLSIhUAu
BLTBFFmgQElDK0C/jLrBPHIAQUaWl0C946fBiPDMQJgIrUAEkKjB9Eu1QK4xvUA5tovBTsLQQPdz
ekCQwsbBKTIGQQw0pEBNIbvBctizQASGzkCgNbvBndZyQCZZpkDwy8TB4Y+FQGl/a0D/eMvBauaa
QMDApkCwQtDBwLnrQDZM8kD+R6/BQnYHQY418kBZarrBibIPQTA720A7G67B+LPiQJU9UkCHJobB
6BWsQLFhZkDnYYPBLy13QC/RMUCAXafBe/dcQHhJgUBdyovBrFslQAmvaUB0iJfBGE7wQIhrvEBk
gsvBiNeXQF+SLMDXZaTBXI/KQPKP4L9RSrHBwIrgQClRK7+mqrXB3r2mQCphmL69iaTBhNitQEbv
yL+ryajBRvzYQP86Fz/2d7HBanG8QL3fRj9w+ajB6LTUQPchHEDHNJvB5jSPQL0iSEDsL5jB5Gzt
QBpm8T8dtrTBgvrtQMclqkC5zH7BFIcAQbIkpUBkXorBWumpQMeWUkDVA7jBXPXlQGNBiECVHa3B
drzSQHJ3mkCEgojBGDW5QFzNgUCt98HBsn32QLl8oEAz/rbBYtjRQHV3qkAy0b7B/nu7QIQvDkDc
vqXBOijOQDnBPEBB4q/B3t+SQFeQjEAAJcnBqeQGQUlEyUB4cbPBGsTDQNN5WEC904jBfPqFQEUc
Z8AZ1aDBpCG3QAXJQEDCqJPBdPaPQKsVKkCftaLBZitWQHdkZ0DuU5PBMiH6QPu/CkCTd5nBFq/i
QNtQvUDmU8jB+ifQQCXYL8B2jrTBWOv2QOGNUL+KMrzBBOaQQHRvFr5B453Bi58GQbJ5+T9yDrHB
HLjwQGwG+j9qZL3BUqH3QG2Mk0DClHLBHmvoQPlUykBOAHnBKiYEQRD6wUCm0o7BxL4LQUMyi0DI
movBHMyRQLl5ekAuBLTBslyZQDgLGEC/jLrBNKkAQTmIgUC946fBgmvQQB89nUAEkKjBAvW6QPIy
sEA5tovBTkzOQBSnWkCQwsbBiSUHQSehjEBNIbvB9qi7QCyTwUCgNbvBhW15QOruoEDwy8TB6sCC
QBlpXkD/eMvB5PydQMgxnUCwQtDBAon3QAMq3kD+R6/B5zkNQTq52UBZarrBR/oTQZHiwEA7G67B
Lp7dQJNPLkCHJobBQKqoQEXOT0DnYYPBY5RqQLejJ0CAXafBzI5aQIkEe0BdyovBSEwgQAEyaUB0
iJfBsGr1QDoiqEBkgsvBei5/QAKMLcBD4KLBzYW2QC0p+L94Z6/BaVLQQBLqbb/norPB2fyVQESn
vb7P86LBQIuZQOme1L9cH6fBeUjMQDx2sz5kha/BJnuvQI0PIT8WP6fBXD3LQJr6DUAlVpnBfeuH
QPiRR0BY2ZbBwBPlQK6FyT/DorLBCSDbQNpAtEBeEInBJmewQAqrtEAhl47BGrymQJBaS0Cgd7bB
tjvkQP6gfUAwJavBT/e3QAsJl0AeToXBG4i5QNSxeEAQUcDBajn4QBwXlUAD6bTBhqzVQEJ1okBr
Ar3BlLOyQBGcBEDwDaTBQMLIQArYLkBJEK7B2k2VQGCsikA1yMfBcn8JQcZ0u0C9NrHByjO7QFQm
TkAqHIfBpApVQDgiZMBYbZ/BYr2uQGSYOEAkBpLBdW2IQLQQKUAOWqHBbOpJQFb9bUAZRZLBjGfv
QEHJ6j+QUJfBdGXpQPFas0DxZsbBwVe5QFCTPMCdm7LBnePmQKHZkr+9/rnBnuh/QPhpGL5oeJzB
8D8CQUdaxT9Ev67ByJXpQNcQ0D8kSrvB6Pf1QPuCpkBaVY3BfjPjQHphz0AsEITBodabQFsV0EAU
TI3BMKOuQP81p0Drj5bBKD6QQDb2d0BxqbLBErCTQIw9FEApG7nBHC3+QLAWa0DQtqXBOVfQQHnp
lUBrxKbBgX2oQJ+mnkAYk3vBjw7NQF6WS0AP8MTBHzcHQVrMfUA827jBUnXBQKq2u0AZlbnBo8GA
QH03oUAAncPBj6aCQJz8XUAFNsrB9tSiQDD6mUCI0s7Bem7+QKSH0kBaO63BUwQRQQBwykBLGbjB
d8kVQdKnsED+ravBzh/cQOT3OECGtYXBSX6mQP9nLEAecYHB6KRcQP6tK0D4M6bBknFOQJ20gEDA
uYrBiX4VQAbndECLrJbBRFH6QIJdnEAcbsnBei5/QAKMLcBD4KLBzYW2QC0p+L94Z6/BaVLQQBLq
bb/norPB2fyVQESnvb7P86LBQIuZQOme1L9cH6fBeUjMQDx2sz5kha/BJnuvQI0PIT8WP6fBXD3L
QJr6DUAlVpnBfeuHQPiRR0BY2ZbBwBPlQK6FyT/DorLBCSDbQNpAtEBeEInBJmewQAqrtEAhl47B
GrymQJBaS0Cgd7bBtjvkQP6gfUAwJavBT/e3QAsJl0AeToXBG4i5QNSxeEAQUcDBajn4QBwXlUAD
6bTBhqzVQEJ1okBrAr3BlLOyQBGcBEDwDaTBQMLIQArYLkBJEK7B2k2VQGCsikA1yMfBcn8JQcZ0
u0C9NrHByjO7QFQmTkAqHIfBpApVQDgiZMBYbZ/BYr2uQGSYOEAkBpLBdW2IQLQQKUAOWqHBbOpJ
QFb9bUAZRZLBjGfvQEHJ6j+QUJfBdGXpQPFas0DxZsbBwVe5QFCTPMCdm7LBnePmQKHZkr+9/rnB
nuh/QPhpGL5oeJzB8D8CQUdaxT9Ev67ByJXpQNcQ0D8kSrvB6Pf1QPuCpkBaVY3BfjPjQHphz0As
EITBodabQFsV0EAUTI3BMKOuQP81p0Drj5bBKD6QQDb2d0BxqbLBErCTQIw9FEApG7nBHC3+QLAW
a0DQtqXBOVfQQHnplUBrxKbBgX2oQJ+mnkAYk3vBjw7NQF6WS0AP8MTBHzcHQVrMfUA827jBUnXB
QKq2u0AZlbnBo8GAQH03oUAAncPBj6aCQJz8XUAFNsrB9tSiQDD6mUCI0s7Bem7+QKSH0kBaO63B
UwQRQQBwykBLGbjBd8kVQdKnsED+ravBzh/cQOT3OECGtYXBSX6mQP9nLEAecYHB6KRcQP6tK0D4
M6bBknFOQJ20gEDAuYrBiX4VQAbndECLrJbBRFH6QIJdnEAcbsnB

>  <OMEGA_E>  (16) 
swKEwRj/g8FnpIPBZ6SDwThRgsFoIYHBiBt5wYgbecE=

>  <OMEGA_NBR>  (16) 
    102684

$$$$
298716
     RDKit          3D

 61 65  0  0  1  0  0  0  0  0999 V2000
    5.2587   -2.2314  -19.8171 C   0  0  0  0  0  0  0  0  0  0  0  0
    6.4710   -1.3039  -21.7618 C   0  0  0  0  0  0  0  0  0  0  0  0
    7.0011   -0.1923  -22.4543 C   0  0  0  0  0  0  0  0  0  0  0  0
    5.3363    0.1783  -20.1773 C   0  0  0  0  0  0  0  0  0  0  0  0
    5.6743   -1.1165  -20.6033 C   0  0  0  0  0  0  0  0  0  0  0  0
    6.7195    1.0992  -21.9862 C   0  0  0  0  0  0  0  0  0  0  0  0
    5.8485    1.2634  -20.8976 C   0  0  0  0  0  0  0  0  0  0  0  0
    6.4449    2.8615  -19.1934 C   0  0  0  0  0  0  0  0  0  0  0  0
    4.2154    3.3324  -18.9353 C   0  0  0  0  0  0  0  0  0  0  0  0
    7.3016    2.4397  -22.3269 C   0  0  0  0  0  0  0  0  0  0  0  0
    5.1872    3.8307  -22.7056 C   0  0  0  0  0  0  0  0  0  0  0  0
    7.0644    4.7740  -21.3113 C   0  0  0  0  0  0  0  0  0  0  0  0
    7.0944    5.4248  -17.0664 C   0  0  0  0  0  0  0  0  0  0  0  0
    6.1724    5.1456  -15.2012 C   0  0  0  0  0  0  0  0  0  0  0  0
    5.6926    4.5445  -23.9595 C   0  0  2  0  0  0  0  0  0  0  0  0
    7.6548    5.4520  -22.5581 C   0  0  1  0  0  0  0  0  0  0  0  0
    5.7636    4.7761  -16.6265 C   0  0  0  0  0  0  0  0  0  0  0  0
    6.5467    5.7777  -23.5861 C   0  0  1  0  0  0  0  0  0  0  0  0
    5.7336    2.7029  -20.5073 C   0  0  1  0  0  0  0  0  0  0  0  0
    6.3290    3.4734  -21.7102 C   0  0  2  0  0  0  0  0  0  0  0  0
    7.6481    5.1170  -15.6613 C   0  0  0  0  0  0  0  0  0  0  0  0
    4.4658    4.9709  -24.7811 C   0  0  0  0  0  0  0  0  0  0  0  0
    8.3780    6.7391  -22.1259 C   0  0  0  0  0  0  0  0  0  0  0  0
    5.6132    3.2654  -16.8697 C   0  0  0  0  0  0  0  0  0  0  0  0
    4.9256   -3.1292  -19.1526 N   0  0  0  0  0  0  0  0  0  0  0  0
    5.4186    3.0450  -18.2840 N   0  0  0  0  0  0  0  0  0  0  0  0
    4.3423    3.0683  -20.2061 N   0  0  0  0  0  0  0  0  0  0  0  0
    3.0507    3.7928  -18.3400 N   0  0  0  0  0  0  0  0  0  0  0  0
    7.6254    2.6246  -18.9551 O   0  0  0  0  0  0  0  0  0  0  0  0
    7.1679    6.2603  -24.7710 O   0  0  0  0  0  0  0  0  0  0  0  0
    8.2598    3.9031  -15.5434 F   0  0  0  0  0  0  0  0  0  0  0  0
    8.3895    6.1262  -15.1432 F   0  0  0  0  0  0  0  0  0  0  0  0
    6.6739   -2.3034  -22.1170 H   0  0  0  0  0  0  0  0  0  0  0  0
    7.6146   -0.3352  -23.3316 H   0  0  0  0  0  0  0  0  0  0  0  0
    4.6995    0.3322  -19.3187 H   0  0  0  0  0  0  0  0  0  0  0  0
    8.3056    2.5464  -21.8903 H   0  0  0  0  0  0  0  0  0  0  0  0
    7.3606    2.5686  -23.4177 H   0  0  0  0  0  0  0  0  0  0  0  0
    4.4681    4.4873  -22.1938 H   0  0  0  0  0  0  0  0  0  0  0  0
    4.6831    2.9015  -23.0098 H   0  0  0  0  0  0  0  0  0  0  0  0
    7.8766    4.5320  -20.6100 H   0  0  0  0  0  0  0  0  0  0  0  0
    6.3537    5.4596  -20.8267 H   0  0  0  0  0  0  0  0  0  0  0  0
    7.6093    4.9006  -17.8850 H   0  0  0  0  0  0  0  0  0  0  0  0
    7.0233    6.4963  -17.3045 H   0  0  0  0  0  0  0  0  0  0  0  0
    5.8188    6.1325  -14.8678 H   0  0  0  0  0  0  0  0  0  0  0  0
    5.9171    4.3896  -14.4441 H   0  0  0  0  0  0  0  0  0  0  0  0
    6.3036    3.8491  -24.5538 H   0  0  0  0  0  0  0  0  0  0  0  0
    8.3832    4.7720  -23.0239 H   0  0  0  0  0  0  0  0  0  0  0  0
    4.8885    5.3447  -16.9740 H   0  0  0  0  0  0  0  0  0  0  0  0
    5.8863    6.5471  -23.1597 H   0  0  0  0  0  0  0  0  0  0  0  0
    4.7968    5.4891  -25.6932 H   0  0  0  0  0  0  0  0  0  0  0  0
    3.8819    4.0804  -25.0569 H   0  0  0  0  0  0  0  0  0  0  0  0
    3.8403    5.6482  -24.1812 H   0  0  0  0  0  0  0  0  0  0  0  0
    8.8055    7.2346  -23.0101 H   0  0  0  0  0  0  0  0  0  0  0  0
    7.6614    7.4157  -21.6372 H   0  0  0  0  0  0  0  0  0  0  0  0
    9.1841    6.4875  -21.4210 H   0  0  0  0  0  0  0  0  0  0  0  0
    6.5216    2.7434  -16.5346 H   0  0  0  0  0  0  0  0  0  0  0  0
    4.7447    2.8846  -16.3121 H   0  0  0  0  0  0  0  0  0  0  0  0
    3.6019    3.1086  -20.8770 H   0  0  0  0  0  0  0  0  0  0  0  0
    2.2321    3.9440  -18.8940 H   0  0  0  0  0  0  0  0  0  0  0  0
    3.0295    3.9736  -17.3567 H   0  0  0  0  0  0  0  0  0  0  0  0
    7.6991    7.0201  -24.5637 H   0  0  0  0  0  0  0  0  0  0  0  0
  1  5  1  0
  1 25  3  0
  2  3  2  0
  2  5  1  0
  3  6  1  0
  4  5  2  0
  4  7  1  0
  6  7  2  0
  6 10  1  0
  7 19  1  0
 19  8  1  1
  8 26  1  0
  8 29  2  0
  9 26  1  0
  9 27  2  0
  9 28  1  0
 20 10  1  6
 11 15  1  0
 11 20  1  0
 12 16  1  0
 12 20  1  0
 13 17  1  0
 13 21  1  0
 14 17  1  0
 14 21  1  0
 15 18  1  0
 15 22  1  0
 16 18  1  0
 16 23  1  0
 17 24  1  0
 18 30  1  0
 19 20  1  0
 19 27  1  0
 21 31  1  0
 21 32  1  0
 24 26  1  0
  2 33  1  0
  3 34  1  0
  4 35  1  0
 10 36  1  0
 10 37  1  0
 11 38  1  0
 11 39  1  0
 12 40  1  0
 12 41  1  0
 13 42  1  0
 13 43  1  0
 14 44  1  0
 14 45  1  0
 15 46  1  6
 16 47  1  6
 17 48  1  0
 18 49  1  1
 22 50  1  0
 22 51  1  0
 22 52  1  0
 23 53  1  0
 23 54  1  0
 23 55  1  0
 24 56  1  0
 24 57  1  0
 27 58  1  0
 28 59  1  0
 28 60  1  0
 30 61  1  0
M  CHG  1  27   1
M  END
>  <OMEGA_C>  (17) 
C0eoQMnPDsBaiZ7BjxLPQHzlpr8WGK7BXgngQKDnRL5korPB6sKqQKSaNj4ra6HBg5O1QATqjr+h
06TBvgXXQBS0jD/T46/BiCa7QHq2oT86LqfBwDzOQIciN0AkjJnBfOSGQGFFVUBze5fB/qbpQFkj
HECInbLBPv2lQKkqdUD8pLXBwg/iQI/EmEB3farBegXjQMiXrUDqh4jBl4TFQBSppEAUOHPBHiq2
QNtskUAUrb/B3vP0QCV3rkD+drTBlG+4QGjVmEASA4XB5H7RQK3iuEBSsLzBDHq3QLv7LEDrDqTB
bIfKQN9LXkCCrq3BMb30QC++o0CJlHrB/eeOQIMRn0DFP8bBGgwGQW+m10DoAbHB+Z6zQIn7UEAl
9YbB356dQFlFSMCaOJnBJGWtQMnhQkCaRZLBVPSKQHlfREAWpqHBDD9DQP+8ckBduJLBGAP0QIH5
J0AOpJfBIV/lQFBUyED6KsbBMSgEQanLeUCpsXjBmDsGQTkKxEBgSnLBs5DVQOZqE8Ca77DBfKrz
QGilq74ip7rBoWKWQCkcqj6vjJrBuuMEQYD3IkA/H6/BWorrQD1jJECLV7vBzPqOQKCXj0DSjLHB
XdyVQHeyOUD8E7jBYA38QDsGkUBL4aTBaVHLQMy0rkAAnabBd3/zQN7RnEB0FI/B8L7gQPjhz0Cg
b4rB8TO6QCQ9xECC4m3ByVi9QOF3jEDbGmfBubbJQFRYdkA7bsTBkyEGQXC0mEDzMLjBZ26cQN0H
q0C8yofB2ly8QC2C0UAkR7nBM3+ZQNmmr0C6i83B3HB4QKWSgkCVdMjB98Z1QEa+tEAkc8HBaOMM
QYCB50CYFLjBiyr1QBFN7UAIGa3BAfISQX2Zz0BNXqvBEbHQQKSUL0DIRoTB+dSXQHidOEA1f4LB
zYRmQH7zRkANBKfB+tkOQElqfED2JpfB3uJBQOpPfkCa2orBqV72QOqk4EBmgsTBB3KbQEP7E8DW
mqPBbJPPQOj9or8n1a/BX/rkQOx1Cb6L1bPBSJqmQAqfAD7qWKPBsouwQIy7kr9LnqfBIdPaQIc7
kT+xsq/Bxr67QO/ynz81k6fBGkfOQICuOUAaZpnBtS2HQA7lXECdZZfB8oLsQOy/IEBvArLB+tWm
QKrjcEB2crbB7F7eQCesm0AQhqrBvDa6QPQFykBCWI3BkdTLQJFtwEAXmXrBaGS3QFwIkkAXRcDB
n67wQIcZtEDXR7TBoc+sQHSOqEDX2oTBCfLMQGB4vECJq7zBKhi3QI9xLECABaTBQizKQFjpX0Ch
vq3ByZLkQNyk0EAFQYfB4WmRQLxUm0CY3sfB2TsCQYq33kAmX7DBIku4QED/cUCULYfB6k2KQNTv
UMDaWaDBwIyvQLp5WUDdZ5LBY1iKQO+0QkBEYaHB+E9CQMTBd0ChrpLBEO3zQMFqKkAQYJfBeNXe
QJN60UB1zcXBWokCQQWrtkCYhIrBqajwQIZd+kDcmobBbufWQF3uD8AeDrPBPOr8QMFYcr4ZA7rB
oGGPQJIIbT4sAZ3Bso0FQa1WKkCR063Bxj7xQKaOKUDoqLrBaqiMQGalikDkt7LBl56aQMnTMkBb
Q7nBf2z4QOzLlUCWyqTBtZ3FQN6Lr0DHuKbB4hC+QJX4vEDidZXBzpSlQJCE5kDuo43BxMa8QPHh
2UBiDXHBWoreQHhoq0B1BnDBCSXPQCPxfEAZi8TBWfQEQeGSoEAXALjB4jWLQBJVrEB6aILBi2a0
QDbl0ECO97jBet+cQBtzrUBf2c7B/0WDQDLgeUD5jcrBNy1yQMA1rkADm8PBwcsIQXZc8EA/PrfB
aZ/rQFAl8kDVdqzBVyAPQTDx10AqoKrB94faQKxKaECOiIXBijqlQIfRSEBx3YHBspdjQI50PkDq
e6bBBRAMQKTrd0Av7ZbBMeZBQIdzhUB2DIvB7QrsQAly60CmocPBgMihQJj7FcCC8KHBHOfUQHoF
pr/ZY67BsLToQAgEGr7Zv7LB7b2oQFja2T1SpKLBGCa1QDLslb99WabBzR/cQJ7Hjz+ILK/BaQS8
QBgxnj9TS6fBpnDNQGDDOkCsupnBWRuHQJB+X0CKbZfBsBrsQHawIEDH3rHBhValQIxwa0BynrbB
jIzbQBPpm0DDzqrBgNAEQci+VkCoD4PByL/vQG0HnUBZMXTBg2O1QDuwjkBfkcDBShztQMILtEBN
trTBZV3mQFsMjUAeiYXBLVnJQBo2ukAKOL3BKtu1QDbYK0DbEKTBqqPIQN6SXkD82K3BHQAPQY5A
jEBqRnfBnF+PQBC3lUDqS8jB8VL/QN7A30DkFrHBx5G4QHAtdkArZ4fBHv6RQKQ/U8DDXZ7B+1Sw
QALYYUBN1JLBbUmJQBROQUA2QqHB+kdCQKxueEDDg5LBae3yQH6mJ0BsTJjBWc7aQGC+zkCoeMbB
zN8XQfiudEComWXBw3EcQQMGqEDttoDB6ATeQNTEEcAQNLHBf6MAQXSHgL6GxbjBchWRQNdZWT6e
ZpzBmkQFQcWsLUCawa3BMJnwQFt4J0CUjrrBPomKQJuFh0DSDLPB9R+aQNQVLEBCPbnBj8T1QLNB
l0BuDaXBhDfCQAFVr0A5GafBowT+QNeaHEC9En7ByrgOQemyREDO+YnBsS/tQIHhv0AGFXLBsHTd
QOTEjEAni2fBBfXNQHr1dkAQpsTBLI4DQRQQoUBrRbjBuiLwQIsLpEDnu4vBDwCwQNsxzkBbtbnB
C2iaQK5op0DnYs/BIWuCQOIPbUDwx8rBeX9sQJUyqEC4N8TBj+4FQZoa8UAtE7jBY8TlQCWy8kB9
Uq3B5qQMQd+I2kDkSqvBPLa0QHVoO0Cup4LBLyKhQIEZk0ACvoTBj2RgQFP3OUB0I6bB8NsKQPPn
c0CreZbBzyNDQG9wh0AMBovBbg/nQAlj6UAfeMTBJuKLQCDHEcD0IZzBiAbCQAAf1r8WnKnBpGPa
QAAwNL9eIa/BzA6eQACxsj0kQ5/BdAGkQNACpL+Ws6HBqjrUQEC8KD8R0azBpiG2QBDThD+Y+qTB
7izOQEihOkCUSZnBWkCJQGDmbUBCOZjBC73pQBA99D9p/rDByL2nQFhwT0BLH7fB+B/jQMBfjUA7
3azBoBLXQLgvy0Di3H3BoGKqQET810BiBYvBYO25QNDBcEDo6MHBVa32QPgCnUC4krfB/G7MQHiw
tEDElYnBtE7TQDiSokDwNMDBCPK1QAj2IkAKfaPBQLXKQKBhREDaK67BoOrGQOhD9UCoCITBLIGU
QHANf0AE08nBTDcHQai6x0AfnLXBLCe7QPyPhkA+eYjBoI9wQEDzRcDpm5fBRPewQHj2ZkA0/ZLB
OI+KQNDdREDxa6HBjElKQHyqi0AYSZTBtx3zQEAHKEDO6pbBBm/mQJwyr0AYHsrBBJ6wQP5UB0GK
WXrB0lPlQPCbBUEdmonBWkvGQCoYLsATbavBL4jxQIzYgL+QErXBPJ6HQFkmyj5ZK5nBN3IEQSmY
A0CKEq3BpFbuQJTe6z/gs7nBT5WPQOo1fUDtQLTBmY2YQO7wEECUiLjBzQ79QL//iEDgA6fBQ6nM
QEXEpUCK6anBTS/EQEwSwEAWF3DBQT/5QAgty0AopXnBlyKmQCX+4kDYT5PBWviKQOV10ECDhofB
CKTPQJEqQEAWPcXBIOwGQccKhUAhZrrB9IrmQKEgt0CcdI/Bed+8QFJeu0Bvdb3BWCShQIhVi0Ag
fdHBXJaDQN40QkBYIcvBGFt8QNk3l0AmesbB+TcOQRQd00A+Kr3BNrn3QFi230AUkbLBcwMUQfe9
wkDdsq/BuIXTQD2AZUDxf4TByOydQO4vh0CAkoPBWSxjQCWgPUBgV6bB/PQTQPuNi0CDg5jBtbJM
QNCrmkDbOY3B0f/1QEoAyUCnHcnB/cioQCyeEMA4iJ7BmtrQQGqcqL8Xyq3BgKfhQNRpT743TLPB
OFarQHxUIj5LQKHB7qy2QNRbkb/0oqTBo7jXQCQXiz8Uqa/BjXO7QODCnz+fBKfBvkjOQNDhOEAq
q5nBzSeHQJTkWUDwfZfBl8bpQLpyG0DKeLLBRhCmQIjmc0BCprXBWN/hQCaRmEBcf6rB4BzgQPwB
jEDFwG/B4AfbQK+esUCNlIXByJm2QMWPkEC/sb/Bl3r1QARrrUD/fLTB4yfcQM/9gECisoPBVFXS
QAnlt0BPxbzBERm3QK5sLEB+/6PByVTKQBSEXUBEoa3BgZP4QEk2tEANbXfBy4mPQA9snkD2S8bB
jasGQe5P1kA1IrHBz++zQMqtUUAw5YbB+omdQIXSSsBdbJnBYCuvQLCQVEBSgZLBWJ+KQDyrQ0Al
iKHBXhJCQGqzcUBYqZLB4r3zQAg1JUDWDJjBEJ7mQF/PxkCVP8bBcfDxQN8D10BR62rBz2cRQYpp
rUAfAnzBFvzXQOcwFMB6kLDBA+D1QIaKrr5tN7rBdM2WQBdEnT5yZ5rBqe0EQWg/I0Dm+67B7KLr
QMcMI0BANbvB5PCOQIEQj0AeobHBCACWQGlQOECuELjBG3T7QAcakUB6v6TBUfrKQJrerkCOz6bB
n6XBQKBykkDbi2fBcCTzQFetakD2OWbB4XfpQMxqvEByI43BgnG7QPGkwEA6mITBAPfJQB8TdECI
asTBiTkGQVIFl0DnG7jB+mb5QNtrZEBC6YbB0mO9QLvc0EDCcbnBy1OaQOvVrkBpmc3BD055QOcL
gkBCfsjByUl3QBpPtECKhsHBzcENQUWB5UCrPLjBbb/2QO+f7ED5Va3B7WkTQRcQzkDXbKvBM322
QByxDkDJQ4TBQuqXQHGZb0CMGoPBAvZkQG6hQkD9x6bB9NwLQCWSckCo6ZbBzUlBQHoAgUAQ7YrB
FtP3QJUA30DUnMTBRDqpQLDeDsAdkp7Bg3LPQEs6pr/GNK7BMyrgQAi7O77pv7PB8RurQLzlMz72
faHBtR+2QCfqjr+A56TBQxTXQFKmjT/++a/BQzi7QIfjoT93QqfBAtTNQPxbNUDzfZnBd66GQOpE
U0CAdJfB5qjpQPC7HEBCr7LBiJWmQNamd0A3j7XBBvjiQGWSmEA/O6rBjgbrQMAko0DoO4nBlrPK
QCZtpEBQOXXB0AO3QMG4k0Blbb/BacT1QCEmr0D5F7TBZXa9QH1zlkBLz4XB+v7RQKH6ukCbGbzB
UXq3QOraLEBJEaTBJejKQODsXkCRnK3B+8HpQBzfw0CZIYDBAfGPQOa0oUCsBsbB/eQGQZl/10A8
Z7DBlRqzQJQ4TkBN6obBlN+eQE5CSMDINJnBlqWsQJxUPUCRMJLB7fOKQCQ7REATq6HBVepDQBCf
c0A+t5LBU8HzQEyAJ0BtoZfBjFblQMduzEDsbcXBA9cHQecgyECv6nXB5snXQCf66UB09YLBOADW
QKf8EsCxErHBY6vzQLcNpb5+y7rBKMaWQG2hpj4InJrBJfsEQSc1I0B5SK/BwiPrQIRoJUDjaLvB
VYOPQI5vkEB7XLHB3naWQMLGPEBkNrjBwhH9QOoHkEABuqTBrI/MQPlSrkDPK6bBFZcBQbrPiUCH
TYjBSHHtQBYCsUDPTJHBZzCxQESos0CgyWvB4jvaQNxqi0Brk2vBw+rKQAoVfEBEQcTBokEGQXh0
mUAHDrjBKM2kQEY/q0DAVInBScS8QAew0kDrVrjBAbqaQJUGs0ByMs3Behd7QGdMhUDqccjBtSV3
QFDNtkBuKMHBFbQNQcL150ClZbfBTm73QCIP7UBIQ6zBp9oTQZRVzkBT6KrBOdXNQIxyJ0C93YPB
lduVQAvbPkAXaYLBC9BmQNQMSECFEKfBWKkQQGCNgEBYM5fBHjZCQAp3fUBZ0IrBJBP2QLqj5EA1
hsPB0gqhQC3UCcDPQp7BlVXJQOjUp7+H6K3BmzLcQD5ocL51grPB4a+nQCJbdj4xUqHBTjKwQAlB
ib8WqKTBCHfVQIlaiT8I1a/BaiK6QE4/pT8PGafBi/XOQME+OEADeZnB1AiHQJSdUkBDipfBuETq
QHkKGEAkq7LBKU6pQEWTeECRzbXBMSnnQL1al0AH06rBPGqoQH8+v0AJOY7B0gHoQOeCsUCtVIrB
4Mu6QPKCkUCo9L/BrY37QHPpqkBh7bTB5zS9QDF6oECP84XBntTYQHc8t0DWLb3BEJm4QNsvL0Da
FaTBkRXNQH31XUBZza3B2QrQQPOm20Ceu4zBlHCUQC9foUAKjMbBQ98KQX+M0kCutbHBi/W0QN7Z
X0BhGofBnOCUQFNNQcAW0pjBLiSuQEYIRkAtNpLBimaMQLNRSUCQ1aHBhhVCQLumbUCY6ZLByp70
QLXkKEAjeJfBoY/tQP24xEARvsbBbh7dQIg970C/4ZXB5D/NQPC/9kA0PITBDhfOQIaoFMDbsLDB
P4bvQGlf1b7XhbrBYHiTQAqh3j7xfJrBYEoFQbCqG0AlNa/BY0HsQM9fH0ATaLvBQruTQLf3kkAi
x7HBlkeXQAkEP0CHHrjBQkUAQVuHjkDUI6XB5MrRQCMKr0CjGqfBVo+kQITQsUDETJbBPhWKQGDM
zUBxoovBEdsAQVY/tECSW4TBZCH0QEaaoEDTbZHB/a/MQKZlc0A4pcTB9I8IQeQuk0BOjrjBNn+3
QExpq0A4a3vB13vFQMB20UC72rnBFwCgQOTOsECi6M3BXLt/QIwQhkDKo8jBRPuBQEWYuEBez8HB
3jcSQXC94EBc4LjB6UYAQUYr6kCn5q3BqXwXQa0WyUAaDKzBi8zQQPoAPUDT74PB+lmYQOoIT0Al
bYLB+H9rQJOgUkA8XafBspQPQNBAe0DghZfBq8k9QB6Mc0Dx9orBaxgAQdDu20CXMcXB

>  <OMEGA_E>  (17) 
aQ2DPwOHjD/zk4s/4cOKPxrygz+WcYM/0qyCPw==

>  <OMEGA_NBR>  (17) 
    111268

$$$$
298718
     RDKit          3D

 63 67  0  0  1  0  0  0  0  0999 V2000
    5.0910   -2.2627  -19.9144 C   0  0  0  0  0  0  0  0  0  0  0  0
    6.3685   -1.3340  -21.8103 C   0  0  0  0  0  0  0  0  0  0  0  0
    6.9391   -0.2294  -22.4779 C   0  0  0  0  0  0  0  0  0  0  0  0
    7.3311    5.2704  -16.8058 C   0  0  0  0  0  0  0  0  0  0  0  0
    5.3101    0.1563  -20.1746 C   0  0  0  0  0  0  0  0  0  0  0  0
    5.0192    5.7734  -16.2912 C   0  0  0  0  0  0  0  0  0  0  0  0
    7.6336    6.6311  -16.6173 C   0  0  0  0  0  0  0  0  0  0  0  0
    5.5814   -1.1417  -20.6462 C   0  0  0  0  0  0  0  0  0  0  0  0
    6.7057    1.0605  -21.9802 C   0  0  0  0  0  0  0  0  0  0  0  0
    5.8680    1.2376  -20.8661 C   0  0  0  0  0  0  0  0  0  0  0  0
    6.0086    4.8321  -16.6239 C   0  0  0  0  0  0  0  0  0  0  0  0
    5.3895    7.1236  -16.1062 C   0  0  0  0  0  0  0  0  0  0  0  0
    6.4687    2.9152  -19.1779 C   0  0  0  0  0  0  0  0  0  0  0  0
    4.2306    3.3557  -18.9276 C   0  0  0  0  0  0  0  0  0  0  0  0
    7.3000    2.3865  -22.3293 C   0  0  0  0  0  0  0  0  0  0  0  0
    5.1803    3.7691  -22.7173 C   0  0  0  0  0  0  0  0  0  0  0  0
    7.0797    4.7422  -21.3848 C   0  0  0  0  0  0  0  0  0  0  0  0
    5.6741    4.4328  -24.0067 C   0  0  2  0  0  0  0  0  0  0  0  0
    7.6784    5.3520  -22.6635 C   0  0  1  0  0  0  0  0  0  0  0  0
    6.5741    5.6539  -23.7018 C   0  0  1  0  0  0  0  0  0  0  0  0
    5.7551    2.6902  -20.4905 C   0  0  1  0  0  0  0  0  0  0  0  0
    6.3340    3.4334  -21.7259 C   0  0  2  0  0  0  0  0  0  0  0  0
    4.3590    8.1212  -15.6200 C   0  0  0  0  0  0  0  0  0  0  0  0
    4.4404    4.8721  -24.8116 C   0  0  0  0  0  0  0  0  0  0  0  0
    8.4292    6.6405  -22.2915 C   0  0  0  0  0  0  0  0  0  0  0  0
    5.6528    3.3880  -16.8427 C   0  0  0  0  0  0  0  0  0  0  0  0
    4.6945   -3.1711  -19.3014 N   0  0  0  0  0  0  0  0  0  0  0  0
    6.6781    7.5241  -16.2618 N   0  0  0  0  0  0  0  0  0  0  0  0
    5.4504    3.1565  -18.2698 N   0  0  0  0  0  0  0  0  0  0  0  0
    4.3603    3.0492  -20.1916 N   0  0  0  0  0  0  0  0  0  0  0  0
    3.0463    3.7838  -18.3497 N   0  0  0  0  0  0  0  0  0  0  0  0
    7.6578    2.7385  -18.9353 O   0  0  0  0  0  0  0  0  0  0  0  0
    7.2051    6.0523  -24.9135 O   0  0  0  0  0  0  0  0  0  0  0  0
    6.5321   -2.3324  -22.1884 H   0  0  0  0  0  0  0  0  0  0  0  0
    7.5465   -0.3754  -23.3589 H   0  0  0  0  0  0  0  0  0  0  0  0
    8.1053    4.5717  -17.0866 H   0  0  0  0  0  0  0  0  0  0  0  0
    4.6896    0.3132  -19.3047 H   0  0  0  0  0  0  0  0  0  0  0  0
    3.9893    5.4682  -16.1786 H   0  0  0  0  0  0  0  0  0  0  0  0
    8.6488    6.9715  -16.7589 H   0  0  0  0  0  0  0  0  0  0  0  0
    8.3030    2.4879  -21.8893 H   0  0  0  0  0  0  0  0  0  0  0  0
    7.3648    2.5051  -23.4210 H   0  0  0  0  0  0  0  0  0  0  0  0
    4.4769    4.4520  -22.2185 H   0  0  0  0  0  0  0  0  0  0  0  0
    4.6611    2.8356  -22.9800 H   0  0  0  0  0  0  0  0  0  0  0  0
    7.8880    4.5260  -20.6707 H   0  0  0  0  0  0  0  0  0  0  0  0
    6.3748    5.4571  -20.9352 H   0  0  0  0  0  0  0  0  0  0  0  0
    6.2480    3.7013  -24.5946 H   0  0  0  0  0  0  0  0  0  0  0  0
    8.3909    4.6368  -23.1004 H   0  0  0  0  0  0  0  0  0  0  0  0
    5.9423    6.4674  -23.3158 H   0  0  0  0  0  0  0  0  0  0  0  0
    4.8416    9.0953  -15.4522 H   0  0  0  0  0  0  0  0  0  0  0  0
    3.5681    8.2295  -16.3769 H   0  0  0  0  0  0  0  0  0  0  0  0
    3.9183    7.7633  -14.6779 H   0  0  0  0  0  0  0  0  0  0  0  0
    4.7641    5.3536  -25.7461 H   0  0  0  0  0  0  0  0  0  0  0  0
    3.8240    3.9920  -25.0472 H   0  0  0  0  0  0  0  0  0  0  0  0
    3.8499    5.5849  -24.2174 H   0  0  0  0  0  0  0  0  0  0  0  0
    8.8629    7.0875  -23.1982 H   0  0  0  0  0  0  0  0  0  0  0  0
    7.7290    7.3527  -21.8307 H   0  0  0  0  0  0  0  0  0  0  0  0
    9.2331    6.4035  -21.5791 H   0  0  0  0  0  0  0  0  0  0  0  0
    6.4699    2.7481  -16.4780 H   0  0  0  0  0  0  0  0  0  0  0  0
    4.7285    3.1496  -16.2961 H   0  0  0  0  0  0  0  0  0  0  0  0
    3.6169    3.0577  -20.8604 H   0  0  0  0  0  0  0  0  0  0  0  0
    2.2216    3.8743  -18.9080 H   0  0  0  0  0  0  0  0  0  0  0  0
    3.0163    4.0024  -17.3744 H   0  0  0  0  0  0  0  0  0  0  0  0
    7.7638    6.8026  -24.7482 H   0  0  0  0  0  0  0  0  0  0  0  0
  1  8  1  0
  1 27  3  0
  2  3  2  0
  2  8  1  0
  3  9  1  0
  4  7  2  0
  4 11  1  0
  5  8  2  0
  5 10  1  0
  6 11  2  0
  6 12  1  0
  7 28  1  0
  9 10  2  0
  9 15  1  0
 10 21  1  0
 11 26  1  0
 12 23  1  0
 12 28  2  0
 21 13  1  1
 13 29  1  0
 13 32  2  0
 14 29  1  0
 14 30  2  0
 14 31  1  0
 22 15  1  6
 16 18  1  0
 16 22  1  0
 17 19  1  0
 17 22  1  0
 18 20  1  0
 18 24  1  0
 19 20  1  0
 19 25  1  0
 20 33  1  0
 21 22  1  0
 21 30  1  0
 26 29  1  0
  2 34  1  0
  3 35  1  0
  4 36  1  0
  5 37  1  0
  6 38  1  0
  7 39  1  0
 15 40  1  0
 15 41  1  0
 16 42  1  0
 16 43  1  0
 17 44  1  0
 17 45  1  0
 18 46  1  6
 19 47  1  6
 20 48  1  1
 23 49  1  0
 23 50  1  0
 23 51  1  0
 24 52  1  0
 24 53  1  0
 24 54  1  0
 25 55  1  0
 25 56  1  0
 25 57  1  0
 26 58  1  0
 26 59  1  0
 30 60  1  0
 31 61  1  0
 31 62  1  0
 33 63  1  0
M  CHG  1  30   1
M  END
>  <OMEGA_C>  (18) 
YOmiQETQEMCzUJ/BosrLQIfAqr+Ie67BVQ3eQADwar6s0rPBx5jqQISnqEBEcobBbuypQBADID6N
ZaHB6pygQO2/uEBqVILBk0b0QEky1EBH8ITBPZuyQN4ikr9fK6XBE5XWQD29hz9q16/BfMa7QONp
nj+/7abBdEbAQI6gmkDP/YTB6HasQG7040B22YDB/v/OQMaSOkBtbJnBcWGHQGrDVkDHa5fBNJnp
QKi8GEBvorLBOsWlQGo4cUAGvbXB8IziQHTAl0ABFKvBTJK1QBrZjUCvDcDBZLX1QLpDq0DTTrXB
/l7SQA7ttEBfnb3BhSm4QPIsLECT7KPBC7DKQBS9W0Clzq3Bo3yLQILwAUGy63nB6xeOQNfnm0Ai
fsbB/90GQaF+1EAOVbLBE+S0QL7VWEDavYbBMDmWQOrzSsA1aZrB8bLVQLrF8EAxGILBj2muQFwD
SkB7KJLBc4eLQNYmQ0B4iKHBJPdCQBwqckA9zJLB8gz1QNpCL0CIe5fBcpDmQB6swUDDTsfBLAfR
QFJFFcC+gbHBKX3xQKk1wL703rrBa68BQbtLkkBlsYjBhRGWQC9eoD7vb5rBLlF/QFz7rkC8bYHB
TWEKQYQW30A7EobBB9kEQVM6H0A6Ha/BOqzrQKZTIEAqXrvBIkOPQC93jkCAv7HBYieVQLV6NUAW
17fBvWr8QBrVkECmXaXBj/7LQJugrkBIe6fBNe/HQDvibEDTwcTB+EAGQb1glECOzbjBCie+QAj1
zkCyhrrBAO6aQIuGEUEdPHfBOFxkQCisA0HpA4PBxsR6QN9s+ECb2GrBjHOYQOZQq0AE+M3BAb10
QCt8f0CcYMjB/WN2QFW3skAovcHBls4NQXTM4kDulbnBlVP3QENJ60A/pa7BzboTQdrpzEDtoazB
QAnPQKnhL0AF04PB10+XQBCTSUB+XoLBN3tnQOCwQ0Av4qbBQy8OQED0d0CdQ5fBFgtBQEgTgECw
/orBQ3H4QC6v2UBf/MXBBdOkQA/wEcDAYJ/BXzTMQKBoqr+It67BBdvdQMRhX76XErTBxEPAQDnn
u0DEhIrBNamqQHSqDz5Kc6HBlOr2QC8ylEBVBIHBqnLbQNDT30BOT4rB1YyzQOJ6k7+BTKXBu2jW
QP5/iD+F+q/B8Pq7QNhnnT+l+qbBW2HOQDd3lUAG0oXBYykIQW1tuUDt7IDBP73OQMrBOEBQTJnB
Si2HQJZcVUBUX5fBD0PpQGRpGUBysrLB9CulQExQcUCZnLXBLxviQAHZl0BkA6vBgoC0QCU6jkBk
7r/Bx730QJnIq0CoRrXBoPrQQN6BtUByeb3BlyK4QKZSK0CZ3qPBfVzKQBjSW0Cuv63BeGQeQQ59
t0A6RnjBCreMQMQCnECtSsbBAVsGQc4N1UARTbLBAVi0QORQWkABr4bBywOZQCReTMA+ZJrBAUcB
QfUo3kBinYXBiditQCv/RkCJBZLBrmaLQA5GQUDrdqHBvzVDQO6kc0DQ3JLBif30QKUPMEBHX5fB
EZHkQJbswkD2MMfBHYHRQBHeFMBRz7HBTM/wQKMItb4wN7vBIRmhQFXNvUDROI7BkwuXQJkPkz5I
b5rBuUMBQZD4bUBE2nrBJvLQQKpU/UDK9o3BV7YEQdLPH0AvNq/BzSPrQE2uIUBsbLvByKiOQDtL
jkCVjLHBDqmUQEx8NUADurfB10H8QP/qkEAeYqXBkJTLQA1/rkAAUafBY/rGQD8tbkCIsMTBbL4F
QQgZlUBz37jBiZ+8QEUsz0D5QLrB1WgmQTCF1kDYc3rBODkdQTA3sEAEGGfBw7InQTdPnkBsKIDB
6LmWQAmmq0CPxM3BxG5yQNNgf0CyLMjBQ3FzQA2OskCLe8HBwxcNQaCd40DykbnBNV72QMCj60AO
g67B9V0TQTNyzUBTsKzByH3FQKwsJUCY0YLBYjKVQIWEY0Cpv4LBKiFnQAviQEBGzabBTRUPQPhM
e0CDZ5fBExxBQKjrgED3EIvBszz2QE8T20CB2sXBo0qlQEaBEsA0Yp/BhHHMQP2jqr98ua7BMbDd
QBDtXr5yIbTB5bn6QIp9jkCvuYDBPXurQIAVCT7SVKHBMiHIQIpJvUAKnInBZLsLQVILsUCTMoDB
hi60QOorlL8ePaXBrULWQNRwiD8gBLDBonW8QIzfnD+O5qbBvIPSQPqslEBod4XBwUzmQA7J3kBn
u4jBWQLPQIJVOkBKV5nBNk2HQNVXV0BBa5fBcnzoQJObGUCY3rLBkySkQK1jcUD9f7XBAL/hQObL
l0CMGavBWL+yQGqkjkCG1L/BAaDzQDrrq0B6bLXBMCfPQE78tUCfZL3BRy64QHoeK0AS2KPBA83J
QDXJW0A/yK3BVVrcQBseBUFSgI3BlX6KQHJpnEA2AsbB8xEGQfjx1EAkhrLBhp+0QEOxXkCxv4bB
8D2ZQM8/TcDRfZrBYZMGQXgT2EAUKYTB2XquQJnXTUBiKJLBLVCLQGvZP0AbZqHB4rBCQFWbc0Ai
6JLBGx31QM+NL0AhZpfBV9LhQOgRxEByKcfBVcHRQPfvFMC51LHBYlPwQCeNs74UVLvB5b4BQSE4
X0B0DHvBUkSYQJtojj4+PprB1Y6pQP69wkCpZo3BhTkbQUphrEALG3nBoHYEQXWbIEBrka/By4zp
QJalIUCfm7vBY8CNQD4YjkCgUbHBY6qTQPOENUDonLfBaU38QCXDkEAUmaXB7n3LQApfrkAtRqfB
dw7FQMeBb0D8s8TB8fEEQbstlUABL7nBN+26QNFTz0C/97nBfxz4QAi/D0FCe4zBg0TVQJpSA0EF
E5bBGHLAQOEODEF8aYnB/PSTQM9TrEAnfs3BnwxuQAIMgECL3sfBCmFvQOy1skBDFcHBXIcMQW+X
40By2LnBak32QBuX60CHk67B700TQeIFzUBHEq3Bq3XCQFfbJUAr4ILBRaKVQODPbUASB4PBgXNm
QFZuPEDnpabBnZ4NQP3zdkC6W5fBZvpAQDBUgkDqMovB2G7zQORF3ECC1cXBdWGhQHDoD8AoSZ/B
D+HKQIrmqr/Qaq7BrI3dQCQvcr6mwLPBnBScQO+St0CVr4LBjgapQDxXKz6ObKHBcdfmQBAbrEAj
4YbBRNakQOug40Cu04HBR3axQIgikb+6J6XBwGTWQNQ8hz/Dy6/BbGu7QBIAnz9G7abBWLi9QHZY
m0AAGIXBEYztQD6R2EBb6YXBkxjPQJ15OkCFZ5nB/H2HQDm8VkBTbJfBsszpQHE9GEBglbLBxFSm
QEGLcUCfyLXBiwjjQMScl0BcBqvBiHy2QNsejkBLDsDBlm/2QO8tq0AnNbXBaz3TQKQmtUDlhb3B
pEK4QIV+LEDg7KPBPgfLQKuzW0B6zK3Be4wMQY4U60ApiojBZzuPQLZKnEBgkMbBi1UHQf421EAI
KLLB+x+1QCf9WEA8u4bB9meUQFWgScCvWZrBecfMQB5Z80AQb4PBDn+uQPl8SUBKI5LBZsGLQPFF
REAgkKHBoONCQJmhcUA+1pLBMyX1QOVjL0AAcJfBtJjnQKw8wkBXKsfBgfrPQMl9FcBYaLHBHBHx
QM5jx74fx7rBcPd3QFanq0DvgoHB1vGUQAbcqT4uhJrBZ4MAQagol0B3+IjBdS+LQJ9j+UB1sH/B
V+0EQZhMHkDyBq/Bzw/sQLG4H0C8ULvBYsKPQEyfjkBq0LHBv7WVQDDuNUBo8LfBdMf8QAKFkECy
SqXBuoPMQCGKrkAmb6fBxfzIQBmDbUAWvcTBaJMGQYw6lEDXtbjBb/m+QIASz0BuZbrBQOALQbcY
B0EeBYjBh28YQWrg3kDaz4LB/iYRQUCb4UBIspDBfNiZQOHGq0AJAs7B1hR3QLIrgEAlgsjBumh4
QEIRs0D81MHBFV8OQfKU4kDjYLnBWVf4QLoQ60A7dq7BayEUQVxdzEA1cazBP6TQQH9lM0CI5YPB
zlGYQIY4RkArQILBFjZoQNkRRkCM8qbBJGgOQEHdd0A9WZfBiXBAQGXQfkCxA4vBOm75QNA32kDo
xcXBqDObQDLfE8BS4KPBYgbPQIyLob/pIrDBD2fkQF7k9b1LGLTBGXm6QGw4xUAQNo7BWZ2mQFCh
AD7KdaPBBTrYQIHRtUCajHnBRg7GQB9f8EBIwYzBc0iwQPAukr8p2afBjYTaQJGHkj971q/BNsC7
QJpYoD9Fo6fBajDEQGAHp0ApKobBBjnjQMSP4UB+rnfBB0HOQFT1OEAsTpnBehOHQA2sW0DCW5fB
DUnsQK9wIUChEbLB96mmQLiQckAbS7bBVcfeQEe+m0CrW6rB+Au3QBMdk0DQFsDB4sPwQB6JtECK
HLTB/tbMQB5UvUCebbzB0TW3QOhrLEDA+6PB4jPKQPiPYEArqq3B44r3QBPB8UCbPWPBv+eQQCDO
nEACnMfB7WgCQeny3kCsJ7DBPTq3QOYocEBqD4fBuxGKQPnxUMBSp6DBbt3ZQPLa/UDcu4PBOe2u
QFd+VEBHMZLBvGeKQMtCQkCtXKHBdL9CQIDceEB8spLBSgf0QBYdK0D0RZfBr5XeQOKO0kDCjMXB
0CbWQN//DsDlcrPBox38QAZoXr78VLrBM0eqQH5Ju0C2bZXBp5iPQD+IZz7UEJ3BhyffQG/jn0Cc
pmzBvPe+QGigA0Gf+5LBdYIFQV92KkAC7q3BP8nwQJvmKkBVt7rBUbGMQGF+i0BrerLB3zKaQLLV
NECZJ7nBABH5QJ10lUCIuKTBF0/GQAGPr0CObKbBnJ7OQNE4f0DgcMTBpukEQS4WoUD17LfBxHe0
QP650UAvpbjBfwj8QCJNCkEETGTBUZjiQHpC6kAPmlXBa2ILQaoo4kCy9mDBlkGcQIgar0Acks7B
uZOCQAAcfUAjVcrBZIdxQOqjr0C7RMPBb9kIQRPS8EDKBLfBsjDsQBFK8kDvIqzB/WkPQcnk10BX
fqrB7i7RQCeWSECfw4PB/e+ZQM84ZkAdV4LBjN9jQF9FPkBTfqbBuOoMQAqCe0DvApfBdWFCQPWY
hUBZCIvBuvPrQEBn7EBXWcPBYz2cQAs4FMCDpKPBMhHRQIjnob+inK/Bm3zmQE54973bg7PBUIv0
QMqfFUDyuoDBmq2mQEgNAD6UXKPB40r+QFE1l0AU5ILBnFMQQb6WDkApIn3Bh1axQP+Nkr9Rj6fB
g5zbQI+ykj+sda/BPby7QLuOoD9ahqfBwQrjQDu0ZkDcBYPBoREVQReLkUCXfYDB88XNQHCeOEBz
VpnBcuWGQJqxXUAjY5fBxzztQLa4IUAvrrHBbe2nQK17ckA9RLbBQdfeQIXnm0BL/6nBrTC5QJkn
k0DK8b/Bz57xQBfOtEBVoLPB7nXOQLJzvUBlJbzBI862QA+LLECz66PB+6fKQAq3YEBedq3B/Iwj
Qes8uEDScn/BS8KTQCGsnEBFsMfB45gCQddC30AAjK/BrOy0QKabbkC/vobBpxSLQL5xUcB3eaDB
2jgdQShKVEDnzHzBHROvQBsfWkAsTZLBoyCKQKf9QkDjV6HBl5VBQAx4eECbspLBKbbzQOBhKEBO
2ZfB8wPhQA2+0kBmJ8XBa+vYQHlKD8A4ybLBbv3+QOpdX77fjrnB2l7gQPEDuz8BooDBYf2OQDPv
Zj4/H53BpNfxQNy1tkDbmoTB8hoXQXh+oD8kA3rBANUFQfRSK0Dqa63B60fyQMjWKkCRULrBc42N
QEVbi0BDmbLBc9ObQF60NEBJNbnBOKD4QCKflUBiN6TBAvjFQF+dr0CjMKbBx0LRQAKCf0DqJsTB
PIwFQVN1oUBnTLfBn6e1QAvB0UCTgrjBsr0zQcj5rUAo1XrBajEkQUNuyEAAiIfB2z0dQdNxzkB1
VnPB9bCfQC8Kr0DQk87BZdiFQIu3fEAkgMrBbzp2QK9hr0A3fsPB51AJQYcz8UACVbbB2SfsQBuD
8kBuqavB7FoPQT5B2EBNvqnBMCOhQKxhQkDvAoLBbi6qQP1bmECVWoXBmURjQB+IPkAWdqbBslgL
QI4jeEC78ZbBJA9BQBEFhkDIFIvBXhHuQMWi7EAx38LBQWicQElHFMARoKPBkx7RQBDjob+Bnq/B
G3nmQCJD9r0cibPB51P+QMzIl0AH+oLBR8imQKjW/j0YWqPBH9P0QGu4FkCL1oDBBBMVQdIUkkAq
rYDBY3KxQC+dkr+MjafBypfbQDvAkj8peq/BDse7QOaJoD+uhqfBvCLjQOTFZ0BZCoPB2Y4QQW13
D0Cvn33Bt9HNQEHGOEBFWZnBHO6GQKSvXUACYpfBTSntQNbDIUDztbHBscmnQLdhckD6RbbBP8He
QIbrm0DJB6rBAfa4QPAYk0BP9r/Bam7xQOnUtECRq7PB9zXOQI9svUCWLbzBmM+2QNeLLEAZ7aPB
b5TKQI21YEA9e63ByWYaQZQuXj+yGXvBRXeTQJOMnEA2scfBenwCQUdR30AMmq/BngG1QLZCb0Br
wobBX0uLQJKHUcD/cqDBu2kdQdl/VUDdh33BoCKvQJRbWkAvT5LBaSGKQLzmQkAuVqHBZ6pBQPlX
eED1rZLBGsfzQFilKEDv35fB+7DgQHC10kBJMsXBqvrYQLBGD8BHy7LBEe7+QO09Xr5Dl7nBX8/x
QNZHt0CeqoTB1iKPQILMZT4UGp3BFKngQPQwvT+Bs4DB0HQfQd2wrUBlboDBeM4FQcRwK0A3d63B
+yPyQNrbKkAIWbrBxWuNQGtKi0DjmLLBxbGbQKiRNECtNLnBN5j4QD+qlUBOQ6TB2OXFQJKcr0AD
NqbBeQbRQFxsf0AfLcTBjXQFQQiEoUDJWbfBMWi1QA+20UAxibjB4NorQba+dj/lbnnB/swTQQC5
wz4KwWzBDrMWQed3hD7Qo4TBdVSfQGnprkDYls7B1ZGFQPVrfEBAfsrBYKd1QIs9r0BVfcPBWSsJ
QSdF8UDJZLbB3O7rQHWJ8kALtavB0UQPQU1a2EAFz6nBu02hQLEQQ0DV/4HBMiqqQKKsmEBEZoXB
KjpjQAVVPkAycqbBvF0LQJDcd0Df6ZbBJTZBQK79hUDPEIvBUrvtQAOf7EBu7MLBsAKfQLYPFcD8
v6LBJ6/RQEoApL9wUK/B2/flQGYUC75Lj7PBfMfvQLfTs0BPxYvBhA2oQKAA7T0B9aLBACkBQWmO
d0Bqcn7B+fkMQeFjw0A33orB1umyQEQ9lL/gCKfB9+raQDU7kT8Sm6/BVP67QMxPnz+DcafBh8Xj
QOhDj0B16IXB/+cVQYJ+jUDzCH3BCRXOQKCkOkCRhZnBAzOHQAjRXkD5cpfBiYrrQFIxIUD8IrLB
2eqkQGtYbkAaeLbBLYbcQF/rm0Dbx6rBbn+0QLB0kEBmbcDBLZ/tQEhYtECrtLTBtFXJQM9+u0Av
CL3BwJW2QK4oLEAQCKTB+NPIQA+CX0Cd2q3BYYomQZ/kb0DKHW/BZvyNQPl/mEBY88fBq1sAQYuW
30C5BrHByb63QA7zdkBLWIfB4M+OQOc/UsBIRZ/BeoIbQaFPsECaYYTBM/yvQK+cX0BQrZLBqNiJ
QANHQUBxSqHBsmhCQDKweEBboZLB65rzQDIRKUBpoZfBvWXaQIxF0EDeTMbBAK3ZQDOOEMAhZrLB
6rv9QNl1cL5KyLnB+vPYQMe9w0AQ5ZDBOguRQDWRYD5PkJzBih/6QPYbP0DzWnXBd6oRQdYm30Dh
co/BvSMFQYB+LEB/Fq7BqarvQPwwKUCS0brBO6KKQOkkiUCat7LBJRSZQDWTL0ABI7nBKSL3QGKm
lkAtLKXBwr7DQNJ5r0AL46bB+XTMQMBAekDcscTBpIoDQfkyoUD2crjBy4uwQImnz0DeVrnBjuE1
QWbsiEA/qHDBO0ghQX51cUAnU17ByIsoQfwHLUBtP3TBwb+YQAVpqkBFCM/Bl1qAQMZRc0D/ecrB
MPJqQFQkq0BGsMPBoXcGQVUo8UBdA7jBMLrnQBCp8kAXEa3BBogNQR2y2UAlYavBbH61QKIBPUDt
YILBQU+fQHCmkkD/yITBMOdhQKcdOkCnPKbBXFYLQIdqdUB3r5bB+t1CQPVGh0CnHIvBMDDnQHmg
6kAXRcTBEyCoQAR4F8ATWKDBSzfXQLhxqb9mxa3BjJ/oQFg0Nb7xuLLBmST2QO6dskByU5DBmLqr
QMC+pz3u46HBG4rSQHQ1yUDYNoDBEpIHQcK710Ax+Y/BYf+4QJIgmb/VXqXBFTDbQNJejD/JW6/B
QqK8QOS6mj9WG6fBUXHWQAjxqkC9fojBsMHsQEYy7kCRU4DBVRLOQNt/PEDR9ZnBQWOHQA3GX0BG
dJfBHOzoQAkXH0CAo7LBrNKfQJDoYkBU07bBVCjXQIxDm0CLMqzByqKsQCBhiUBMOsHBL//kQFDc
skADjbbBgTS/QDQ5tkDbkr7BVXe1QLU7KkCVLKTBDDLFQAdwW0Bhdq7B5+vpQJUOB0Ezkm7Br9OE
QNB/jUA8hMjBP/L1QILU30AIjLPBvtG7QCLIgUCMQIjBA1uaQGWhVMAxQpzBwSsFQSap9EBkFojB
rOywQHE9Y0B0E5PBDtKIQBAZPUBnD6HBKIlDQFMfekAVfZLBHxLzQKKlJ0BU8pfB1rPNQEAMykDx
PMjBlP/gQHeUE8ByZ7DBzgIAQWodjr6iB7nB6x/7QBCYm0DtpZbBOzOVQFyxQj5XZZvBhsS7QOdI
xEBSqnPBwloTQRZF3UCrI5bB0OwDQSh5L0Av+K7B75frQPKXI0AtZbvBvCKFQLbMgkBEEbPBSFWV
QKn1IUBs+7jBiRrzQKFbmEB95abB3jW+QJ5ArkBPMqjBtDLFQCsvbUCGbsXBHQr/QLWqoEA1V7rB
sMelQNibyUB65LrBjvcAQY+0E0GT8XDBVMPJQHM1DkHoTm7BJv7vQOvD/UBzSF/BwqCNQJ5tnkBf
6c/BSItxQELRWkDmg8rBAYlXQLCVn0C2TcTBGtr/QGHW8EDE17rBzn7cQFsJ8kBuhK/BpMQIQX6T
3ECeJK7BEivOQM3vUUD6BITBGemdQMIxiEDN5YPBdGleQJIuMUA8nqXBRmcLQGMmc0A9O5bB75pF
QIQDikCGLYvBLRnZQJCC5UCLp8bBnC6kQHTsFsDo8Z/BEPPSQPk8r7/7sq3Bjt3kQBgkeL4t1LLB
egfYQCv+yECdjYDB26SpQFBcrT3ws6HBQ0r5QPoFsUDX1ZDBe3bzQIXv7EBA3IDBcJG1QD2Vmr/V
JqXBjcTYQBnRhT8zfq/BEwO7QNiHmD8QGKfBBVDaQIltqkAizIjBttoJQU811UAUuJDBpuHOQCcE
O0DaIprBPuiIQK5lYkCWWJfBUmLnQPLPGkBi8rLBw9SeQAIlYkBu0LbBGEXYQOzVmUBvn6zB30Or
QHYxiEC5WsHBRqrlQAmTsEADJrfBsTG/QOmhtEA4777B+0+1QB2rKUB2OaTBMdvEQOhbWUCGpq7B
KA8aQXV320DUmpnBU+mCQPYMjUBhbMjBAy74QEMz3UBEc7TBRbW+QNX8gUBUYYjB2/yVQEoLU8Aq
tpvBgywIQc6e8kCw1ojBfL2yQKihY0CAJJPBDiyJQLIPP0B/66DBXRtIQDA+f0DzPZLBTbzzQBw4
JECrSJjB3zfNQPWpx0AnvsjBVrLbQF0mF8CsTrDBt6H7QMzivL74P7nB0pDBQKQJxUDOH3TBcsST
QGqSXz6sGZvBuK/8QNXNmUChLZfBhF/xQO5DAkFTI3XBcGoDQYXHKUDBdq/BAFrpQNGQHkB0uLvB
XviEQJNIg0DV87LBjUmTQGmZIUB10bjBl6r0QAVolkBjfqfByEPAQC6srUAxhajBV/DCQA0zaUBi
pcXB2cL+QJ1wnUDjC7vBz6amQFrQyEDYJbvBUd4iQSh5+UDFRpjBslolQeJ4wEAqpZnBKrcRQar8
3ED/V6HBQXaLQMZrnUAu6s/BZqxrQINpWkDBQsrBzHdVQDb5n0CCHsTBGN0AQVd27UCC4bvB1bXf
QGxe8EAaUrDBPiIKQYCB2UAwOq/Bp7DQQBuqUUDhLITByD2hQCdDiUBa7IPBqyReQCo0NEBOWKXB
KkQPQOaweUBC2pXBTvtLQPnCjECz9orBcnTZQBbl4kAQT8fB

>  <OMEGA_E>  (18) 
TMaHP1jphz+qWYg/y7OHP6DtkD8LhZA/wYGQPyTcjz927o4/A1aOPw==

>  <OMEGA_NBR>  (18) 
    121653

$$$$
298711
     RDKit          3D

 60 63  0  0  1  0  0  0  0  0999 V2000
    4.9762   -2.3305  -20.3428 C   0  0  0  0  0  0  0  0  0  0  0  0
    6.5807   -1.2799  -21.8903 C   0  0  0  0  0  0  0  0  0  0  0  0
    7.2190   -0.1331  -22.4130 C   0  0  0  0  0  0  0  0  0  0  0  0
    5.2444    0.1153  -20.3748 C   0  0  0  0  0  0  0  0  0  0  0  0
    5.6003   -1.1583  -20.8729 C   0  0  0  0  0  0  0  0  0  0  0  0
    6.8588    1.1372  -21.9294 C   0  0  0  0  0  0  0  0  0  0  0  0
    5.8696    1.2454  -20.9304 C   0  0  0  0  0  0  0  0  0  0  0  0
    6.4299    2.8974  -19.1929 C   0  0  0  0  0  0  0  0  0  0  0  0
    4.2261    3.4852  -18.9259 C   0  0  0  0  0  0  0  0  0  0  0  0
    7.3814    2.5236  -22.2367 C   0  0  0  0  0  0  0  0  0  0  0  0
    7.4225    5.6396  -22.5549 C   0  0  0  0  0  0  0  0  0  0  0  0
    6.8899    4.8786  -21.3223 C   0  0  0  0  0  0  0  0  0  0  0  0
    5.1801    3.7146  -22.8056 C   0  0  0  0  0  0  0  0  0  0  0  0
    5.6748    4.5096  -24.0501 C   0  0  2  0  0  0  0  0  0  0  0  0
    6.3119    5.8576  -23.6054 C   0  0  2  0  0  0  0  0  0  0  0  0
    5.6979    2.6890  -20.5009 C   0  0  1  0  0  0  0  0  0  0  0  0
    6.2864    3.4948  -21.7154 C   0  0  1  0  0  0  0  0  0  0  0  0
    3.8473    3.4686  -25.5440 C   0  0  0  0  0  0  0  0  0  0  0  0
    8.2131    3.4180  -16.2654 C   0  0  0  0  0  0  0  0  0  0  0  0
    7.0143    5.4673  -15.4245 C   0  0  0  0  0  0  0  0  0  0  0  0
    4.4943    4.7740  -25.0311 C   0  0  0  0  0  0  0  0  0  0  0  0
    5.7409    3.8118  -16.8930 C   0  0  0  0  0  0  0  0  0  0  0  0
    7.1280    4.4859  -16.6123 C   0  0  0  0  0  0  0  0  0  0  0  0
    4.4679   -3.2874  -19.9122 N   0  0  0  0  0  0  0  0  0  0  0  0
    5.5052    3.4917  -18.3301 N   0  0  0  0  0  0  0  0  0  0  0  0
    4.3038    3.0272  -20.1580 N   0  0  0  0  0  0  0  0  0  0  0  0
    3.0365    3.8883  -18.3263 N   0  0  0  0  0  0  0  0  0  0  0  0
    7.6068    2.6197  -18.9950 O   0  0  0  0  0  0  0  0  0  0  0  0
    6.8828    6.5291  -24.7309 O   0  0  0  0  0  0  0  0  0  0  0  0
    7.5181    5.2164  -17.6980 F   0  0  0  0  0  0  0  0  0  0  0  0
    6.8416   -2.2573  -22.2685 H   0  0  0  0  0  0  0  0  0  0  0  0
    7.9764   -0.2312  -23.1767 H   0  0  0  0  0  0  0  0  0  0  0  0
    4.5116    0.2179  -19.5881 H   0  0  0  0  0  0  0  0  0  0  0  0
    8.3342    2.7011  -21.7164 H   0  0  0  0  0  0  0  0  0  0  0  0
    7.5259    2.6503  -23.3198 H   0  0  0  0  0  0  0  0  0  0  0  0
    7.8073    6.6183  -22.2324 H   0  0  0  0  0  0  0  0  0  0  0  0
    8.2369    5.0574  -23.0106 H   0  0  0  0  0  0  0  0  0  0  0  0
    7.7184    4.7187  -20.6166 H   0  0  0  0  0  0  0  0  0  0  0  0
    6.1087    5.4841  -20.8396 H   0  0  0  0  0  0  0  0  0  0  0  0
    4.3475    4.2690  -22.3482 H   0  0  0  0  0  0  0  0  0  0  0  0
    4.8240    2.7298  -23.1420 H   0  0  0  0  0  0  0  0  0  0  0  0
    6.4385    3.9123  -24.5697 H   0  0  0  0  0  0  0  0  0  0  0  0
    5.5245    6.4802  -23.1556 H   0  0  0  0  0  0  0  0  0  0  0  0
    3.0228    3.7123  -26.2302 H   0  0  0  0  0  0  0  0  0  0  0  0
    4.6016    2.8698  -26.0755 H   0  0  0  0  0  0  0  0  0  0  0  0
    3.4568    2.8935  -24.6915 H   0  0  0  0  0  0  0  0  0  0  0  0
    8.3097    2.7081  -17.1001 H   0  0  0  0  0  0  0  0  0  0  0  0
    9.1782    3.9178  -16.0957 H   0  0  0  0  0  0  0  0  0  0  0  0
    7.9160    2.8758  -15.3556 H   0  0  0  0  0  0  0  0  0  0  0  0
    6.2535    6.2293  -15.6492 H   0  0  0  0  0  0  0  0  0  0  0  0
    6.7233    4.9147  -14.5190 H   0  0  0  0  0  0  0  0  0  0  0  0
    7.9855    5.9567  -15.2591 H   0  0  0  0  0  0  0  0  0  0  0  0
    3.7280    5.3661  -24.5094 H   0  0  0  0  0  0  0  0  0  0  0  0
    4.8728    5.3424  -25.8934 H   0  0  0  0  0  0  0  0  0  0  0  0
    5.6873    2.8765  -16.3164 H   0  0  0  0  0  0  0  0  0  0  0  0
    4.9485    4.4962  -16.5559 H   0  0  0  0  0  0  0  0  0  0  0  0
    3.5248    2.9229  -20.7763 H   0  0  0  0  0  0  0  0  0  0  0  0
    2.1776    3.8382  -18.8359 H   0  0  0  0  0  0  0  0  0  0  0  0
    3.0407    4.2281  -17.3857 H   0  0  0  0  0  0  0  0  0  0  0  0
    6.2123    6.6718  -25.3886 H   0  0  0  0  0  0  0  0  0  0  0  0
  1  5  1  0
  1 24  3  0
  2  3  2  0
  2  5  1  0
  3  6  1  0
  4  5  2  0
  4  7  1  0
  6  7  2  0
  6 10  1  0
  7 16  1  0
 16  8  1  1
  8 25  1  0
  8 28  2  0
  9 25  1  0
  9 26  2  0
  9 27  1  0
 17 10  1  6
 11 12  1  0
 11 15  1  0
 12 17  1  0
 13 14  1  0
 13 17  1  0
 14 15  1  0
 14 21  1  0
 15 29  1  0
 16 17  1  0
 16 26  1  0
 18 21  1  0
 19 23  1  0
 20 23  1  0
 22 23  1  0
 22 25  1  0
 23 30  1  0
  2 31  1  0
  3 32  1  0
  4 33  1  0
 10 34  1  0
 10 35  1  0
 11 36  1  0
 11 37  1  0
 12 38  1  0
 12 39  1  0
 13 40  1  0
 13 41  1  0
 14 42  1  6
 15 43  1  1
 18 44  1  0
 18 45  1  0
 18 46  1  0
 19 47  1  0
 19 48  1  0
 19 49  1  0
 20 50  1  0
 20 51  1  0
 20 52  1  0
 21 53  1  0
 21 54  1  0
 22 55  1  0
 22 56  1  0
 26 57  1  0
 27 58  1  0
 27 59  1  0
 29 60  1  0
M  CHG  1  26   1
M  END
>  <OMEGA_C>  (19) 
3TyfQDcnFcAKvqLBY5XSQFrTo79BH6/BWgLnQKRTCL7KTbPBJdKnQAgq7D2P/6LBZzWzQFRDlL/F
+6bBNnvbQLWOkT9rb6/BeNO7QLhnnz+LcafBosHNQJRvOUD8ipnBDTyHQBQOX0BMaJfBLTTsQKKC
IUDF5LHB0oTtQIt3tEBacLTB93ncQF8dnEAclKrBwcOlQES8bUDfcbbBsZe1QFNOkECPZsDBS/vJ
QH1xu0DS17zBPVW2QIQYLEDpAaTBMirJQBSrX0A2ua3B8Dl2QMf8XUAYWszB0mgDQZDAWkB6H4LB
SnXgQGj0rkCqynbBIdGPQDbEmEC7P8jBxbW3QBX0c0DQJIfBehjkQMqMj0AD5oTB5viOQDBlUsBG
TJ/BgyqwQER4X0AZpJLB97iJQBO9QUCnQ6HBClZCQIPaeEAsnJLBuGrzQNapJ0DM9ZfBC0DcQIHu
0EDg2MXBhZTwQPTspkCalY3BgO7aQNx2EMD5JbLBrj7/QJ+ybL7JabnBLF+QQIMgXz5jtJzBtlgF
QUPeLEA5u63B99PwQDyfKUDpjrrBTdX5QH7J00AM3LHBfMoDQSbWoUCpFbjB5fz2QMr/lkDE7qTB
L3rDQLV9r0Bwt6bBbR6LQPObiEAFybLB3V2aQFe0LkDgIrnB3gfOQPpiekDQjsTB4ciwQCZez0Ck
PrnB6nVBQHWWbUBk19HBhECTQMGqN0CNmtDBvjtdQJ8uOUAmiMXBh/QEQZdRLUDtzIjB3tkSQTm9
ekD+w4DBCVD9QOIMOEBisHXBYRzIQGhWx0BEY3rBZSXXQD1FnUDGTWjBFon/QGmdvkBgJXTBbZdu
QAm3q0BIE8TBXO6bQBn1qkCvJc/BZ/61QMwYOEAIiILBSFqeQCXhj0CVcoTBz5VhQPMQO0DENabB
ol0LQLSldUD5r5bBRJtCQDtMh0D+FYvBksvGQFB/1UDrG8vBQOy1QPomFsAD5p3BdvbDQNejqb/F
e6/BfjvJQLx8P76wCbbB3kq4QJcl2T0lzp/B2Ha7QGNJl78KaKTB5qjGQPwejD+fc7HBZ2y+QDVL
nT9adqbBBabPQHxuN0C+OpjBdDyIQOkJW0A3w5fB7FTIQI5IHkA2R7bB3IwLQclwl0BRraXB1uEC
QWoXYUCkDKzBKE7BQL/Ym0C9DbDBg0XUQD1uw0DhGarBngMDQZ77wUACM6rBkqq8QD7ALEB8RaPB
UnPTQF6JXEAZA63BsCHOQGmM80CieJnBi+HTQPKmYEBxmWfB25X4QGFyk0DqT4PBcq3BQNiHyECW
pZ7Bal+uQLhyYEBIzYXBQ6vaQIjnW0AP+3/BiW+xQBoVU8BYoZjB/zKuQN72VEAdsZHB35+PQPnG
RUDByKHB/3xAQJ6Oc0Cm7pPBybrzQEydH0Dt2ZXBjogKQdA/x0DM6bTBf2ztQDeXDkB0soHBSW3G
QC78E8D077LBDDDPQH11mb4tgL7BA1ixQNKeaD65ZZfBuB7hQGgnIUAJhLzBvx+pQIUCL0BSxbnB
QIoGQbN3lEAfRp3BjiAdQQWKl0ByIKbBt5MJQarpY0AiLrTBsWoIQYFnJkC0DajBbqueQEpmm0D5
fK7BCPLGQOuSoEDBqLjB16nKQAr030AXqq7BxPoIQSI73ECyJqXBdzXAQKqG9UBrZ5HB9TDxQGvL
9UAt7JjBXOPBQFMDB0FqZZ7BWsa+QMwlLECqfWLBcO/yQO7fWkCKcF/BWBfFQBUsj0Ccc2PBO/D9
QBtzkkCZAYzBcZHpQG0TskBAJIHBxbQLQU5XkEBuRX7BbpOeQAKWxkDiFp/BBuHNQMZarkClnZnB
POmZQJQ0LkDIXILBbWygQKTMj0BhFITBBUhzQPWERkDFmKfBHU8OQBe3dUD245jBATY5QIKBgUDz
OIzByUwFQc534UCOu7fB7AGbQDooBMBaQp3Bk/HCQDQbqr9GX63BdEbXQBBflr6XMbPBvTekQLRf
mj5SBaHB57KqQCvog7/fFKTBqwvTQGJqhD8psK/B4TS4QMudpz+R+6bBBPTOQCRINkC3XpnBdmKH
QKd8VUAkvJfBBG7qQJZPE0AIorLBDUoBQT/mqUBNz7PBkQDuQD17lEDCCqrBUXKuQGLBf0CJULXB
Ub3BQNQnlkB3IL/BNUzgQMpeukC3lrvB8Wq5QDxHMECCBqTBzY/QQI1kXUCMeK3BgJB+QIK0g0BT
/MnBE/LNQDHuq0DJ7nbBLDSjQItvv0De3IvBShCdQOjfp0DSE8bBc4u1QJueYkCRXofBDQfFQLtY
oEBILYfBcY6OQJqwOMA4apfBdfutQAe0RkBQSJLB872NQM4HT0C4AqLBj/RAQJd2bEDTP5PBDT/0
QD7sJEBqMpfBHKf1QMkdy0DutcTB9xTqQNXipECI0ozBvOrFQHKRFsAYBrDBfNPpQNTHBb/yP7rB
RE6QQG2VCz/IO5rBL54FQeoNEkBscq/BFoDrQILuGkCLYLvBbCgLQfT6xECwHbHBQ3MLQe1ykkDO
9rfBd7ADQS84iEAZxaTBAMraQCJOrED3saXBzSGaQKf5lkBICbHBQMSaQMC1SUAGErjBLfDTQAgu
fUAU0sPBA4PNQDGC00BUmrfBoQlLQCtjkUAc6c7BmsyRQGN8WUCOyc7BqpxiQGJjZkAjC8PBPPLl
QGrTlUBtVHDBQx7aQKvozECRBnbB1CmwQIBgqUBvo23B+9+cQGYMt0D2QpTB1GOFQIPlvEBROofB
QlivQK9t4EDia4vBG0iKQBnEvkCyUcHBYMaqQJlQuEAdEM3BvR/OQEqUOUC2toPBBJ+XQIdWXUBN
yILBgVdwQJnmXEDiqKfBFdEOQFkdeUCO9pfBh/U6QA1jcEC0TIvBNCThQK+R1UCXrMnBP6qkQGqT
FsCAaqHBenfXQFCppb8Z5a3BdYTqQJBgEb7vX7LBVKipQBAayT10d6LBrUC3QF6Slr929aXBOL3c
QGB3kD9aBK/BSyy8QE2fnT+QPafB04bNQEfuOkDE1pnBmAyHQBy8X0DiapfBaXDrQHy3IUAo6LHB
kzG3QEKEv0D3la3BOD/ZQObNnEDev6vB+oSjQNTuYUClH7fBCUmtQDHqlEC/Rb/BDK2pQNtPwUAH
kLnBO0y1QARyK0D8G6TBKu3GQFaNXUChH67BSJGSQNDhU0A/j8/BD/z3QNKjLEBsK4DBWGTsQH7J
okBpWnXBCVqOQGiak0B3AMnBHgy4QFTff0CXqYfB6d/nQB/pgkCUAoTBnHyVQKoHVMC9up3BeWCw
QNKEYkBU45LBsMGIQKYkP0CuHaHBLpNCQJ/geUD4fpLB9h3zQILzJkAjkpjBIyfEQIJO30AEG7/B
tI4AQZDmkkBk74vBP4XhQJR+EcBJibDBKrUBQav+cb6yUbjBcq+RQAjOSz6oS5zBLr4EQRdUMUBA
wq3B+iXwQKRwJ0AumbrB7+yaQKpGuEAVqqjBvl7EQLDD3kAyOqvBXZX0QOPgokDTFLHB3vfjQCUu
nkDqX6PBh0qEQKl4bkCmYLPBAW+iQMw8JECDWrvBZULOQJj4kECnMMLBpxCIQEqoy0B28bnBLRB4
QAN8VUAPUdbBDXOzQGAcTkDCndLB2zuLQNmrHECnasrBUQP1QN9E/D/7u4bBL9wMQXGDMUAsd3vB
oJrkQEhHF0DupnLBsyfhQHGJwkBJeHrBTxHZQGW7l0B1uGfBhxcHQXrZpECziHDBwZJaQJE0lkD/
DcbBkoCVQNXsrkAbQc7BwKSnQG3sUkC3RYLB486pQBbzn0A40YbBEKleQAkfNUAXz6XB/swKQNZV
dECfW5bBpBhEQIMZiUA/GYvBVe27QP1s4ECrasbBi1mdQHL+E8AHzqPB+eXTQFjKn79cNK/BMXHp
QLQ3yb2Q8rLBNmqmQNVdCD5VmqPBWZCyQORXkb9Wj6fBsBPdQBBslT/FJq/BbIG7QCZUoj+zpKfB
sxHNQJj+NkDhdZnBZO2GQF8tX0BzYpfBwjHuQD7CI0DpVLHBp2u+QGPXwUCI66vBPKHeQLJLnUA1
V6rBnM+oQHQsbUC3xbbB9Jq1QCbVm0BwRb7BkQWzQJEBx0BP9rfBRyC2QKsoLUBNAKTB6IrKQFV3
YUCXfa3BxBCcQBrra0D5bM/B/SDjQO10d0BmJmzBcNr+QLPnmkA8PYfBnmuYQPounkBwT8jBNfC0
QFFia0CosobBsNDjQBAFbEA/UILB0hGMQLKGUcBBxqDB/4mvQEeqXEANcZLBUqGJQDG3Q0CEUKHB
CppBQHIreUD8n5LBQPDyQNYdJUCVRJjBI9PPQILh5EAsxbzB5Ib2QMOFHkDK74PBl+PcQBA3DsCr
MLLBOJUBQWbNQr6gq7jBOJqNQFi0aT4Mo53BnvYFQbPYLkBj1KzBq1H0QAt5LEDA7bnB3hqhQPiv
ukCiY6fBF4HMQL3Z30Dn9ajBVdj6QHlEo0DNYq/BFmHoQG5TnEBu46HBa0uJQP/yekBvQLPBywun
QIeqMUAjdLvB/dnWQGr9lkCE5cDBCgWSQLkJ00Bjh7jBy9CGQKugckASZNbBIFC9QHKpZEB1K9LB
VKySQHAhM0DlyMrBXCTQQPHXQ0A83GTB1gUCQeoKdUCY8WXBJbfUQBrWmkC1KWjBJ8D/QABpl0Ar
/o/BJkzwQHLauUAqKIXBV9APQc2JmUAbDITBoQBuQESRoUDrrcXBHKShQEVVukB7EM3B9m6jQMxy
OEAXfILBdoCmQH7glEC0yoTBf79hQDnUPkDAWKbBVAALQM6Ld0Any5bBJW9BQCi7hkCqCYvB6vDI
QOka6ED4IMTBBIegQKnXB8D3rJ3BQUvFQNbNp78z/a3B2MPXQMg1fb4i2rPBCsqnQDkWiD6g/KDB
SJCuQC7whr+DYqTBs0nTQGiYiD/WDbDB+Am6QGrCpj/E+qbB3KXPQBjkOEAZWpnBDLWHQKoZVUDt
o5fBRlLpQFqfFkCzBbPBX8H+QD73q0CmN7TBn+brQOzOlUD4U6rBqJ+rQCrJf0D1L7XBnjK9QFzL
lkCxG7/BRCfbQIC2u0B5urvBkby5QCMVMEC0/aPBOhTPQBHZXkDHmK3BmKl0QHymgkCvmsnBSgSe
QLziukDqs4jBX2fsQMzEpkB6w4jBLlWXQMScp0Dzy8XBvDa0QODWV0A50IbBsru/QNT6mkBEWoTB
OHWVQNWDPsBf95fBiZCuQDa/SEAmPpLBYZKNQF17S0Cj46HBKh1BQNHhaUCkIpPBOQf1QMLdJ0Br
PZfBd/HuQAA3zUD9+sTBEb7AQMx/nkCPFnPBCYbIQG7QFMCA2LDBJxnpQLkn477tKLvBBv+UQN0v
9D5075nBuzgFQUW8FkAaC7DBpWrpQBkPH0BCwrvBvgsJQUV/x0AaobHBaZcJQdMilUAxjbjBRxkD
QUAUikAkRKXB853YQP0IrUBvzaXBND2XQLlolkBQvbDBy1CYQK7aSEDg1LfBu4HPQJeRf0D88cPB
OSzIQN8+1EBzkbfBy1w/QLSrj0DLV87BbBaNQLfgWEDfkM7BTx1bQNH3YkDoncLB8n98QN5wskDx
jYXBZGKmQKKE20DGJobBeXqdQCpduUBYfpHBnyUCQYUUkEB4qoXBmOfrQKg8pUDqjZHBg8/0QCBk
x0BYNobBK1GEQJG/vUAz4MDB79ijQAS0uEAq08zBCxvOQHtlLkDv3IPBiT6WQCa7R0D7qILBcZNu
QGhOVUBwf6fBbuINQCZMckBI0JfBWtM7QJp3cECNNIvBPpLZQFE410CMxcnBiq+oQJXCDMDQN57B
H03MQCrHpb+yXa7BpLjcQEBBQr5nHLTB27uqQNwtUD5sYqHB75G0QPhSjL+F06TBJzvVQELgjT8b
QrDBZu66QNwNpD9xRqfBBajOQEDVNUD/bJnBHDOHQFhPVUBjhJfBOMvoQAkZHEDkErPBVcv5QE2L
r0AomLPBUKHnQCiol0B456nBXqmoQFCjf0Bu77TBCzq5QDvTmECZpr7BLZfVQPaVvkDv/brBiHa4
QL7QLUCiAqTBwcPMQK+AYECjcK3B7CJuQFt9g0DuRsnBCnXmQCuVq0CM7YrByzvDQBS6okAoC3LB
Y6SSQIMBqUByLMXBWfK0QKZiWEB894bBYo29QCE9nEC0GoXBvlyfQB5PRcCdmZjBzgSuQH5CRkBx
PJLBotKLQEU3RUAesKHB0TFCQCSvb0Bq4pLBuUf0QHwhJkBHbJfBkqfoQJz40UDlGMTBAambQOES
tEB4hIjB69/RQOAKE8CwQ7HB2MzuQLI9r75kX7vB7TGXQJg8vD5QYZrBnfoEQXSGH0DbJ7DBP1zo
QL/HJUAcyrvBYv8FQWOIy0BTzrDBqJMHQbsFmkBeELjBqCABQYq6jEBs1qTB8xnTQF6MrUAxTqXB
sRaTQKGzlECSV7DBTtGWQEuCR0CP0bfB4W7MQFVLg0AUscPBDpLBQE7M1UB6qrbB7rs3QGoXkECb
483BuJyKQFZuXUAcb87BkyJWQA3MYUDtbsLBCqHiQPUHp0D1mZPB9r/rQCe0zUDMN4nBCAsBQX3t
mEBoGojBE0OmQG7il0ArpWnBHe7eQLkWkECVdmzBApjIQGPdxEBesW7Bnqt9QLOyvUAWD8DBPWGe
QNiDu0BFD8zBDqvQQA9bM0AXJITBqFCYQIZrRUADboLB6MxoQPZUSED2H6fBRf4NQCVrd0AmaZfB
HXE/QB34ekBuBIvBVObSQMKb20DZ08jB0JCrQNWGC8A4+J3BL6TRQPvTor+Wt63BO73hQDx7Jb66
brPBicSpQIyeVj4GxKHB3/62QO5pir/UqqTBlBHXQL/4kD8oB7DBv6e5QPDBpT9oo6fBxJDNQDpJ
MkA2p5nBWaCGQJ5OVECifJfB2ijqQDdRHkAWqbLBUrn7QOsBr0Bs0LLBm/DlQAaEmEAedanBSvSp
QMRLgEDOXbXBmpm8QGMTmUAw7L7BN+zaQEHPvUAyJ7vBUhG3QFsxLkDiNqTBnXrMQD+YYUDcZK3B
BXqhQMiPwUCud8/BkGTPQBihpkCC03XBfb2yQAigvEBw54zBQlqVQOGQqUBUOcXBIYa2QHcZW0Cg
SYfBQ1HMQMP+mUDGvYbB33yiQBD2Q8A+T5jBaJOtQDHkQkDUT5LB/eCKQLe+R0A2xaHBBM9CQCiV
cUAqrpLBvO/yQEMNH0BW1JfBpoPzQAKJzUCW4cPBqsb0QBUGmEDkx4rBprHZQOt5EcDfQrDB+//1
QPBxnb6EVbrBM+2TQMqcuT68LpvBRlwFQbNAI0AAYK/B6DDrQJm+J0CfYLvBs6AGQZEJy0AUy6/B
mScJQT+1mECMnrbBSmr+QOokjkBasKPBYc7PQI31rkB7iqXBMYyTQDBblUB2FbHBEKCYQPRsSEDb
bbjBNtfOQEDlgkD0AsTBslXHQN+O10CKr7fBVUCEQG5mzEBTjtPBE121QEhu3UBcbM3BbomzQHUX
rEAzyNTBK4jhQDYZjkAxDG3B5dPfQBKhxUDWanTB+QSvQFE8qUA+Cm/BMH6wQGigs0ChZJXB/2GS
QCI4v0A3gInB6zDDQOOc20CDMIzBvz6BQGIDjkC3ZcfBZRKDQDVav0DhCcDBmt3LQLYaK0BLr4PB
E0mYQENWXUCnyoLBwwxnQJiETkBzLKfBH0gPQC94fkDAJJfBw6dAQE7OeUBPwIrB5OLgQCNK10Cw
XsnBRTKwQBgTD8C4Mp7B1sTUQNfsor+U7K3BtnrjQCBwEr5cnLPB/J+rQMjGIj5006HBIzq6QJnh
jr/10KTBinzXQP1qkT9LIbDBCgC6QJbnoT/2s6fBOu/MQKMQMUCKpZnBBqyGQIVvWEAZfZfBbUHp
QPKSH0D+vLLBvk74QGJesEBBkrLBHZfjQPhNmEAMU6nBU/6nQJH4fkDATrXBXxG6QNRymUBav77B
btbWQK74vkD3vLrBSzC2QHwQLEApMaTBr93KQD3nYEDFXq3BLRSeQFTVwUAEO8/BKazuQMhlpUAQ
cYvBSwLOQIqen0DMgHLBD4CSQG7iqEBKFsXBgyW2QOkPWEAWHIfBLDXFQOKFmkDfQ4XB3UeoQO7V
SMCto5jB6petQEkMR0DzXZLBmsqJQIpgREDDoKHBnA5EQMcfeEAFo5LBmu/xQMZ/G0CMxJfBaKbu
QILZ0EB2VsPBMOClQGBUtkAOSojBFs3dQM7VEMAeiLDBmLT3QIJXhr4ZjbrBOumVQBk7kT7BLZvB
QOwEQbQuJkBmhK/BTdzpQCBsKUBOc7vB/IkEQRWdzECraK/BH7cHQXcqm0Ddj7bBQqf8QBryjUDb
tqPBEirNQGPLrUAUL6XB1e+QQFiak0A49bDBc4SXQDNBRkDWgLjBZlHNQBs+hEAP3cPBcUPCQOxm
10AYCrfByJyAQAbWy0AKWNPB2eSwQMJI3kChDs3B4w6xQGVMrUBlk9TBwgHpQEftoUBeFZTB7y34
QOmLxkBkrYnB9isEQcF1j0D49IjBEdWwQA4CmEAobGnB2NbnQLK1iUBYtm3B2qzXQNrLwEAxJ2/B
t+d+QHjBjEBXZMfBopN+QNS9vUCT37/BSDzPQDUKLEBGUITBKamYQJwZTUCzgILBHjRjQBZnRUAZ
3abBLOkOQBCQgEAd85bBGl9EQL37gkCG04rBWpHbQPec2kAbusjB

>  <OMEGA_E>  (19) 
Ms6IP3mNiT9yNn4/2yyLP/CPjD++BH4/ZK5/P4degT9xt4I/

>  <OMEGA_NBR>  (19) 
    132603

$$$$
