50220694
     RDKit          3D

 65 68  0  0  1  0  0  0  0  0999 V2000
    6.3575   -0.8600  -22.3250 C   0  0  0  0  0  0  0  0  0  0  0  0
    9.7204    1.4235  -21.3708 C   0  0  0  0  0  0  0  0  0  0  0  0
    5.5448    0.2387  -22.0001 C   0  0  0  0  0  0  0  0  0  0  0  0
    9.2818    2.4824  -20.5545 C   0  0  0  0  0  0  0  0  0  0  0  0
    6.4862   -1.9313  -21.4203 C   0  0  0  0  0  0  0  0  0  0  0  0
    9.6263    0.0949  -20.9117 C   0  0  0  0  0  0  0  0  0  0  0  0
    5.0075   -0.7939  -19.8561 C   0  0  0  0  0  0  0  0  0  0  0  0
    8.6458    0.8829  -18.8219 C   0  0  0  0  0  0  0  0  0  0  0  0
    4.8634    0.2619  -20.7682 C   0  0  0  0  0  0  0  0  0  0  0  0
    8.7394    2.2157  -19.2809 C   0  0  0  0  0  0  0  0  0  0  0  0
    5.8032   -1.9142  -20.1866 C   0  0  0  0  0  0  0  0  0  0  0  0
    9.0863   -0.1752  -19.6383 C   0  0  0  0  0  0  0  0  0  0  0  0
    6.1172    3.0155  -17.4827 C   0  0  0  0  0  0  0  0  0  0  0  0
    6.5483    4.4154  -19.6165 C   0  0  0  0  0  0  0  0  0  0  0  0
    7.4232    5.1987  -17.4411 C   0  0  0  0  0  0  0  0  0  0  0  0
    4.8448    2.7542  -18.2991 C   0  0  0  0  0  0  0  0  0  0  0  0
    5.9687    3.2758  -20.4751 C   0  0  2  0  0  0  0  0  0  0  0  0
    7.1215    3.9426  -18.2563 C   0  0  1  0  0  0  0  0  0  0  0  0
    5.0929    3.9345  -21.5660 C   0  0  0  0  0  0  0  0  0  0  0  0
    3.6238   -3.7302  -19.1796 C   0  0  0  0  0  0  0  0  0  0  0  0
    5.3606   -4.4533  -17.5141 C   0  0  0  0  0  0  0  0  0  0  0  0
    9.0690    5.9462  -15.7367 C   0  0  0  0  0  0  0  0  0  0  0  0
    4.1892    1.5050  -20.3008 C   0  0  0  0  0  0  0  0  0  0  0  0
    4.8964   -3.2994  -18.4117 C   0  0  0  0  0  0  0  0  0  0  0  0
    8.4561    3.2824  -18.4325 N   0  0  0  0  0  0  0  0  0  0  0  0
    8.4438    4.8262  -16.4697 N   0  0  0  0  0  0  0  0  0  0  0  0
    5.2539    2.2606  -19.6210 N   0  0  2  0  0  0  0  0  0  0  0  0
   10.7090    4.2931  -17.6538 O   0  0  0  0  0  0  0  0  0  0  0  0
    9.5544    2.4907  -16.2073 O   0  0  0  0  0  0  0  0  0  0  0  0
    5.9820   -2.9870  -19.3288 O   0  0  0  0  0  0  0  0  0  0  0  0
    9.0054   -1.4492  -19.1928 F   0  0  0  0  0  0  0  0  0  0  0  0
    9.5053    3.6440  -17.1159 S   0  0  0  0  0  0  0  0  0  0  0  0
    6.8833   -0.8830  -23.2681 H   0  0  0  0  0  0  0  0  0  0  0  0
   10.1292    1.6292  -22.3491 H   0  0  0  0  0  0  0  0  0  0  0  0
    5.4430    1.0618  -22.6920 H   0  0  0  0  0  0  0  0  0  0  0  0
    9.3607    3.5011  -20.9043 H   0  0  0  0  0  0  0  0  0  0  0  0
    7.1134   -2.7733  -21.6734 H   0  0  0  0  0  0  0  0  0  0  0  0
    9.9682   -0.7173  -21.5361 H   0  0  0  0  0  0  0  0  0  0  0  0
    4.5092   -0.7506  -18.8989 H   0  0  0  0  0  0  0  0  0  0  0  0
    8.2360    0.6760  -17.8443 H   0  0  0  0  0  0  0  0  0  0  0  0
    5.8400    3.5016  -16.5357 H   0  0  0  0  0  0  0  0  0  0  0  0
    6.6092    2.0546  -17.2714 H   0  0  0  0  0  0  0  0  0  0  0  0
    7.3562    4.9008  -20.1837 H   0  0  0  0  0  0  0  0  0  0  0  0
    5.7480    5.1443  -19.4213 H   0  0  0  0  0  0  0  0  0  0  0  0
    7.7975    5.9975  -18.0983 H   0  0  0  0  0  0  0  0  0  0  0  0
    6.5152    5.5439  -16.9249 H   0  0  0  0  0  0  0  0  0  0  0  0
    4.2240    1.9999  -17.7935 H   0  0  0  0  0  0  0  0  0  0  0  0
    4.2721    3.6869  -18.4086 H   0  0  0  0  0  0  0  0  0  0  0  0
    6.8080    2.7727  -20.9776 H   0  0  0  0  0  0  0  0  0  0  0  0
    4.6559    3.1543  -22.2066 H   0  0  0  0  0  0  0  0  0  0  0  0
    4.2868    4.5118  -21.0898 H   0  0  0  0  0  0  0  0  0  0  0  0
    5.7130    4.6062  -22.1778 H   0  0  0  0  0  0  0  0  0  0  0  0
    3.2874   -2.9053  -19.8248 H   0  0  0  0  0  0  0  0  0  0  0  0
    3.8497   -4.6110  -19.7986 H   0  0  0  0  0  0  0  0  0  0  0  0
    2.8295   -3.9810  -18.4612 H   0  0  0  0  0  0  0  0  0  0  0  0
    6.2654   -4.1512  -16.9663 H   0  0  0  0  0  0  0  0  0  0  0  0
    4.5645   -4.7033  -16.7975 H   0  0  0  0  0  0  0  0  0  0  0  0
    5.5847   -5.3333  -18.1349 H   0  0  0  0  0  0  0  0  0  0  0  0
   10.1616    5.8188  -15.7339 H   0  0  0  0  0  0  0  0  0  0  0  0
    8.8119    6.8955  -16.2293 H   0  0  0  0  0  0  0  0  0  0  0  0
    8.6987    5.9585  -14.7010 H   0  0  0  0  0  0  0  0  0  0  0  0
    3.7889    2.0752  -21.1520 H   0  0  0  0  0  0  0  0  0  0  0  0
    3.3731    1.2671  -19.6026 H   0  0  0  0  0  0  0  0  0  0  0  0
    4.6606   -2.4257  -17.7864 H   0  0  0  0  0  0  0  0  0  0  0  0
    5.9550    1.5756  -19.4231 H   0  0  0  0  0  0  0  0  0  0  0  0
  1  3  2  0
  1  5  1  0
  2  4  2  0
  2  6  1  0
  3  9  1  0
  4 10  1  0
  5 11  2  0
  6 12  2  0
  7  9  2  0
  7 11  1  0
  8 10  2  0
  8 12  1  0
  9 23  1  0
 10 25  1  0
 11 30  1  0
 12 31  1  0
 13 16  1  0
 13 18  1  0
 14 17  1  0
 14 18  1  0
 15 18  1  0
 15 26  1  0
 16 27  1  0
 17 19  1  0
 17 27  1  0
 18 25  1  6
 20 24  1  0
 21 24  1  0
 22 26  1  0
 23 27  1  0
 24 30  1  0
 25 32  1  0
 26 32  1  0
 28 32  2  0
 29 32  2  0
  1 33  1  0
  2 34  1  0
  3 35  1  0
  4 36  1  0
  5 37  1  0
  6 38  1  0
  7 39  1  0
  8 40  1  0
 13 41  1  0
 13 42  1  0
 14 43  1  0
 14 44  1  0
 15 45  1  0
 15 46  1  0
 16 47  1  0
 16 48  1  0
 17 49  1  6
 19 50  1  0
 19 51  1  0
 19 52  1  0
 20 53  1  0
 20 54  1  0
 20 55  1  0
 21 56  1  0
 21 57  1  0
 21 58  1  0
 22 59  1  0
 22 60  1  0
 22 61  1  0
 23 62  1  0
 23 63  1  0
 24 64  1  0
 27 65  1  1
M  CHG  1  27   1
M  END
>  <OMEGA_C>  (1) 
pHDLQEcnXL+lmbLB6YYbQcYztj9r96rB026xQLR5dD5GALDBLYIUQU3fHkCyb6TBBo/PQEg097/Q
XKvBSwUaQbRjwj0kS6fBpz2gQDo9S79C2Z7BK1UKQc8EYj9Yk5bBQqGbQMAWhj4vJabBnNQLQUvN
DUBKP5rBurO5QFAF9b8bfqHBlmERQehaM746G53BcMDDQJP9QECk3IvBvovRQJxKjUCV7pzBzYrt
QKdbpkBph4vBrQibQJBEMECPZJLBtP++QHynUUAEzaPBm+PjQCZUfEDwDJLBDPmiQC7Oe0Anh6zB
O+xnQLu7bsDRb5nBEoqrQIWBjsDzHIzBexoRQetGvkCmyXvBtg2GQA6jwD/5Z6LBR6+cQCIqU8Au
S5PBRUwHQaYSUkDOdZPB8hkHQWFwmkAEwoPBzR+oQACuEEC295zBGVgrQXdhiUAEO43B/94YQWpo
H0CZqIHB6my/QKgrP8BSoZrBTRYQQdp9ub/fipnB0hUYQV03aUBp7YjB9kPcQPYMYr8VJbrBMxEi
QSGI0D/nyrLBUC2uQDbohz80ibXBlcUVQUESYEALPKfB76DjQK19McAhY63BwH0fQcqdN7/sSazB
lEuQQHEpQL/sMJfBz8YDQUYQLT82wY7BZOG6QI0ZYEAfSYTBUn7TQAF+A0DcK4rBuGXrQInTnEAp
eKHBue+3QIGepEDVXpvBCoX5QDHrv0BJyZDB0HzQQIJnsUBBZofBpSqHQM/8/z8nWY7BHbWIQNj2
a0C3RJPBEdvZQPhzMUAK0qfBuvyUQCPgSUARp7HBQi2JQOVgkEDQt6jBidC2QDdmk0AObLHBH2RS
QLbvOcApmZ7BM2J2QPmMk8CiY57BEBY1QNzIfsB1sJPBwn3IQNTWhMDiuofB/w+SQMWBlsAxYYbB
ELayQFCqqsBfFJHBv5UiQUszukDsvXvBqv0MQReo3ECm1YHBui0LQairvkBSN2vBT31yQI/PBEBg
N6nBB+FXQDcvoj8g0pzBnCOVQI8+G8CkSo7BOo++QDWsyT9wYpvBuUrIQGAfdL/U6LLBnE8QQY3/
Nr4ewJzBZhewQAc4JT4xva/B4ocJQYr2ZT/LVpbBDf3MQPMTA8DR7avB6WoZQQZLiT2M36bBDcui
QEruY79la57BKsgUQYjPHUA1OqTBd+CcQNXlOz5Oi6XB17ILQUVbDkASGprBC8O5QJMLAsB/uaHB
EZsbQfjrsT8AnarBy9XDQIO2RkAuuIvB733RQH70jEBMSZ3B72buQCekqECTLozB42+bQGcPMkDM
LpLBwuW+QJF4TkA3wqPBugvkQPs4f0DyR5LBs/KhQIandUDmhKzBjaqiQGoNc8DkHYrBfiFiQLFs
X8DR1ZnBpj4RQQvvwEAT3HzBykmHQIz2tT9Gm6HBlkyfQCoTd8CyW5bB10QHQczYU0AwgpPBNRoH
QaXunEAxKYTBvfuoQBy0DkDNhZzBsXwrQaFCiUAfLo3Bw/QXQV0cI0Bwb4HBu6nCQHFsRMAHx5rB
Bn0kQR7C0D9NSLTBANoXQcaVa0DO64jBWEfXQGeeeL+OsbrBn4gOQWmqmL996ZnBLTisQOjgfz/V
GbXBRa0CQR0jNj/CjI7BJHXfQMwIOsAjaK7BiLkeQfw0Qr8hxavBn8GVQLUeV7+HbZbBY4IWQSWn
XkCjF6fB5JC6QNB+aUCLbYTBdLbTQExuCkBIgYnB1TnrQJvLm0DQAaLBZdm3QB91pEDo75vBdX37
QGzmwECnp5HB+3HRQBtCtUBNTIjByt6HQI7WAkCw3I3BpKeIQGC5bECHdJPBcKrZQK3nLUDwxKfB
fOKTQOETQkBFXrHBVjiIQBd+jUABvajBKSa1QLvlj0B6rrHB2mXDQFjlgcCHpYfBChSbQK3jMcAT
YYfBquyLQBpLkMDjjIbB3T1dQBFKYsBPm6LBtKs0QFR7hsDbQ5bBdPpSQCJEHsAMGJfBj6wiQYEh
vEBwZnzBN54NQRMO30BRm4LBUf4KQZFxwkCybGzBPsZxQNJc/D/VUqjBDp1cQORVlT98wJvBgmyk
QEUancC+rZjBRPW/QG1IyT8fsJrBHCvHQMejeb9dqbLBVz0bQZJltD9oFqvB8YquQIh3Jj7hKbDB
Z4AUQUcaHkAegaTBtFbMQCQTAMBcBavBYnIZQXDHoz1qd6fB2eygQDCKPb8iYZ7BZ/0JQW0LXz9G
tJbBL8+aQHzEhT4CDqbBx70LQXcXDUCAVJrBAxS5QASx8L9n26DB6twQQW7dQL7hQ53B/MfDQDGH
QUCL5ovB6tTRQFBfjUDu+ZzB9j3uQNI4pkA/kovBrx2bQNHEMEAtdpLBXHS/QFCnUUDv2aPBVibk
QLFOfEDTGJLBWwukQE06e0AnvKzB3fCpQA47kcCA/YzB4bJjQG/EVsBQu5fBDFwRQUsxvUBjkHvB
suiFQDIlwz8NiKLBXNmgQK6hdsBLwJfBhlgHQZNSUUCOg5PBfUUHQSS/mUBEwYPBQymoQEskEUDG
DJ3BCH4rQflaiEBeNI3BeMYYQdljHUALuoHBlq3AQKh3M8BH9JjB65kPQboXu79or5nBAiUYQWCH
Z0Cn8ojB8BbWQHT0h792bLrBscghQQCczj8Q6rLBks2qQGBrdD8H9rXBBwsWQYVZX0DwP6fB+wHf
QNcoOMD48qzBkKceQV3sO78ag6zBIfuSQBZlIr8ChZbBz18DQVFCKj8Q5Y7Blte6QI4UYUClW4TB
1l/TQFP+A0BVJYrBIajrQI0EnUDUf6HBpSO4QKubpEAQapvBK736QFiWv0Dpz5DB4kTRQKu5sUDt
e4fBkTqHQH+AAED+a47B8syIQN15bEAUV5PBhH3aQKAJMUDdvafB9kaWQAb1SEAz2LHBBBeKQKBX
kEB9EqnBgEG4QE7UkkB3nLHBMzLLQMnBnMD124zB9hqlQLdYdMCrc4bB6QWUQFV1rMBB84vB3IBV
QAQlN8AfZJ/BRF44QErIhsCXpJbBXYhaQKH+KMAAJZHBCNIiQQjJuECzanvBqHENQaLH20ASrIHB
vFILQWFrvUAuCGvB8MVzQJ7TBUBDc6nBd6NWQCMtqD9RBJ3BH5CkQPYIk8DGL57BJVe+QB+TyT+6
dpvBuo7LQDVbW78uxLLBTTYRQQ71RL6L55zBaK2xQOZVeT50H7DB0xgKQQjiXj8kb5bBEGnPQIHG
97+6lqvBwy8aQTHylD0nBqfBaumfQIRLTr+lE5/BYbQUQROiHUB5QqTBB6qbQN2fhD7bSqbB5MUL
QXf8DEC3IJrB2F+5QDl79r+cvaHBU+UbQTZZsz9Rs6rBv5bDQLRsQUA314vBW4/RQNsljUD28pzB
lpPtQOt5pkCkmovBigSbQBjRL0ABaJLB3Aq/QJ1dUUB0zqPBbtfjQP5MfEA/D5LBgO+iQCiie0Bs
g6zB74tmQPeAa8CYsZjBquqsQOv9jcD6E4zB5wYRQaGJvkDx6HvBuyaGQBTwvz9udaLBoJmdQP+0
UcBcIZPBNkMHQQ/FUUB6aZPByfkGQbCdmkBlw4PBGDaoQDVAEEAD/JzBN2ErQYhiiEBd9YzBBzAY
QbzSHkCPd4HBLhe/QN06QMDf65rBRc8kQaa51D9PVLTB9toXQR5uaECixojBPnzcQM4UYL8oTLrB
tsoPQavymr/EHJrBBK6uQKBgiT8omrXB4FoDQV8aKz8spY7Bj2njQHbOMcCSpK3B5MEfQSPuPb8q
96vBAqyPQEZBRb+OdJfBzQgWQWO5XkDcFqfBLn26QFI6YUCfU4TBd1vTQIkrBEAVCIrBL3DrQHaj
nECEfKHB8vK3QMR+pEBUaJvB+db5QPHLv0CO5JDB6XzQQB7UsUC6iofB21aHQDqG/j9DW47B7G+I
QKcta0B4TZPB/uLZQOZEMUAq2KfBW+yUQHTESUCopLHBzyiJQMBAkEDfrqjBabu2QLVbk0AXaLHB
pDlQQIR7NsAfxJ3BTmhxQKpFksBqq53B0dQ1QOzXecBWmZLBPQHLQDEGhcBZGYjBfneUQFsflcDm
AIbBPEGyQA55qsD6EpHBjX0iQYouukA8s3vB8BkNQc7P3EAs/oHBffgKQYJhv0DgY2vBq4lyQDTV
BECTOqnBby5YQLO7oD+935zB8eKXQOoWGcBfGY7BCqe+QC3XyD+qZpvB

>  <OMEGA_E>  (1) 
WB4DPvDPCD6wgS8+QJrXPQ==

>  <OMEGA_NBR>  (1) 
      4478

$$$$
50220693
     RDKit          3D

 66 69  0  0  1  0  0  0  0  0999 V2000
    9.1855   -0.4265  -19.8105 C   0  0  0  0  0  0  0  0  0  0  0  0
    5.5984    0.1634  -22.0561 C   0  0  0  0  0  0  0  0  0  0  0  0
    8.7153    0.5957  -18.9640 C   0  0  0  0  0  0  0  0  0  0  0  0
    6.4523   -0.8993  -22.3876 C   0  0  0  0  0  0  0  0  0  0  0  0
    9.6582   -0.1113  -21.1001 C   0  0  0  0  0  0  0  0  0  0  0  0
    5.0113   -0.9581  -19.9722 C   0  0  0  0  0  0  0  0  0  0  0  0
    9.1981    2.2485  -20.6951 C   0  0  0  0  0  0  0  0  0  0  0  0
    4.8761    0.1278  -20.8480 C   0  0  0  0  0  0  0  0  0  0  0  0
    8.7197    1.9370  -19.4066 C   0  0  0  0  0  0  0  0  0  0  0  0
    6.5806   -1.9979  -21.5158 C   0  0  0  0  0  0  0  0  0  0  0  0
    5.8524   -2.0452  -20.3060 C   0  0  0  0  0  0  0  0  0  0  0  0
    9.6576    1.2264  -21.5438 C   0  0  0  0  0  0  0  0  0  0  0  0
    6.0864    2.9217  -17.5991 C   0  0  0  0  0  0  0  0  0  0  0  0
    6.6330    4.2125  -19.7776 C   0  0  0  0  0  0  0  0  0  0  0  0
    7.5556    4.9963  -17.6155 C   0  0  0  0  0  0  0  0  0  0  0  0
    4.8070    2.7101  -18.4185 C   0  0  0  0  0  0  0  0  0  0  0  0
    5.9507    3.0971  -20.5971 C   0  0  2  0  0  0  0  0  0  0  0  0
    7.1627    3.7434  -18.3958 C   0  0  1  0  0  0  0  0  0  0  0  0
    5.0467    3.7886  -21.6440 C   0  0  0  0  0  0  0  0  0  0  0  0
    3.7129   -3.8899  -19.1296 C   0  0  0  0  0  0  0  0  0  0  0  0
    5.5652   -4.5246  -17.5536 C   0  0  0  0  0  0  0  0  0  0  0  0
    9.1634    5.6263  -15.8253 C   0  0  0  0  0  0  0  0  0  0  0  0
    4.1684    1.3441  -20.3522 C   0  0  0  0  0  0  0  0  0  0  0  0
    5.0279   -3.4170  -18.4673 C   0  0  0  0  0  0  0  0  0  0  0  0
    8.4445    2.9728  -18.5195 N   0  0  0  0  0  0  0  0  0  0  0  0
    8.5002    4.5553  -16.5962 N   0  0  0  0  0  0  0  0  0  0  0  0
    5.2240    2.1345  -19.6988 N   0  0  2  0  0  0  0  0  0  0  0  0
   10.7417    3.8888  -17.7560 O   0  0  0  0  0  0  0  0  0  0  0  0
    9.4987    2.1758  -16.2733 O   0  0  0  0  0  0  0  0  0  0  0  0
    7.4252   -3.0110  -21.8414 O   0  0  0  0  0  0  0  0  0  0  0  0
    6.0437   -3.1384  -19.4700 O   0  0  0  0  0  0  0  0  0  0  0  0
   10.1192    1.5350  -22.7763 F   0  0  0  0  0  0  0  0  0  0  0  0
    9.5076    3.3100  -17.2069 S   0  0  0  0  0  0  0  0  0  0  0  0
    9.1838   -1.4519  -19.4715 H   0  0  0  0  0  0  0  0  0  0  0  0
    5.4956    1.0052  -22.7248 H   0  0  0  0  0  0  0  0  0  0  0  0
    8.3512    0.3542  -17.9763 H   0  0  0  0  0  0  0  0  0  0  0  0
    7.0112   -0.8749  -23.3115 H   0  0  0  0  0  0  0  0  0  0  0  0
   10.0211   -0.8950  -21.7486 H   0  0  0  0  0  0  0  0  0  0  0  0
    4.4703   -0.9648  -19.0375 H   0  0  0  0  0  0  0  0  0  0  0  0
    9.2117    3.2747  -21.0312 H   0  0  0  0  0  0  0  0  0  0  0  0
    5.8328    3.4668  -16.6780 H   0  0  0  0  0  0  0  0  0  0  0  0
    6.5091    1.9398  -17.3395 H   0  0  0  0  0  0  0  0  0  0  0  0
    7.4815    4.6007  -20.3601 H   0  0  0  0  0  0  0  0  0  0  0  0
    5.9021    5.0180  -19.6131 H   0  0  0  0  0  0  0  0  0  0  0  0
    8.0296    5.7300  -18.2841 H   0  0  0  0  0  0  0  0  0  0  0  0
    6.6692    5.4475  -17.1455 H   0  0  0  0  0  0  0  0  0  0  0  0
    4.1297    2.0199  -17.8942 H   0  0  0  0  0  0  0  0  0  0  0  0
    4.2971    3.6709  -18.5819 H   0  0  0  0  0  0  0  0  0  0  0  0
    6.7340    2.5455  -21.1376 H   0  0  0  0  0  0  0  0  0  0  0  0
    4.5392    3.0254  -22.2523 H   0  0  0  0  0  0  0  0  0  0  0  0
    4.2957    4.4059  -21.1292 H   0  0  0  0  0  0  0  0  0  0  0  0
    5.6620    4.4268  -22.2952 H   0  0  0  0  0  0  0  0  0  0  0  0
    3.3261   -3.0961  -19.7856 H   0  0  0  0  0  0  0  0  0  0  0  0
    3.9066   -4.7948  -19.7241 H   0  0  0  0  0  0  0  0  0  0  0  0
    2.9703   -4.1153  -18.3500 H   0  0  0  0  0  0  0  0  0  0  0  0
    6.5007   -4.1897  -17.0817 H   0  0  0  0  0  0  0  0  0  0  0  0
    4.8219   -4.7498  -16.7746 H   0  0  0  0  0  0  0  0  0  0  0  0
    5.7582   -5.4293  -18.1488 H   0  0  0  0  0  0  0  0  0  0  0  0
   10.2441    5.4273  -15.7751 H   0  0  0  0  0  0  0  0  0  0  0  0
    8.9914    6.5939  -16.3193 H   0  0  0  0  0  0  0  0  0  0  0  0
    8.7484    5.6557  -14.8070 H   0  0  0  0  0  0  0  0  0  0  0  0
    3.7225    1.9038  -21.1876 H   0  0  0  0  0  0  0  0  0  0  0  0
    3.3826    1.0720  -19.6322 H   0  0  0  0  0  0  0  0  0  0  0  0
    4.8256   -2.5176  -17.8673 H   0  0  0  0  0  0  0  0  0  0  0  0
    5.9207    1.4605  -19.4529 H   0  0  0  0  0  0  0  0  0  0  0  0
    7.4030   -3.6734  -21.1608 H   0  0  0  0  0  0  0  0  0  0  0  0
  1  3  2  0
  1  5  1  0
  2  4  2  0
  2  8  1  0
  3  9  1  0
  4 10  1  0
  5 12  2  0
  6  8  2  0
  6 11  1  0
  7  9  2  0
  7 12  1  0
  8 23  1  0
  9 25  1  0
 10 11  2  0
 10 30  1  0
 11 31  1  0
 12 32  1  0
 13 16  1  0
 13 18  1  0
 14 17  1  0
 14 18  1  0
 15 18  1  0
 15 26  1  0
 16 27  1  0
 17 19  1  0
 17 27  1  0
 18 25  1  6
 20 24  1  0
 21 24  1  0
 22 26  1  0
 23 27  1  0
 24 31  1  0
 25 33  1  0
 26 33  1  0
 28 33  2  0
 29 33  2  0
  1 34  1  0
  2 35  1  0
  3 36  1  0
  4 37  1  0
  5 38  1  0
  6 39  1  0
  7 40  1  0
 13 41  1  0
 13 42  1  0
 14 43  1  0
 14 44  1  0
 15 45  1  0
 15 46  1  0
 16 47  1  0
 16 48  1  0
 17 49  1  6
 19 50  1  0
 19 51  1  0
 19 52  1  0
 20 53  1  0
 20 54  1  0
 20 55  1  0
 21 56  1  0
 21 57  1  0
 21 58  1  0
 22 59  1  0
 22 60  1  0
 22 61  1  0
 23 62  1  0
 23 63  1  0
 24 64  1  0
 27 65  1  1
 30 66  1  0
M  CHG  1  27   1
M  END
>  <OMEGA_C>  (2) 
r/cSQVBg2r7fe57BNiazQHpLJz7vcrDBuHELQQiBGD8/tpfBbXnOQNw6Zr/oGbPBFogaQe4B5L0b
zajBkFygQJJEdb8gx5/BPysTQf/mD0B9j6XB+gicQDLVAj66yKbB54MLQT/x9z+nQJvBrJTSQBm7
/79aIKzBK0e7QNDkAsCycqLBaYUaQd76nD/CWazBMcTCQLz8OkD5yozBxEHUQDDNhkBxOJ7BO8fx
QL/hn0CC7IzBK9OZQKZxLUAYWZPBFGy+QCw3RkDixqTBtzTlQKWUb0CGKpPBen6hQHF4ckDmJq3B
m59tQG/zeMBaCZnBDBayQHLJkMDGbYzBSZ0SQX4KtEA7NH3Bt2OFQIgMrD9P0aLB3+SgQPCwWsAX
vZPB0BwHQRNDPkD7J5TBrQAIQfbEkUAaxYTBRiunQBCbCEA3l53B590rQX3ieEBIDI7BsvoXQXVA
C0DML4LBKpvtQN+zQMAuu67BSmbBQPfbSMCLwpvBQeghQUx8xD/DNbbBNB8YQdbXU0Cvp4nB+fAS
QfnYub+exZvBrduvQCirgD9czLXBkJ4FQUlXtT52z4/BFlzgQEX8X7/cfbrBZlYgQWchZb8x/a3B
Dw2PQBL8dr/MTJjB72ITQU2VUUDtP6jBZqa6QGPgXUB+bIXBPUrQQGVM+D9ct4rBlGjvQB05k0CM
4aLBN968QFOToECW55zBV3kAQfZbt0DERZLBcmrVQPNRrkAQKonBVyaEQLpGAUA9J4/Bc4GJQD3w
akCsp5TBJ33XQM/pIkDOGanBe0GRQD+gQUC0BLLBmnaJQCP9jEChCKnBHC+1QH2ojUCSXLLBTt5U
QAMnRsDqSJ7B1AV6QD5vmcD+yp3Bnxk+QMCwg8C6zJLB9QXQQF4ShsBpp4jBO02aQHX+l8BkMobB
VkO4QPS8rcCoMJHBxOcjQTmsrUCkZnzB+twPQVoB00D/jYLBkPkLQTv7tEBG6WzBgj1uQGmw8z85
gKnBwXtYQJQ4iT/JDp3BbWuaQIMgIcAr8I7BPHa9QADzuj90n5vBsOXsQGsZa8BhSanB2oIaQUa3
mD8nXqzBDtOxQIsLIz4mnrDBzEkTQRegDkD7p6XB9YbNQOY1Zb9mPbPBkZkaQXrxC776p6jB57Wf
QCKhdL/e35/B180LQWW8GT+SlZfBg/SaQJkuAD4x6qbBn9kLQYvH9z8ZQ5vB+ivSQF46/r/fNazB
B9u6QLRlAsDXiaLB+j4TQZiS3b7VQ57BMJrDQHh+NkDR1YzBG/bTQNwohkBUHJ7BFLrwQDfrnkB8
u4zBaS+aQILIKkDTQJPBakm+QNhMRUC+vqTBmkblQOi1bUAsHpPByp6hQIQYckBnIq3BuL9sQBnJ
dcANoZjBObWyQCyNkMCfgYzBGiQSQTIVtEAiD33BHKGEQH4lrD/R5aLBVGChQDg3WcBlo5PBXHcH
QcrsPkCgQZTBCdEHQSdkkUD8rYTBPNSmQFlfB0DGo53B7u8rQVBbe0Cg7o3BUWMYQU5aC0CHSoLB
K9rtQJ4RP8B7u67BXy3BQDZZSMD93JvB6I4TQcaL2r/uqJrBVksYQdWVVEBbqYnBPPwfQZ5/tT/n
XLTBkg6uQKxnfj86BbbBdXATQXP6T0Dyd6jBaEnfQOHUXr8sprrBwU4gQRYWbr/jxq3BBI6OQHdd
dr/XX5jBtg4GQX6Dvj7DpI/Bcwa8QCezVkAmPoXBBnvRQDZb7j9ILIvBjeruQA4Ck0AxxaLBY2S8
QK+un0CasZzBy/T+QHY2t0ClA5LByQHUQA0srED73ojBHJGEQHqg/D8VF4/BcBCKQL3BaECZV5TB
R3LXQJcoIkBBDqnBpHeRQImPQUAFEbLBOoSJQBC+jEBwBqnBwXy1QJyQjUBNR7LB+KRTQMpcQsBI
wZ3BMe52QF7fl8CXdZ3BBoU+QNfKgcBqOJLBn0nRQPyFhsD08IjB24ebQKNtl8A3HIbBcby3QCuC
rcBjWZHBWIEjQSl+rkD8ZnzBXvoOQTr00kBYc4LBoJ8LQYGktEB2tmzB8SBtQMsm9T/gjKnBJMZW
QBHmiT9vJp3B5QKcQBakH8BGwY7BgfG8QJLjtj/g05vBs27tQKw2acBmQanBmR4SQTu8376+N57B
0x6wQGzY2D3Zj7DBcBILQRvMGz/6i5fBblPLQE0ndb+OUrPB4q4ZQcHIG77elqjBhsGgQOVFeb/L
f5/ByCgTQZtMDkCtoKXBC8KaQIG1vD0no6bBIKELQUrO+D9sPpvBVOnQQAdTAsD2M6zBsta6QDUM
BMDlWKLBMRUaQQzSlj95TqzBPhXEQBbSOEBit4zB+rLTQDZ4hkCeJp7BKoPxQJzpn0Ae5YzBsdma
QJ9MKkBmG5PBvRS+QPj7REDJrqTBB4blQJdVb0CAKJPBZI6gQNO0cECk+azBeDKsQOH1iMDzwovB
CGhpQBoFZcDpGJnBo8ISQTPNtEBlc33BGBOFQKT6qD9olaLBfEOkQPZLf8CiqpfBM4kHQdVKQEBx
U5TB9BQIQUBAkkDuxoTBRHSnQGJ7BkAeeZ3BsEAsQUTXd0C9mY3BlzYXQSrxCkDiJoLBzDDtQHpU
QcA/qa7BUgTFQJdqQcCd1ZrBNWghQcOEuj+wO7bBYhcYQTPmU0AnjYnBV7oRQbF/ur+8YpvB7pir
QM4+bj8tBrbBUj0FQQzNxz6Hmo/BCfTbQI7ecr9+5brBwCwfQfsMdL/ssK3BV0SRQGUtdb/NxpfB
Y50TQaCPT0D7dqjBrye8QMevWkCoQoXB71zSQI2s9D+Ay4rBJWLuQBtok0BM5KLBbPO7QMLTn0BJ
vJzB+hQAQb63t0BPPpLBhvfUQObMrUC4F4nBid2FQOhp+j/i2I7Bs/WJQA9dZ0BrRJTBsDnXQGJ4
IkDNE6nBzHKQQDyRP0CD0rHBbG6IQDTAi0BCyajBPMqzQBQWjUD1NrLB/MvNQKVXksA0lorBDFWl
QHYkWMAoCYfB5SGXQD0io8DfIonBo8tcQNdnV8AIlqHBjsw/QAbKjMClaJbB3DJcQAl0K8DvTpTB
vgokQVdZrkDwnXzBBQ0QQVuR00DUx4LBViIMQUU4tkBCKW3BqlFtQL9Q8T/GN6nBlk9YQAirhz83
upzBPVipQPaLncBEIpzB6eO9QAREtj/PsJvBnlHtQLLvasCQHqnBIpMaQed6lj+nUazBxguwQF8a
2D1FdrDBfJkTQTvpDkBOwaXByXfLQMYZc79LP7PBnEcaQRxKFr4icKjBf5agQIl6fb/NcZ/BupYL
QaoTJD9uf5fBdm2aQGcvpD3PkqbBLBYMQR06/D+JU5vB2evQQORDAsDVNazBztq6QBPRBMAIXaLB
QMcSQU3I076DBp7BB/jEQL/ANEBZx4zBUdvSQM82hkDUDZ7BcQXwQHBRn0AHvIzB9TmbQF+PJ0D9
+5LBN7i9QNloRECtpKTB6lnlQNxVbkC+J5PB0l+gQHz0b0Dj/azBwnipQHg/gcCK/YrBoBxqQEkR
asB385nBGLcRQTrVtECcAH3BaaGEQF97pz9zjqLBwm2kQIhXfsA3MpfBrN4HQb2iQkBcf5TBInYH
QeYPkkAApYTBGy2nQA9UBUCpep3BpiwsQTM6ekDgG43BEMsWQYPRCkCvOYLBlfPsQBt2QcA4xK7B
QHrFQGmLQ8ABDJvB8sASQZUN179dPJrBBuEXQX/kVEBacYnBrScgQZlqsD9xVbTBcYarQCpCbz/f
4bXBjQAUQW/WT0A9tqjBLF/cQPbCbb8HyLrBJc4fQePOdL8Ycq3BeSaRQL/5er/+tpfBJK4FQT1B
3j6HjI/BmaW9QKHLU0BvGIXBVs3TQG8L7D91S4vBYR3tQNXnk0Ctz6LB7666QFoJn0CLgJzB5gn+
QLrgt0CL+ZHBvATTQEEdrEC66IjBfnuGQBXU8z8svo7BGliKQEnhZEBp65PBKCLXQE9bIkA6/6jB
KZWQQG25PkCd47HBG/2HQL8zi0D22KjBs66zQHDdjEDxLLLBP/rKQFtsiMDk+YjB32agQN6NRMDt
eYfBdqOUQJOHmsBRxYfB3GJiQPH8ZsB9sKLBKaNAQHpWjsAstJbB+ylYQK0rLMDIaJbBswwjQd4I
r0BYEXzBLcQOQUWZ00C+g4LBrPYKQWnGtUB4wWzBHXtsQBu37z/OMqnBc2hXQByNhj+csZzBLmyr
QKdBn8BlXZrBnai9QG9jsz8q2ZvBIArtQMNya8AORanB

>  <OMEGA_E>  (2) 
UEC9PSAM8T2w5vY9sGIVPg==

>  <OMEGA_NBR>  (2) 
      4530

$$$$
50220598
     RDKit          3D

 56 59  0  0  1  0  0  0  0  0999 V2000
    9.7690    1.6890  -21.7125 C   0  0  0  0  0  0  0  0  0  0  0  0
    4.9183   -1.0212  -20.1020 C   0  0  0  0  0  0  0  0  0  0  0  0
    5.9226    0.1810  -21.9792 C   0  0  0  0  0  0  0  0  0  0  0  0
    9.2394    2.5563  -20.7397 C   0  0  0  0  0  0  0  0  0  0  0  0
    5.7067   -2.1487  -20.3980 C   0  0  0  0  0  0  0  0  0  0  0  0
    6.7119   -0.9449  -22.2733 C   0  0  0  0  0  0  0  0  0  0  0  0
    9.8827    0.3118  -21.4404 C   0  0  0  0  0  0  0  0  0  0  0  0
    8.9171    0.6657  -19.2282 C   0  0  0  0  0  0  0  0  0  0  0  0
    5.0230    0.1436  -20.8938 C   0  0  0  0  0  0  0  0  0  0  0  0
    8.8029    2.0456  -19.4986 C   0  0  0  0  0  0  0  0  0  0  0  0
    6.6090   -2.1060  -21.4806 C   0  0  0  0  0  0  0  0  0  0  0  0
    9.4569   -0.1996  -20.1980 C   0  0  0  0  0  0  0  0  0  0  0  0
    6.1169    2.7776  -17.5727 C   0  0  0  0  0  0  0  0  0  0  0  0
    6.5930    4.2271  -19.6037 C   0  0  0  0  0  0  0  0  0  0  0  0
    7.5395    4.8494  -17.3858 C   0  0  0  0  0  0  0  0  0  0  0  0
    5.5684    1.7144  -18.5204 C   0  0  0  0  0  0  0  0  0  0  0  0
    5.9521    3.1515  -20.5048 C   0  0  2  0  0  0  0  0  0  0  0  0
    7.1706    3.6665  -18.2810 C   0  0  1  0  0  0  0  0  0  0  0  0
    5.2798    3.8875  -21.6839 C   0  0  0  0  0  0  0  0  0  0  0  0
    9.1192    5.3308  -15.5215 C   0  0  0  0  0  0  0  0  0  0  0  0
    4.2005    1.3633  -20.5381 C   0  0  0  0  0  0  0  0  0  0  0  0
    8.4647    2.9224  -18.4736 N   0  0  0  0  0  0  0  0  0  0  0  0
    8.5098    4.3342  -16.4260 N   0  0  0  0  0  0  0  0  0  0  0  0
    4.9649    2.3463  -19.7203 N   0  0  1  0  0  0  0  0  0  0  0  0
    9.7317    2.0405  -16.3729 O   0  0  0  0  0  0  0  0  0  0  0  0
   10.7207    3.9835  -17.7602 O   0  0  0  0  0  0  0  0  0  0  0  0
    7.3915   -3.1802  -21.7567 O   0  0  0  0  0  0  0  0  0  0  0  0
    9.5913   -1.5169  -19.9263 F   0  0  0  0  0  0  0  0  0  0  0  0
    9.5802    3.2462  -17.1986 S   0  0  0  0  0  0  0  0  0  0  0  0
   10.0883    2.0791  -22.6677 H   0  0  0  0  0  0  0  0  0  0  0  0
    4.2322   -1.0467  -19.2683 H   0  0  0  0  0  0  0  0  0  0  0  0
    6.0050    1.0724  -22.5833 H   0  0  0  0  0  0  0  0  0  0  0  0
    9.1668    3.6145  -20.9430 H   0  0  0  0  0  0  0  0  0  0  0  0
    5.6210   -3.0429  -19.7984 H   0  0  0  0  0  0  0  0  0  0  0  0
    7.3976   -0.9201  -23.1074 H   0  0  0  0  0  0  0  0  0  0  0  0
   10.2965   -0.3529  -22.1842 H   0  0  0  0  0  0  0  0  0  0  0  0
    8.5901    0.2732  -18.2767 H   0  0  0  0  0  0  0  0  0  0  0  0
    5.2876    3.4112  -17.2251 H   0  0  0  0  0  0  0  0  0  0  0  0
    6.5863    2.2822  -16.7100 H   0  0  0  0  0  0  0  0  0  0  0  0
    7.4092    4.7077  -20.1631 H   0  0  0  0  0  0  0  0  0  0  0  0
    5.8261    4.9764  -19.3579 H   0  0  0  0  0  0  0  0  0  0  0  0
    7.9846    5.6582  -17.9839 H   0  0  0  0  0  0  0  0  0  0  0  0
    6.6480    5.2274  -16.8638 H   0  0  0  0  0  0  0  0  0  0  0  0
    6.3886    1.0520  -18.8344 H   0  0  0  0  0  0  0  0  0  0  0  0
    4.8009    1.1250  -17.9974 H   0  0  0  0  0  0  0  0  0  0  0  0
    6.7414    2.4924  -20.8955 H   0  0  0  0  0  0  0  0  0  0  0  0
    4.8083    3.1536  -22.3540 H   0  0  0  0  0  0  0  0  0  0  0  0
    4.5139    4.5760  -21.2973 H   0  0  0  0  0  0  0  0  0  0  0  0
    6.0382    4.4578  -22.2403 H   0  0  0  0  0  0  0  0  0  0  0  0
   10.2102    5.1910  -15.5027 H   0  0  0  0  0  0  0  0  0  0  0  0
    8.8857    6.3437  -15.8815 H   0  0  0  0  0  0  0  0  0  0  0  0
    8.7154    5.2001  -14.5067 H   0  0  0  0  0  0  0  0  0  0  0  0
    3.8762    1.8538  -21.4677 H   0  0  0  0  0  0  0  0  0  0  0  0
    3.3178    1.0396  -19.9671 H   0  0  0  0  0  0  0  0  0  0  0  0
    4.2908    3.0003  -19.3770 H   0  0  0  0  0  0  0  0  0  0  0  0
    7.9376   -2.9894  -22.5103 H   0  0  0  0  0  0  0  0  0  0  0  0
  1  4  2  0
  1  7  1  0
  2  5  2  0
  2  9  1  0
  3  6  1  0
  3  9  2  0
  4 10  1  0
  5 11  1  0
  6 11  2  0
  7 12  2  0
  8 10  2  0
  8 12  1  0
  9 21  1  0
 10 22  1  0
 11 27  1  0
 12 28  1  0
 13 16  1  0
 13 18  1  0
 14 17  1  0
 14 18  1  0
 15 18  1  0
 15 23  1  0
 16 24  1  0
 17 19  1  0
 17 24  1  0
 18 22  1  6
 20 23  1  0
 21 24  1  0
 22 29  1  0
 23 29  1  0
 25 29  2  0
 26 29  2  0
  1 30  1  0
  2 31  1  0
  3 32  1  0
  4 33  1  0
  5 34  1  0
  6 35  1  0
  7 36  1  0
  8 37  1  0
 13 38  1  0
 13 39  1  0
 14 40  1  0
 14 41  1  0
 15 42  1  0
 15 43  1  0
 16 44  1  0
 16 45  1  0
 17 46  1  6
 19 47  1  0
 19 48  1  0
 19 49  1  0
 20 50  1  0
 20 51  1  0
 20 52  1  0
 21 53  1  0
 21 54  1  0
 24 55  1  1
 27 56  1  0
M  CHG  1  24   1
M  END
>  <OMEGA_C>  (3) 
4k0cQaAw2D9Cs63BomKdQFi2gr/q0KDBjoW9QABOOT551a/Bn9QTQQCaI0Dy6qXBm522QCeECcAU
L6PBrsfWQHrmcb/IL7LBpB8eQcidnz7ehavBYqwOQXBpKj9005nBq7ygQHAFEz6IJqfBotgMQVzq
AkAI/ZvBTX3TQIXJBsA72KvBXU8XQaBdTL5ylaHBY73DQFDEMUDllIzB3PnSQHJEh0BW1JzBdkPx
QHgum0AYFovBUTCyQJBw2z/OKZTBqHe+QMyxSUDgCaTBgnXlQPinakBzP5LBKvSoQFrNeECQeK3B
begRQT6WqkA8WHjBo2qGQLCArj8MTqTBjW8HQSAIO0DqyZPBTCgIQSayikB6aIPB1uCeQFAqFkAf
w53B6LQbQUiXAkDE+4LB0IcrQRDxfkDcFI7BCIfsQCKIS8DLDa7BxHUZQXwqwr8VaZ/BdUgZQSzB
T0CwlonBmGkhQTgPBUBpV7XBem6HQNr4hb93JZrBCSnAQDZFiT+ZqrTBCasSQcBTZ0Awi6fBb9+z
QFW+QsAhY57B57jsQLaLa7/g27jBm74kQb20tL5RebHBG3EJQcHbiz60NpLB/zOpQNtRWkAOzYnB
xMLSQF0PEkAgroXB4BftQGyllkD1TaHBPG+6QIY+n0Dz3JrBDIL/QPsPtUAD34/BqLzUQLFGp0AY
6YbBLG/MQOqnhj/SrJbBoqCZQO3/jz+4+o/BvrnXQCWEH0AJKqfBtd2ZQEfVSUAH1bLB+XGQQK9u
kkDyYKrBDDnBQDWmjkAn7LHB0lwjQekcpkBCC3jBrisOQZj/ykCIGn7BX3ILQXdnpkCRG2jBKBR4
QChK7T/xvavBwVZUQGoShT+nvJ/BHk6JQBQFQEAkBJvBegD+QOJRP8AkFbTBhaUWQXC+Wr6Lr6HB
cgCeQJQ6gr+RsKDBcbW9QDBPND62zq/BJSQOQQDZJj/P45nB2Re3QAtwCcDgE6PBPdLWQBrJc7+b
LrLBfe0dQeg4nD7bg6vBtiQUQRpuI0ArxKXBwyehQIAVEz6WE6fBlLwMQcJaAkA185vBE6bTQMkZ
B8CyzqvBw6ccQWA82D8hjK3BL4PDQG77MkDskozBgEfTQNlUh0A535zBtbHxQCNTm0CSIYvBJ/Sx
QDRL3T9pG5TBkLm+QCakSUB6DaTBqYrlQKLxakAvQZLBcHSpQKpjeEAtjK3BlkISQd1/qkBohHjB
H66GQFxurj//SaTBzFgHQZ5XOkBsvpPB/EoIQX6mikBjboPBdPGeQHKPFkArxp3BtFQbQfpXAUBc
7oLBFZ4rQdaUfEBxEI7BnYHsQG4KTMABDa7B4AokQQp5DEAG37bBDjQZQTaGTkDijonBjJcXQQ0h
o7+vIqDBU0+IQPbehL8x95nB/0jAQFpviD9XqbTB3a8IQZ77gj4AVJLBpHy0QGF9QsBlPp7BwI/s
QCxnbr915bjBSXwkQfJft75bfrHBCUcTQTVZZ0CQT6fBOwqpQFgWXEAZ4onBhUDSQFiYE0CqnIXB
roTtQJmElkD1V6HB2c+6QDhyn0Aw9JrB2hgAQa79tECy8I/BgUfVQIXCp0Bj+IbB5CXMQE6phz/d
iZbBlDaZQGLokj9a6o/BK/XXQFoiH0D3HqfBKVyaQIU9SUD84bLBBvyQQHNokkC5hKrB4d3BQO44
jkCkAbLBvq8jQRuapUD0OXjBe7YOQVXrykA7Yn7BhMwLQaazpkCxQWjBk594QAB97D80wKvBd9xU
QBLzhD9OuZ/BVk2JQDebQEC+G5vBwcT9QEQRQMAAILTB

>  <OMEGA_E>  (3) 
7A2yPrjGrj4=

>  <OMEGA_NBR>  (3) 
      6696

$$$$
50220691
     RDKit          3D

 63 66  0  0  1  0  0  0  0  0999 V2000
    9.3199   -0.4942  -19.8639 C   0  0  0  0  0  0  0  0  0  0  0  0
    5.7456    0.1913  -22.0086 C   0  0  0  0  0  0  0  0  0  0  0  0
    8.8179    0.4945  -18.9968 C   0  0  0  0  0  0  0  0  0  0  0  0
    6.5894   -0.8817  -22.3330 C   0  0  0  0  0  0  0  0  0  0  0  0
    9.7445   -0.1428  -21.1606 C   0  0  0  0  0  0  0  0  0  0  0  0
    5.0575   -0.9609  -19.9730 C   0  0  0  0  0  0  0  0  0  0  0  0
    9.1632    2.1848  -20.7239 C   0  0  0  0  0  0  0  0  0  0  0  0
    4.9819    0.1542  -20.8241 C   0  0  0  0  0  0  0  0  0  0  0  0
    8.7294    1.8358  -19.4285 C   0  0  0  0  0  0  0  0  0  0  0  0
    6.6690   -1.9979  -21.4801 C   0  0  0  0  0  0  0  0  0  0  0  0
    5.8958   -2.0551  -20.3000 C   0  0  0  0  0  0  0  0  0  0  0  0
    9.6618    1.1968  -21.5909 C   0  0  0  0  0  0  0  0  0  0  0  0
    6.1093    2.9282  -17.5936 C   0  0  0  0  0  0  0  0  0  0  0  0
    6.6490    4.1450  -19.7557 C   0  0  0  0  0  0  0  0  0  0  0  0
    7.6412    4.9307  -17.6250 C   0  0  0  0  0  0  0  0  0  0  0  0
    5.5038    1.8070  -18.4350 C   0  0  0  0  0  0  0  0  0  0  0  0
    5.9229    3.0449  -20.5464 C   0  0  2  0  0  0  0  0  0  0  0  0
    7.2049    3.6798  -18.3887 C   0  0  1  0  0  0  0  0  0  0  0  0
    5.2531    3.7311  -21.7598 C   0  0  0  0  0  0  0  0  0  0  0  0
    5.3545   -4.6491  -17.7064 C   0  0  0  0  0  0  0  0  0  0  0  0
    9.3206    5.5727  -15.9132 C   0  0  0  0  0  0  0  0  0  0  0  0
    4.1240    1.3299  -20.4144 C   0  0  0  0  0  0  0  0  0  0  0  0
    4.9903   -3.4011  -18.5061 C   0  0  0  0  0  0  0  0  0  0  0  0
    8.4501    2.8373  -18.5051 N   0  0  0  0  0  0  0  0  0  0  0  0
    8.6427    4.4954  -16.6632 N   0  0  0  0  0  0  0  0  0  0  0  0
    4.9150    2.3544  -19.6845 N   0  0  1  0  0  0  0  0  0  0  0  0
    9.8591    2.2155  -16.4078 O   0  0  0  0  0  0  0  0  0  0  0  0
   10.7496    3.9569  -18.0975 O   0  0  0  0  0  0  0  0  0  0  0  0
    7.4962   -3.0266  -21.8042 O   0  0  0  0  0  0  0  0  0  0  0  0
    6.0128   -3.1847  -19.5044 O   0  0  0  0  0  0  0  0  0  0  0  0
   10.0875    1.5415  -22.8266 F   0  0  0  0  0  0  0  0  0  0  0  0
    9.6516    3.3097  -17.3659 S   0  0  0  0  0  0  0  0  0  0  0  0
    9.3794   -1.5214  -19.5355 H   0  0  0  0  0  0  0  0  0  0  0  0
    5.6810    1.0455  -22.6663 H   0  0  0  0  0  0  0  0  0  0  0  0
    8.5000    0.2267  -18.0000 H   0  0  0  0  0  0  0  0  0  0  0  0
    7.1783   -0.8508  -23.2378 H   0  0  0  0  0  0  0  0  0  0  0  0
   10.1335   -0.9002  -21.8250 H   0  0  0  0  0  0  0  0  0  0  0  0
    4.4736   -0.9841  -19.0647 H   0  0  0  0  0  0  0  0  0  0  0  0
    9.1123    3.2129  -21.0507 H   0  0  0  0  0  0  0  0  0  0  0  0
    5.3165    3.6372  -17.3129 H   0  0  0  0  0  0  0  0  0  0  0  0
    6.5545    2.4973  -16.6847 H   0  0  0  0  0  0  0  0  0  0  0  0
    7.4897    4.5099  -20.3642 H   0  0  0  0  0  0  0  0  0  0  0  0
    5.9405    4.9676  -19.5785 H   0  0  0  0  0  0  0  0  0  0  0  0
    8.0736    5.6680  -18.3174 H   0  0  0  0  0  0  0  0  0  0  0  0
    6.7817    5.3775  -17.1036 H   0  0  0  0  0  0  0  0  0  0  0  0
    6.2904    1.0824  -18.6925 H   0  0  0  0  0  0  0  0  0  0  0  0
    4.7170    1.3032  -17.8544 H   0  0  0  0  0  0  0  0  0  0  0  0
    6.6614    2.3153  -20.9101 H   0  0  0  0  0  0  0  0  0  0  0  0
    4.7185    2.9787  -22.3582 H   0  0  0  0  0  0  0  0  0  0  0  0
    4.5408    4.4903  -21.4044 H   0  0  0  0  0  0  0  0  0  0  0  0
    6.0235    4.2128  -22.3798 H   0  0  0  0  0  0  0  0  0  0  0  0
    4.5868   -4.8310  -16.9398 H   0  0  0  0  0  0  0  0  0  0  0  0
    5.4094   -5.5148  -18.3828 H   0  0  0  0  0  0  0  0  0  0  0  0
    6.3301   -4.5012  -17.2202 H   0  0  0  0  0  0  0  0  0  0  0  0
   10.4084    5.4118  -15.9420 H   0  0  0  0  0  0  0  0  0  0  0  0
    9.0815    6.5442  -16.3704 H   0  0  0  0  0  0  0  0  0  0  0  0
    8.9764    5.5646  -14.8684 H   0  0  0  0  0  0  0  0  0  0  0  0
    3.6915    1.7881  -21.3161 H   0  0  0  0  0  0  0  0  0  0  0  0
    3.3148    0.9713  -19.7612 H   0  0  0  0  0  0  0  0  0  0  0  0
    4.0165   -3.5453  -18.9968 H   0  0  0  0  0  0  0  0  0  0  0  0
    4.9372   -2.5317  -17.8342 H   0  0  0  0  0  0  0  0  0  0  0  0
    4.2644    3.0588  -19.4007 H   0  0  0  0  0  0  0  0  0  0  0  0
    7.4407   -3.7005  -21.1368 H   0  0  0  0  0  0  0  0  0  0  0  0
  1  3  2  0
  1  5  1  0
  2  4  2  0
  2  8  1  0
  3  9  1  0
  4 10  1  0
  5 12  2  0
  6  8  2  0
  6 11  1  0
  7  9  2  0
  7 12  1  0
  8 22  1  0
  9 24  1  0
 10 11  2  0
 10 29  1  0
 11 30  1  0
 12 31  1  0
 13 16  1  0
 13 18  1  0
 14 17  1  0
 14 18  1  0
 15 18  1  0
 15 25  1  0
 16 26  1  0
 17 19  1  0
 17 26  1  0
 18 24  1  6
 20 23  1  0
 21 25  1  0
 22 26  1  0
 23 30  1  0
 24 32  1  0
 25 32  1  0
 27 32  2  0
 28 32  2  0
  1 33  1  0
  2 34  1  0
  3 35  1  0
  4 36  1  0
  5 37  1  0
  6 38  1  0
  7 39  1  0
 13 40  1  0
 13 41  1  0
 14 42  1  0
 14 43  1  0
 15 44  1  0
 15 45  1  0
 16 46  1  0
 16 47  1  0
 17 48  1  6
 19 49  1  0
 19 50  1  0
 19 51  1  0
 20 52  1  0
 20 53  1  0
 20 54  1  0
 21 55  1  0
 21 56  1  0
 21 57  1  0
 22 58  1  0
 22 59  1  0
 23 60  1  0
 23 61  1  0
 26 62  1  1
 29 63  1  0
M  CHG  1  26   1
M  END
>  <OMEGA_C>  (4) 
HR4VQd8L/b436Z7Bttu3QJnXQz6qEbDBKxYNQfAr/T6I+ZfBstzSQJq3Yb/rqbLBg+kbQbxBEr7b
SKnB/dahQIH8db+dyJ/BWpwSQZzTC0CCyqXBqGufQIfdHT7El6bBnqsLQQf86j9+bZvBgWjVQKu5
/78/16vBUaq8QDSHA8BXZqLBz5YaQUEvmT8luqzBb3/DQPlnO0Csv4zBy8TUQAmkhECzC57BZ4T0
QLPInUDy/4zBWx+wQFVM5z/JepPBkYi9QKvfQkAJX6TBoo7mQESCa0ABHJPBOBmoQITKbkAJFK7B
AlirQCrFlMCspo3BCyEVQapTskBenH7BbveDQMU7qj+qUKPB5bCfQNmqWcBnDJTBtTMHQYaWNUB2
CpTBfEgKQWPaj0A8ToXBDkidQEWvFkD1eZ3B4L4dQTfLDUBBQ4PBQv4rQRk+fUCcx5DBm+DvQIe0
QcDtbq7BiWjAQAPSS8D6CJzBkmYhQSNRxT/znLbB+2waQdzSU0Ba7YrBJRIWQRO8wr+mSJzB48q1
QHrShT+OVLXBMwAIQeIZaD4OAJDBS7TlQKvPWb8J57nB2iIiQUh0Zr+Vma7BqiePQCTre7+DhJjB
6ssRQTOgTUDJZ6jB/CCqQKXIaEDVgIrBML7RQKjTH0A1eoXBYKvvQLlQkEDO6aLB5hi+QJb2nkCv
oJzBbi0BQfdftUAiipLBvQPZQDAUrEBF1IjBuUrJQOiMij8uipXBfPGWQFLPpj/S1Y7BWirVQLst
FEDsR6fBQP6WQOaiPkCl3bLBdk6RQMCwj0A6PKvBN8DAQHPPhkDlCbPBMseSQEKXmsDMhIfBphmt
QOJ4sMAFEJPBFZDKQJwJkMAKw4nBpIgmQeAtrUBkEn/BrU0RQdtp0UCt9oLBSp8PQQ8RskAg5W3B
/EFsQJrf5D9sh6rB9SRUQGypeD8IF57BJ4eAQLrlYsBw+ZfBlf2dQDAHIsB0rI7BBXaIQITDQ0C6
NJvB7RnuQH/UbMApGKnB29saQQ/Dmj+ZtazBoAS4QNqXPD4hE7DBr/kSQQI9DUBH0qXBZNHSQPKO
ZL/btLLB2fobQdCLAr6kM6nBEcKhQODgeL+S1Z/BIiMNQXZ0Bz/y7pfBBZKfQKjXFT7JmabBQ/gL
Qcc77z9tb5vBiyzVQMjKAMDW6avBRG28QPtqBMDKeKLB5g8VQQmu777I0p7BYfHDQB7DOkC0uYzB
a3/UQJXdhEBCBJ7B2OfzQHRMnkCM+IzBaKuwQC/s5T/geZPBZIe9QPHuQkAOVaTBBIfmQEtHbEBh
GpPB5qenQAu6bkDm+q3B3UOsQA8dlMDCcI3BBYoUQTZAs0AsVH7BTDiEQMY9qT/QR6PBgG2fQMK8
WsA3IZTBAHEHQQk3OEBVHZTBoN0JQTCekEDNL4XBfI2dQHkeFkCQbZ3BntAcQXpTDkDYAYPBgjIs
QbYVfkA4KpDBbHzvQNbYQsDVhq7BKyjAQIGwTMCoG5zBTDYWQTUU4L9jcpvBcSgaQQj3VEAfporB
yQwgQXLquz9+r7TBcR+2QM5WhT83TrXByEgSQfHsTkDzfKjBDKTlQFO+XL/N8rnBQyUiQalTZL8r
eK7BoAGPQKkUf79JlJjBDPIHQQiZiT7N9Y/BSGaqQOViZ0DIXorBGJ/SQLcBH0DJhIXBeDzvQJfN
kEB05qLBYpi9QIn4nkBvlJzB3OYAQbv4tUCyepLBMh7YQOxmrEDd4IjBgfLJQCP1iT/3lpXBlayX
QNZ4pD990o7BflHVQAC/FEC8SafBt7KWQPliPkBvxbLBV6yQQFpdj0DnE6vBaQjAQIIgh0D79LLB
0MKTQPYSmsAXTYfBuhivQEVXsMBqppLBYTXLQLXgjcDLi4nBDPMlQbocrkA/iH7Bcc8QQWU+0kCE
5YLB+MwOQQ8xs0DMsG3Ba69sQNM45D+SeqrBI7VUQKtfdj9HDZ7BnouAQHrxZsA9EZjBRKicQFsE
IsCe9o7Bjq2IQLnqQkA2GpvBN5XtQPwVbsB2NKnB

>  <OMEGA_E>  (4) 
YGXuPfj5ED4=

>  <OMEGA_NBR>  (4) 
      9058

$$$$
50220700
     RDKit          3D

 56 59  0  0  1  0  0  0  0  0999 V2000
    9.7651    1.4689  -21.6529 C   0  0  0  0  0  0  0  0  0  0  0  0
    5.8799    0.1946  -21.9700 C   0  0  0  0  0  0  0  0  0  0  0  0
    9.2572    2.4098  -20.7376 C   0  0  0  0  0  0  0  0  0  0  0  0
    6.6856   -0.9162  -22.2721 C   0  0  0  0  0  0  0  0  0  0  0  0
    9.8288    0.1065  -21.3002 C   0  0  0  0  0  0  0  0  0  0  0  0
    4.9322   -1.0134  -20.0695 C   0  0  0  0  0  0  0  0  0  0  0  0
    8.8611    0.6228  -19.1217 C   0  0  0  0  0  0  0  0  0  0  0  0
    5.0021    0.1464  -20.8674 C   0  0  0  0  0  0  0  0  0  0  0  0
    8.7989    1.9891  -19.4713 C   0  0  0  0  0  0  0  0  0  0  0  0
    6.6156   -2.0769  -21.4750 C   0  0  0  0  0  0  0  0  0  0  0  0
    9.3737   -0.3166  -20.0353 C   0  0  0  0  0  0  0  0  0  0  0  0
    5.7277   -2.1307  -20.3760 C   0  0  0  0  0  0  0  0  0  0  0  0
    6.1382    2.7966  -17.5842 C   0  0  0  0  0  0  0  0  0  0  0  0
    6.6046    4.2013  -19.6577 C   0  0  0  0  0  0  0  0  0  0  0  0
    7.5516    4.8789  -17.4635 C   0  0  0  0  0  0  0  0  0  0  0  0
    5.5663    1.7228  -18.5034 C   0  0  0  0  0  0  0  0  0  0  0  0
    5.9389    3.1143  -20.5209 C   0  0  2  0  0  0  0  0  0  0  0  0
    7.1841    3.6721  -18.3239 C   0  0  1  0  0  0  0  0  0  0  0  0
    5.2548    3.8316  -21.7060 C   0  0  0  0  0  0  0  0  0  0  0  0
    9.1465    5.4240  -15.6315 C   0  0  0  0  0  0  0  0  0  0  0  0
    4.1704    1.3509  -20.4922 C   0  0  0  0  0  0  0  0  0  0  0  0
    8.4857    2.9417  -18.5059 N   0  0  0  0  0  0  0  0  0  0  0  0
    8.5113    4.3933  -16.4781 N   0  0  0  0  0  0  0  0  0  0  0  0
    4.9531    2.3402  -19.7050 N   0  0  1  0  0  0  0  0  0  0  0  0
    9.5816    2.0287  -16.3204 O   0  0  0  0  0  0  0  0  0  0  0  0
   10.7633    3.8749  -17.6875 O   0  0  0  0  0  0  0  0  0  0  0  0
    7.4118   -3.1363  -21.7709 O   0  0  0  0  0  0  0  0  0  0  0  0
    9.4421   -1.6225  -19.6922 F   0  0  0  0  0  0  0  0  0  0  0  0
    9.5500    3.2224  -17.1762 S   0  0  0  0  0  0  0  0  0  0  0  0
    5.5878   -3.5753  -19.3948 Cl  0  0  0  0  0  0  0  0  0  0  0  0
   10.1059    1.7914  -22.6256 H   0  0  0  0  0  0  0  0  0  0  0  0
    5.9328    1.0835  -22.5811 H   0  0  0  0  0  0  0  0  0  0  0  0
    9.2183    3.4555  -21.0050 H   0  0  0  0  0  0  0  0  0  0  0  0
    7.3591   -0.8808  -23.1156 H   0  0  0  0  0  0  0  0  0  0  0  0
   10.2267   -0.6140  -21.9994 H   0  0  0  0  0  0  0  0  0  0  0  0
    4.2655   -1.0435  -19.2203 H   0  0  0  0  0  0  0  0  0  0  0  0
    8.5148    0.2981  -18.1516 H   0  0  0  0  0  0  0  0  0  0  0  0
    5.3185    3.4393  -17.2305 H   0  0  0  0  0  0  0  0  0  0  0  0
    6.6213    2.3114  -16.7234 H   0  0  0  0  0  0  0  0  0  0  0  0
    7.4240    4.6510  -20.2375 H   0  0  0  0  0  0  0  0  0  0  0  0
    5.8526    4.9705  -19.4280 H   0  0  0  0  0  0  0  0  0  0  0  0
    8.0056    5.6660  -18.0834 H   0  0  0  0  0  0  0  0  0  0  0  0
    6.6573    5.2772  -16.9620 H   0  0  0  0  0  0  0  0  0  0  0  0
    6.3750    1.0463  -18.8168 H   0  0  0  0  0  0  0  0  0  0  0  0
    4.8001    1.1510  -17.9593 H   0  0  0  0  0  0  0  0  0  0  0  0
    6.7136    2.4367  -20.9091 H   0  0  0  0  0  0  0  0  0  0  0  0
    4.7643    3.0882  -22.3515 H   0  0  0  0  0  0  0  0  0  0  0  0
    4.5031    4.5373  -21.3228 H   0  0  0  0  0  0  0  0  0  0  0  0
    6.0101    4.3805  -22.2876 H   0  0  0  0  0  0  0  0  0  0  0  0
   10.2322    5.2511  -15.5949 H   0  0  0  0  0  0  0  0  0  0  0  0
    8.9479    6.4196  -16.0550 H   0  0  0  0  0  0  0  0  0  0  0  0
    8.7322    5.3690  -14.6140 H   0  0  0  0  0  0  0  0  0  0  0  0
    3.8087    1.8340  -21.4118 H   0  0  0  0  0  0  0  0  0  0  0  0
    3.3117    1.0172  -19.8911 H   0  0  0  0  0  0  0  0  0  0  0  0
    4.2916    3.0091  -19.3658 H   0  0  0  0  0  0  0  0  0  0  0  0
    7.2516   -3.8368  -21.1495 H   0  0  0  0  0  0  0  0  0  0  0  0
  1  3  2  0
  1  5  1  0
  2  4  2  0
  2  8  1  0
  3  9  1  0
  4 10  1  0
  5 11  2  0
  6  8  2  0
  6 12  1  0
  7  9  2  0
  7 11  1  0
  8 21  1  0
  9 22  1  0
 10 12  2  0
 10 27  1  0
 11 28  1  0
 12 30  1  0
 13 16  1  0
 13 18  1  0
 14 17  1  0
 14 18  1  0
 15 18  1  0
 15 23  1  0
 16 24  1  0
 17 19  1  0
 17 24  1  0
 18 22  1  6
 20 23  1  0
 21 24  1  0
 22 29  1  0
 23 29  1  0
 25 29  2  0
 26 29  2  0
  1 31  1  0
  2 32  1  0
  3 33  1  0
  4 34  1  0
  5 35  1  0
  6 36  1  0
  7 37  1  0
 13 38  1  0
 13 39  1  0
 14 40  1  0
 14 41  1  0
 15 42  1  0
 15 43  1  0
 16 44  1  0
 16 45  1  0
 17 46  1  6
 19 47  1  0
 19 48  1  0
 19 49  1  0
 20 50  1  0
 20 51  1  0
 20 52  1  0
 21 53  1  0
 21 54  1  0
 24 55  1  1
 27 56  1  0
M  CHG  1  24   1
M  END
>  <OMEGA_C>  (5) 
tz0cQUgEvD8eOa3BeCi8QJA8Rz6mwq/Bfx0UQao6GkCS5qXBOvDVQGCLar8vLbLB80IdQYAi2j3N
ZqrBWNSdQCa2gb9UjqDBL8cNQUxvHz81+ZjBZhGgQGDfFT5W8KbBZsgMQW6a/j9MxZvBpLLTQH7s
BMDazKvBv/oVQYAbor5aSKDBRkm3QPRdCMAmAqPBwGvEQDj7MkCKrIzB+FjTQL1whkDhQp3B9Kbx
QJ8fnEBDtYvBvh6yQPyD3D8PB5TBqAu+QH5QR0DGKqTBJOTlQCIDa0BCl5LBtieoQOI4dUDepa3B
JVgSQSGRrUCWGnrBFHSFQCzqrD/y76PBmsUHQVhFPEAdDJTBWi4IQbyVjEAM04PB2H+eQDbGFUDI
o53BG04ZQdTVAUAjkILBiDYsQTL+d0AUgI3Bsi3tQKC5SMDXKq7B1RIXQYGvz7+PiZ3B6swYQYI7
TkDdaInBds+yQPTQZMCCKJvBrLEhQSFL5T9TAbXBjtm9QBmwij8eprTBBn4TQZAmXUA2CqjBvn3r
QFN5Yb+x7LjBl6AjQc4vHb/f/q/BK3+IQMaRhb9Aw5nBsDwIQbqgmD5/NpHBfTGqQMMdXEAW2InB
oOHTQC3tE0BxyYXBoZHtQE7VlEB45qHBrEi7QK8On0CkbJvB9BYAQT1QtUDGqpDBvgjVQLHeqEAc
sofBHgDMQJfrhT/liJbBZZqZQKhTkz+0rI/B9tXWQKbyG0DQRafBA3WYQJmkRUDYz7LBKRmQQEox
kUAFlarBDlPAQCMtjEDvTLLBQrcjQT0JqEDihHnBpCoPQRJtzUCWcIDB7LYLQbbOq0D10mnBbMFz
QELA6j9lS6vBAvNTQN0ygj8GIZ/BLVWJQH2VQEAk7ZrBzgzoQHOOdcA6MqnBUkgWQTw1rL5/tqDB
sJ67QMC4Rj4Dwq/B494NQRjdEj/0OJnBParVQHtKab/pI7LB11YdQQC0/D1rxKrBD0ueQAUegL/m
XqDBVowTQTi+GUA+2aXBKPifQLB/Gz772KbB8lkMQfbo+D/KzZvBzA/UQGgSBMDyqKvBa+kbQRAV
vz86Vq3BxPG3QFpeB8B5zqLBWW3DQED0NUCqp4zBvBDUQKcOhkAcYJ3BM/DyQG3/m0Co34vBEhOx
QKaw4D/P35PB026+QN5vRkC2NqTBLv7lQBiYakAjnZLB6WmpQHTUc0D82q3ByjsTQbfprEDvn3rB
mzuFQJaWrT+O4qPB+kMHQYxgN0AQ3pPBxwIJQcArjEBrIoTBnT2eQESqFkDlqp3BiIgcQQSpBUAE
F4PBsasrQYhGfUBANI/Bws3tQGuIR8D2AK7BjAYjQS59+D/u5bbBNbgZQUYqUECHHorBtQi0QPhu
Y8De3ZrByFMXQctvsb9QwZ7BdsS8QIikiT99vrTB1pIIQeAMZD4bfpHBffDqQHHQYL+w8bjBSdgj
QWfsEr/mgbDBg0CJQBWfg78khZnBSqISQdD9XEDlyqfBLHOpQP/9YED7I4rB2OLRQKz0F0DSj4XB
UajuQPrOk0AQAaLBE1a8QBwjn0CCqZvBRrkAQb7KtECB9ZDBmODWQLVVqUDCvIfBaMzKQJHchz/y
KpbBZBSYQDJkmj9PgY/B4//WQGPfGUBTKafBqYiZQIwgREBw97LBOaCRQNsgkUBB9arB3x3CQPS5
ikDDgbLB36kkQYUIqEA4lHrB+JEPQanxzEDrd4DBThMNQfkmqkD0MWrBBPVyQOhp6j/lQavBWb9T
QMj0gj8FCJ/B2SWJQBdeQkC+JZvBpR3pQPYLdMAb9qjB

>  <OMEGA_E>  (5) 
cKGUPozbiD4=

>  <OMEGA_NBR>  (5) 
     11225

$$$$
50220582
     RDKit          3D

 71 74  0  0  1  0  0  0  0  0999 V2000
    6.5714   -0.7934  -22.2696 C   0  0  0  0  0  0  0  0  0  0  0  0
    9.8502    1.2999  -21.3100 C   0  0  0  0  0  0  0  0  0  0  0  0
    5.7559    0.3020  -21.9423 C   0  0  0  0  0  0  0  0  0  0  0  0
    9.3788    2.3728  -20.5313 C   0  0  0  0  0  0  0  0  0  0  0  0
    6.6352   -1.9051  -21.4090 C   0  0  0  0  0  0  0  0  0  0  0  0
    9.7619   -0.0183  -20.8192 C   0  0  0  0  0  0  0  0  0  0  0  0
    5.0855   -0.8125  -19.8813 C   0  0  0  0  0  0  0  0  0  0  0  0
    8.7407    0.8092  -18.7663 C   0  0  0  0  0  0  0  0  0  0  0  0
    5.0058    0.2883  -20.7487 C   0  0  0  0  0  0  0  0  0  0  0  0
    8.8149    2.1272  -19.2634 C   0  0  0  0  0  0  0  0  0  0  0  0
    5.8897   -1.9302  -20.2120 C   0  0  0  0  0  0  0  0  0  0  0  0
    9.2022   -0.2635  -19.5488 C   0  0  0  0  0  0  0  0  0  0  0  0
    6.1455    3.0014  -17.5141 C   0  0  0  0  0  0  0  0  0  0  0  0
    6.5934    4.3104  -19.6772 C   0  0  0  0  0  0  0  0  0  0  0  0
    7.4361    5.1347  -17.5458 C   0  0  0  0  0  0  0  0  0  0  0  0
    5.5495    1.9050  -18.3800 C   0  0  0  0  0  0  0  0  0  0  0  0
    5.9424    3.1836  -20.4691 C   0  0  2  0  0  0  0  0  0  0  0  0
    7.1555    3.8690  -18.3130 C   0  0  1  0  0  0  0  0  0  0  0  0
    5.2824    3.8474  -21.7011 C   0  0  0  0  0  0  0  0  0  0  0  0
   10.0229    5.4481  -14.7234 C   0  0  0  0  0  0  0  0  0  0  0  0
    9.2518    7.1362  -16.4259 C   0  0  0  0  0  0  0  0  0  0  0  0
    3.6285   -3.6336  -19.0168 C   0  0  0  0  0  0  0  0  0  0  0  0
    5.4589   -4.4240  -17.4885 C   0  0  0  0  0  0  0  0  0  0  0  0
    4.1526    1.4690  -20.3464 C   0  0  0  0  0  0  0  0  0  0  0  0
    8.8555    5.8723  -15.6301 C   0  0  0  0  0  0  0  0  0  0  0  0
    4.9917   -3.2684  -18.3820 C   0  0  0  0  0  0  0  0  0  0  0  0
    8.4975    3.2018  -18.4455 N   0  0  0  0  0  0  0  0  0  0  0  0
    8.4023    4.7727  -16.5279 N   0  0  0  0  0  0  0  0  0  0  0  0
    4.9450    2.4785  -19.6092 N   0  0  1  0  0  0  0  0  0  0  0  0
    9.6450    2.4967  -16.2207 O   0  0  0  0  0  0  0  0  0  0  0  0
   10.7080    4.3201  -17.7126 O   0  0  0  0  0  0  0  0  0  0  0  0
    6.0047   -3.0549  -19.4057 O   0  0  0  0  0  0  0  0  0  0  0  0
    9.1119   -1.5274  -19.0778 F   0  0  0  0  0  0  0  0  0  0  0  0
    9.5389    3.6334  -17.1466 S   0  0  0  0  0  0  0  0  0  0  0  0
    7.1495   -0.7828  -23.1818 H   0  0  0  0  0  0  0  0  0  0  0  0
   10.2795    1.4865  -22.2833 H   0  0  0  0  0  0  0  0  0  0  0  0
    5.7035    1.1539  -22.6041 H   0  0  0  0  0  0  0  0  0  0  0  0
    9.4491    3.3836  -20.9049 H   0  0  0  0  0  0  0  0  0  0  0  0
    7.2609   -2.7466  -21.6675 H   0  0  0  0  0  0  0  0  0  0  0  0
   10.1235   -0.8417  -21.4173 H   0  0  0  0  0  0  0  0  0  0  0  0
    4.5297   -0.8069  -18.9553 H   0  0  0  0  0  0  0  0  0  0  0  0
    8.3294    0.6243  -17.7849 H   0  0  0  0  0  0  0  0  0  0  0  0
    5.3344    3.6459  -17.1443 H   0  0  0  0  0  0  0  0  0  0  0  0
    6.6656    2.5409  -16.6612 H   0  0  0  0  0  0  0  0  0  0  0  0
    7.4195    4.7222  -20.2756 H   0  0  0  0  0  0  0  0  0  0  0  0
    5.8399    5.0931  -19.5047 H   0  0  0  0  0  0  0  0  0  0  0  0
    7.8527    5.9031  -18.2136 H   0  0  0  0  0  0  0  0  0  0  0  0
    6.5139    5.5135  -17.0812 H   0  0  0  0  0  0  0  0  0  0  0  0
    6.3426    1.1975  -18.6636 H   0  0  0  0  0  0  0  0  0  0  0  0
    4.7729    1.3755  -17.8086 H   0  0  0  0  0  0  0  0  0  0  0  0
    6.7142    2.4766  -20.8073 H   0  0  0  0  0  0  0  0  0  0  0  0
    4.7928    3.0771  -22.3150 H   0  0  0  0  0  0  0  0  0  0  0  0
    4.5333    4.5796  -21.3656 H   0  0  0  0  0  0  0  0  0  0  0  0
    6.0521    4.3579  -22.2987 H   0  0  0  0  0  0  0  0  0  0  0  0
    9.7400    4.5484  -14.1573 H   0  0  0  0  0  0  0  0  0  0  0  0
   10.9063    5.2297  -15.3414 H   0  0  0  0  0  0  0  0  0  0  0  0
   10.2578    6.2631  -14.0230 H   0  0  0  0  0  0  0  0  0  0  0  0
    8.4162    7.4390  -17.0741 H   0  0  0  0  0  0  0  0  0  0  0  0
    9.4865    7.9515  -15.7258 H   0  0  0  0  0  0  0  0  0  0  0  0
   10.1350    6.9181  -17.0442 H   0  0  0  0  0  0  0  0  0  0  0  0
    3.2893   -2.8072  -19.6588 H   0  0  0  0  0  0  0  0  0  0  0  0
    3.7383   -4.5460  -19.6213 H   0  0  0  0  0  0  0  0  0  0  0  0
    2.8886   -3.8073  -18.2216 H   0  0  0  0  0  0  0  0  0  0  0  0
    6.4280   -4.1688  -17.0349 H   0  0  0  0  0  0  0  0  0  0  0  0
    4.7170   -4.5969  -16.6950 H   0  0  0  0  0  0  0  0  0  0  0  0
    5.5666   -5.3356  -18.0947 H   0  0  0  0  0  0  0  0  0  0  0  0
    3.7337    1.9333  -21.2514 H   0  0  0  0  0  0  0  0  0  0  0  0
    3.3335    1.1163  -19.7025 H   0  0  0  0  0  0  0  0  0  0  0  0
    8.0139    6.1465  -14.9770 H   0  0  0  0  0  0  0  0  0  0  0  0
    4.8714   -2.3627  -17.7695 H   0  0  0  0  0  0  0  0  0  0  0  0
    4.2972    3.1765  -19.3038 H   0  0  0  0  0  0  0  0  0  0  0  0
  1  3  2  0
  1  5  1  0
  2  4  2  0
  2  6  1  0
  3  9  1  0
  4 10  1  0
  5 11  2  0
  6 12  2  0
  7  9  2  0
  7 11  1  0
  8 10  2  0
  8 12  1  0
  9 24  1  0
 10 27  1  0
 11 32  1  0
 12 33  1  0
 13 16  1  0
 13 18  1  0
 14 17  1  0
 14 18  1  0
 15 18  1  0
 15 28  1  0
 16 29  1  0
 17 19  1  0
 17 29  1  0
 18 27  1  6
 20 25  1  0
 21 25  1  0
 22 26  1  0
 23 26  1  0
 24 29  1  0
 25 28  1  0
 26 32  1  0
 27 34  1  0
 28 34  1  0
 30 34  2  0
 31 34  2  0
  1 35  1  0
  2 36  1  0
  3 37  1  0
  4 38  1  0
  5 39  1  0
  6 40  1  0
  7 41  1  0
  8 42  1  0
 13 43  1  0
 13 44  1  0
 14 45  1  0
 14 46  1  0
 15 47  1  0
 15 48  1  0
 16 49  1  0
 16 50  1  0
 17 51  1  6
 19 52  1  0
 19 53  1  0
 19 54  1  0
 20 55  1  0
 20 56  1  0
 20 57  1  0
 21 58  1  0
 21 59  1  0
 21 60  1  0
 22 61  1  0
 22 62  1  0
 22 63  1  0
 23 64  1  0
 23 65  1  0
 23 66  1  0
 24 67  1  0
 24 68  1  0
 25 69  1  0
 26 70  1  0
 29 71  1  1
M  CHG  1  29   1
M  END
>  <OMEGA_C>  (6) 
gkjSQKYeS780KLLBbJodQc9jpj/XeqrBOjC4QPGkmj7nia/Btw8WQZ3bF0ACQKTB4lPUQMzY87+k
RavBuzAcQQwNlrzRjabBV7yiQB/+T7/mDJ/BwtkLQXknTz9jIZbBNi+gQMGZkz5f/aXB+gkNQYUk
CEBrG5rBvni8QCkS978osqHBMjwTQaDohr4FZJzBs6fEQH8XQEDTHIzBFv3SQPfuiUDpap3ByfTt
QBhPpEDKXYzBipWxQN3W8z8mCpPB8Ce+QErAS0DAwKPBJfrkQGCdd0DwgJLB0gmpQAs8dkDcm63B
oV0gQe1WrkA1k2vBLgcUQfpb5EAyaIPBqThoQBuMaMB3IpjBNa+uQEeRjcBt6IvBLuKEQFUHvD97
xaLB7a8NQbPpu0DdFHrBvrufQKUtUcBLDpPB2PUHQaLpTEB4kJPB8m8GQQa6mEA2OYTBVj2eQIGf
HkCX35zBwlEaQVHKH0Dvw4HBz1MrQWA+ikCBs43B1CbAQCKEQ8DtPpvBU8oRQWiCw79fn5jBXJ8Y
QWeJaEAsLInBU8jkQGBmSL9ddLnBtngkQVxEvj8tRLLBx4K2QGezkz8/1bTBrC8XQaKNWEA6PafB
B1noQADIL8AKV63B3vkhQcV7V7+QVqvB+fKQQLWRTr+DpJfBL0UFQenRHz+QR47BIbOqQNxWaUCD
J4nBc0zVQGydIkAwSoXBJ2ztQGwcl0BhNKLBlOC6QFP6okCuCZzBmkn7QCXmvEBstZHBh3HQQOlu
sEBGpojBTPbKQLxGmT8XT5XBU7uYQC4PsD8LeI7BsdrWQOV/HkBYdabB2V6ZQFfvREAshbLBcRCR
QF2MkkC87KrBxarBQLBzi0CpY7LB+NYbQVCMkUB+hGLBCoAuQYNZp0BsdnXB7x8kQSJryEAoXmDB
2qgGQRwM7kDRl4jB28gXQehy/kC2nHvB9igiQUlh3UB9WojBl4NSQLOpM8BFRZ3B0T9vQP14kcBa
+JzBmd44QHurc8DXxZHB5LHNQHlmhcB3R4jBSPGWQJcZk8BWj4XB5CGyQNe8qsDZwZDBcfVuQBJ2
9z/WAqrBYVdVQJHjjj++np3B4zgAQVKwxECxoW/BP+KbQA82F8DfJ47B/4KJQC9LS0AxbprBkP7T
QCTuT7/tBbLBqyweQTg4sz8ZvqrBZMC5QDFLkz6zla/BX4IVQbdeG0DjZqTBy87VQDTj9L+MBKvB
vZIdQYYziD3PG6fBMXqjQO1FTr/aEp/BQpgLQclAST/jzZbB5kihQEqjkj5vHKbB0R4MQX6vB0Bq
dZrBD2q9QOSK9r9EhqHBIz0UQUbZdb78I53Bwk7DQJzBQUCfA4zBW3zSQE7dikC4G53BN+7vQKLL
o0BH7ovBtnGwQBer9j/zBpPBGyq+QBy2TUAZraPB76/kQFfBd0CmQJLBwaSpQF4oeEDzmq3BaHga
QZkY30DbNIXBpmgEQeLTyECKhGrBo29oQGgyZ8BFQ5jBtqatQMsIjcA+uovB95GFQLjouz/SHaPB
GX0TQa0luUBZKnzBnnOfQJ0NUMAk9pLBTlMHQXTNSUC6gJPBTp4IQV0kl0CxSYTBs+mdQAVYH0A5
Bp3Br/4WQa0SFUBTXoHBm2IsQa6mfkC4II3Be53AQKTGQsCy+ZrBI9cTQU8Nwr+Ak5nBnhsYQWjl
XEBZ7ojB3cfmQKYZUL9xRrnBhUklQXIA0T++ZLLBiFW4QJbrkD9x9bTBZQ0WQSTcXEDVJqfB0A3q
QC5VMMD57azBsEYkQc7QOL9O+KvBrz6RQEybSr8VvJfBZIwEQdbQDT8SI4/BS1epQA34a0CZSInB
pPvSQBpXJECkC4XBZ7jsQDjomEAuz6HBBPq5QP9io0BqlpvBOA/8QC3ZvEBMUZHBxJfTQJLAr0Cu
pofBttvJQH41mz/OH5XBRyGXQFEUtD8djI7BAkDXQBoIIUBsTqbB2YaaQCjHRkBxnLLBT02RQKxL
k0BaA6vBbYHCQIapjEBFQbLB9UklQauB00CUg4vBLUUMQbvF7UDL44jBW9EiQcwG90DESIDBOhP/
QMWbrUAxemDBcrMMQfyz4EDtl2DBik7sQOty10D8zXHBAMNTQJNMMsB4dp3BSRNwQOLVkMC/EZ3B
8f83QEQYcsANBpLBNGHMQAr5hMAI8IfBVFuVQPpyksBMgYXBAGWxQLo8qsD/jJDB1xFyQBjB9j+k
eKrBk4VVQKaMjj8oK57BUN0hQdCnq0Cik3TBxUybQHoBFsB+F47BlZCIQA1TS0BEuZrBHQXSQCd8
UL+B0bHBFgYUQeCwiL7nrJzBKZW3QNeBgT7J0K7Bn54LQf9sRj9IZJbBHzPVQB7n+L9oNKvB2bId
QaAAyzxel6bBc/WlQI8TZr8hJJ7BlSsWQcBCGUAcCaTBDEmhQOTdWj4HAqXBenkMQaC7BkAVKJrB
QpS+QA/zAMAhd6HBVdseQcjNrT8oO6rBymnDQHbLSEBGEIzB7S7TQGGViEAJ853BSJHwQKx2pkBx
kI3BjsqwQLZk/D/YVpLBBue8QJHHR0AJvKPBkRHlQH1heUCW2pLBe+GmQDBWcEBam63BjFAHQfhS
7EAjRYHBuTwdQb88uUAkwWzBQzKkQIJVWcCIr4nBwrFlQDrVX8DX35nB/9mEQEiarz8+xKHBLwwV
QRUsw0BbqoHBaZ6gQCswccC/j5XBbFQHQfwySkBKepPBo8UIQTurnUDonoXB0GOdQK/SHEAReJzB
PHoTQas5H0AjW4DBqoosQdtkd0BAhYzBMljEQDvxSsDsepvBMLcoQaA50z/vj7PBfRkXQfxXYECH
o4jBGejjQHKRRL+qM7nB2hATQbHopL+g6JnBPUO0QBXdjT9TBrTBsYcEQfLpDj+qtI7BKT/pQGdc
McB0nK3BijskQTgCRr9NaKvBMM+WQFwpZr8fYJbBMu8WQaiFWkAy26bBVHupQEIMdUCh3onBXcfS
QHRPMEABw4TBMentQGqnk0Bt9qLBW/u7QOu7okAT7JzB7sz8QE4ZvUDTkZPBKy/UQMAttEAFponB
/W7KQKSPoD8NL5TBPRSYQCP8vD8XfI3B+evUQF0kGUBGdKbBshaWQAdVPkBnKbLBU72PQNl0kEAv
8arB9Su/QBhNh0DyurLBiVoBQdK980DzVonBBmDzQGJo50ArrXfByyIRQQCMA0FJsnzB9gcnQUUA
nEBHJG3BnAAnQS4j1ECB92bB1Y0PQZBztEBk8mHBBeXEQDJJZsCq24bB7u2cQObvFMADqojBkFGN
QIurf8A5BYXBpH9iQGp9ccA8YqLBHz03QMcbg8AoU5XB2nVWQOl7G8Dy95jB5LlqQKji4z8u9qjB
EX1YQJt/gD+NNJzBgNgiQdvcyECZ8IbBz/ekQEZ9m8DO85XBJhuIQBS8SUBAbZrB5zPQQNaQcr/4
dLHBfRceQdevtT+kIKvB1Ym2QBqhQj5Cp6/BLEoVQeQTG0ChlqTBB3vTQDwz+b/oh6nBlKodQYQ8
mT2BwKfBeMqiQG7iL7/pKJ7BZFELQTa4Oz+UY5fBFGmfQBN1nj4NAabBdcwLQbsQBUCvvZrB8Aa9
QPeu5r+6z5/BW0wUQWWLiL6u3Z3BC33CQG5DQ0AaKYzBvqnTQAbuikCDMZ3BH+LxQAl5okAA74vB
JwCvQNEc/D9NMpPBLQu/QLGGTkDd16PBoCDlQHV6dkBeUpLBhxKsQCfHeECu9K3BkegeQb8+10Cp
EYXB4OoEQQL3yUCcDmzBWwqsQLlikcBhxYzBPZRrQLBTXMAup5jBB96EQJAyxD86jKPBm40UQYbC
tEBCuHvBtKGlQO3jdMD5g5fByhoHQZhMRUBif5PB9/kIQVb+k0A4JYTBHaidQLlmIkDpVp3B6hUU
QTElCkBPJ4HBEoYsQdb8bED0TIzBwFfCQK4TLMCEi5fBCUgUQTFuxr96eprBckcXQcEBUkA/j4jB
71vhQCbohr+c6LjBKCwlQVHk1j8Pu7LBoJa0QHSTdz9corXB+c0VQcMnXUBFHKfBLBvnQJxtNMCq
5qrBVYckQXbjMb+Av6zBFwSRQM/nF7/EyZbBLQoEQdt98T5g1o/BURapQMdcb0AfkYnBkTTRQCIp
JUCLG4XB3E/uQHSnmECEzqHBJ367QIrPo0CzspvB0q3/QOLpukC0PpHBUuLVQJHVr0CvxofBOM7H
QMYunT80JJXB6dyUQGxevT/Oy47BbtHXQAxeIEDDP6bBNeOcQNOTR0Du+bLBawiUQMBOlEDEmKvB
+MjFQKwhjEBsf7LBixsqQV7qx0AerIrB7lsSQQcA6EBkmYnBN58nQQVc7kD0D4DBaS37QOFXsUC7
1WHBDZsNQQkR4UC0A2LBhq/wQAq12kCVFnXB9+bNQDxJmsDT3IvBbKyiQP3Rd8AcNIbBUiCYQKhl
rsAojIzBfYNhQGpeO8ChU6DBfhpEQEBKi8D+Y5jBszJZQCybMcDyC5LBx7J0QLd5/j9dHavBb2pR
QChnnT9x257BGE0hQbompUCBbXLB/BquQDeMkMBPB57Beb6IQAWpT0BCLpvBA0LMQJPmer+uNLHB
r0QVQRegkr7fcp7BaNayQIRwKz5Zn6/Bmv4MQZ4MKz+vRZfBxhHQQMNP+L+E/ajBMp0dQWCSAD4n
ZajBYfifQGl5Ib9E053B/qgVQdaDHED+8aPB6WicQLylqj506KXBxtwMQVwyAkCnGZrBZ1C6QLZY
379DOJ/BFNgdQbUrvz+fHqvBuUDBQCJMSEBje4zBLfjWQMeciEC86Z3Bld/xQOygo0CW1YzBCfyt
QNCHAUBgRJPB7ZLAQESNSkCrP6TBIr/lQDzJdUAlnpLBBJuuQArDdEA8fa7Bb10ZQXCQp0B3YmbB
ixIfQcn310DSG4PBuBmxQPs8k8Bf+ozBEHBwQDSracBW/5jBoU2DQM/qyj+Ti6PBgzYPQRrBuUC5
vXrBbwGpQEIYdsDwd5fBYtoGQaRNP0CwnZLBI00HQUfNlkCuYoTBk9ydQFxyJEBWmp3BSgoaQeBZ
GkBdzIDBWE0rQcb7gUBdJY7BVpG/QC7GJcD5spbB/jYmQWca8z8vjLTB7oQYQfTPXkDc0YjB1c3c
QNTpj7/ys7jBVDgVQZWwqr9sVZzBw4awQMC2aj8d0bXBIsIGQSjGtT4gnY/BB4vjQGh4NMABLKrB
UdUjQT5pG7/r7a3BdzuOQLruAr/FeJbBExwWQTasX0Ac+qXBsjuoQIc4d0D/gIrBDiPOQLuNLEAu
EIXBs0HzQAUDk0CidaLB96LAQCybo0CND53B2/0AQQvkuUBzVZLBJj/VQFIUs0D4eInB15vGQEHi
oT955ZTBPEWTQPjzxz/v4o7BovTXQEALGUCZeqbBHheeQOU/REBrWbPBMOKXQJzBk0D1RKzBTw7J
QNVLiEBVI7PBFuoNQakkkkCYY17BveAnQf2ElUB9mGrBSpodQQH3wUDdilvBBpQXQYPJ5EDJZYrB
UlQjQfOI8kAffHvBxZotQe8WxkDfRIXBULnTQHS6l8B024vBZRikQNqtgMCRPobBPUahQNOmssCC
T43BqINkQIAAR8CWgqDB0OpQQINIlMDjUJnBIY9WQBOfRMDyP5LBeHxxQAtDAkDqIKvBK1lOQI+D
qT8tr57BaGABQb0szUDi1nXBroS1QOwTjsCdLZ7BAkuKQHK8VEB/spvB6CDTQOhFTr/oM7LBVOgT
Qf/kjL6rwJzBByW5QGCglz69p6/BZAwLQWYGQj9xi5bBhxzVQOGE9L9NPavBdNEdQahY1zw7lqbB
E2ujQOaUTb8GH5/Bq68VQfDuGEA1FKTBwhmhQGGRlj6qHKbB78MLQcq5BUBmRZrB6yO9QH929r9C
rqHBR8EeQaEUrj8+OarBldLCQNagQ0DLAozBjtLSQPHQikDIMZ3BJVjwQFsipECvD4zBO+OvQMB9
+T+s85LBHSW+QPmrTUA1s6PBVaPkQAgfeEDURpLBXLepQHkdeEBNpa3BepgZQZ614EB3MYXBmAkF
QVAhx0BLGGrBe05pQDimZ8Bw85fBmV6vQAuLjMBCsovByl6FQCq0vD+mD6PBrrcTQc+KuUAOenzB
HVSgQLrQT8C/8ZLB0xEHQUFiSEDyZ5PBDe0IQeGLl0BaeoTBYbGdQOIQIEDeBZ3BmcoYQStkGEAk
l4HB5y0sQSemgUAMB47BVJ3AQJkIQ8DDL5vBIucoQXl51D83drPBIJ4YQdFYX0COTInBMZblQJIc
Tr/bgbnBxR4TQbAQpr/t/ZnB3Ji3QK5Xkj8OALXBAbQDQfVzCD8S747BWSvpQIE8MMAaPK3BcLUk
QWTzQ7/wWKvBg3aRQAqOSr9IvZfBE1QWQdVEWkBb4abBlveoQIqnbkCLaonBOhvSQOG7JkBP9ITB
ZlPtQEZSmEBR5qHBYJy6QPS3o0DDw5vBKGf8QPPxvEAAh5HBBz3UQMFisEAHvYfByzTJQCAJnT+y
8pTBm1+WQMRYuD/BdY7BWATXQLd3IEAiUabB5laaQJPQRkA3nbLBFZqRQPuIk0BQEavBUq7CQMNV
jEAVVLLBxSMkQcaL1kDdw4vBK+wKQabf7kB1hYjB4echQfmY+EARPoDBXPgAQaACq0AYUmDBJUkN
QTDx3kCiGGDB35rsQN031UBqp3DBynlTQM9CM8BcKJ3BrDNwQHxBkcBfs5zBxh06QLclcsDKjZHB
c23OQIo0hMAZHojBiLWXQK7DkcAcUIXBe8CyQE7yqcCxdZDBGxhxQAc89z8IZarBJoZVQDP4jj8l
D57BSI8iQaqNrECQmXXBS5CcQHNbFcDOIY7BHl6IQAViTEDIz5rB9PDNQD4Pbr/uwLDBB0AfQeVz
sT8GyKrBvKezQPD7Tz6maK/BLT8XQe7KGkC5QqTBWWzQQJo387/VlajBqOAdQaDDPz0CWafBuouc
QDleJr9CF57BdGcMQXZSRT8w5JbBCcKaQKAwqz5oCqbBza8NQYYaB0CNWJrBvj64QK0G3r8oJJ/B
UXQUQQA7hb5OZp3B1m7EQAKgPUDQbozBVLzUQPc/iUAqm53B74ruQBChokAUYIzBLoKwQD/k9D8F
mpPBepK/QNjQS0DrG6TBX5DlQH7SdECFoJLB0pesQML1dkAMKq7BjBoYQXjWpUAXsWXBj+oaQQh+
2kCtI4LB0smwQE93lMDHY43BNYBvQKoEb8BjnZnB7oiCQO89zD9siKPB+bcMQXeHuEBGQXnBvY6o
QFwEd8ALwZfB7SsIQRI2SUCYdpPBAOIFQWkXlkC5BITBRB6eQEBQIkCLaZ3BM/gXQQKnFkA/RIHB
PKMrQUJfhEDJgIzB5Ze8QHaeJMD5jJbBIEsTQTiWxb99DZrBRO4XQTB6YECTjIjB6ifgQJQMh78U
B7jBYnAmQVxszz9fabLBIZCyQNGDdz/zgrXBc20YQYuQXEDE2abBBLvkQIT/MMDFjanBKw0kQVLU
Pr+/V6zBo1yIQBCGEb+XG5fB7z4FQUxSCT8eQY/BQQyrQGCVZ0BIU4nBa6HUQIGiHUCFuIXBT9Xv
QELxlUCaPaLBQxy9QJHPokBkS5zBfEX9QND4ukB+jpHBgM3QQNxrr0C864jBKzHJQOXFlz/I8ZXB
iueWQAXesj9UMY/BBL7XQHt6HECJiqbBKNScQAFmRkCZK7PB8giVQHXCk0C2u6vBlmbGQHjbikAi
wLLBY8QNQVzEjUBbEl7B/SwnQT63lkDuu2rBro4bQcKZv0D6NFrBJXoSQXSJ50CuI4nB6WEeQUCA
9EDl73jBNwAqQbydy0Btu4TB8nfTQOVRl8AIEIzB7ySiQPJjg8AHn4bBAaWiQEGXtMD/DI7Bh6Zj
QCw6S8DnC6HBXztTQICjl8AXRprBOztSQGTgTMAf2JLBN/JwQHa1BECTDKvBez9MQJxlrD/ku57B
V4/8QFUFyUA0fHPBpdK2QNwCjcBHgZ7BNemKQKxXUUCz4prBpKS9QGZdm79Y97HBl54VQezRa75L
8J/B21inQKI1L7wAIrDBBNYMQePLIz+rNpjBgNDFQDQqBsDra6nBIYAfQdrplj5hLKnBUb+gQMl2
Fb/MPZ3BUnQYQSKrI0BLz6LBQR2ZQMO8oD4uu6XB6NkNQXF5AkCBupnBKzG3QBsG5L+mBZ/BpOMg
QT9k2D/ZmqrBomi/QM4nVkB33YzBCP3aQIeah0Clhp7Bx4D3QLI5pUAWNI3Bd0GqQCw4DUCuIJPB
J73DQKXORUBnjqTBQa/nQA6teEDXv5LBd5K2QLtCaEDmtq/BJWEAQQr+0ECBZG3BDcgiQYYiqEBA
FmrBWTi6QIkumMAKcY3BcqV2QKfZecCNJZjB3ySCQJht0D/4oaPB0wQSQfh3uUDCLXrBN8usQOwM
fcAoaJfB404GQcOTOUCjwZHBxwMIQWLklkDI1IPBuNadQGYHKUDYG57BCc8WQfpEFkDhDH7B+q4r
QZ4mdkBtN4zBX5O+QByTJ8B3c5bB7nQqQb73DEDraLPBKo4XQWiMV0DIe4fBOXvIQO3Wur9W7rnB
rsYUQU5Npr+cx57B9CGhQOoUKj8PsrbBz1MFQUvScT4zIpHBSjzXQALPQMD90KrBgv8lQU91vr7F
JK/BZEKVQPrgsr7BT5XBlxcaQcULaEB1xaPBET6oQAFPhUBm64vB2+vIQHlRPkAL74TBAFL4QC6h
j0A09aLBbavFQMuao0DGWZ7BMgkGQc3Et0CuopLBYzTcQMkIuUB8r4rBVufAQNAarz9mvpPBpG6N
QMpb8D+p0I7BrxPaQNMOEEB5nKXBQvilQLeaNUAiM7TBcBOhQAa5j0AFuq7BQFXTQBMzfEAzIrTB
9o3oQJOY3UBpgnjB4YjxQBiBukDoMWLB540HQb+Z60B+YGTBv4EvQbk/l0Dw1XLBlcIpQeP5wkAH
F2HBH/kaQT3hkUBx6F7ByFjdQPBAmcDv8IzB80utQJariMClO4bBoZmtQC71uMBPB47BcrBjQHMn
VcDiRZ/B20xdQI+tncAkvpjBgLFcQO7HWsB68pDB1D1vQLr4AkDdVavBOxpMQJnTtj/bk57Bc/EZ
QTO90EABX4LB33C5QBR3jsBulp7BWYiLQKL0XEC3JZ3Bvqi9QCLOmr+j/rHBOCghQWho2T8en6rB
R1anQLA66bsbJrDB5X8YQd4yJECG4aLBa9rFQH30BcCJdanB/ecfQbnamz6jKqnBH8agQDM7Fb8X
Q53BahANQcFyJT/fP5jBexiZQEeXoT6BvqXBVeINQTHrAkDgy5nBzUG3QKLH47/fDZ/BNRIWQXII
ZL6p7p/BfGO/QKkVVkB93ozBdtPaQNG5h0DIh57BrFj3QF9NpUD9NI3B9T6qQOktDUCZIpPBCJnD
QKoIRkDTj6TBzZfnQADWeEAQxJLBLFq2QG6KaED+ta/BSj8AQSn60EDPXG3BM60iQcoxqECSEWrB
EXy6QPwomMB9fY3BQQl3QFLzecDeLpjBUhOCQFZ90D/voaPBdugRQUWFuUAaKHrBLv6sQJ3+fMCv
cpfBhk0GQYfmOUAvzpHB9O4HQQP0lkD81YPB+b+dQGQUKUBLG57BHL4WQalcFkAGHX7Bm6QrQXyF
dkC2NIzBtLS+QNV3J8AKfZbB7nMVQYz2x79Da57BMoEXQVrDV0ANgIfB83/IQL8Xur9Q9rnBNsIo
QXWMBkAXrbHBxBuhQNE6Kz9rtLbBq/gZQRWZaEBu4qPBeEXXQAiWQMBQ3arBBHsmQSTsuL7FH6/B
cEqVQKgZs75JVJXBaYkFQcbSdj4mLpHBpC+oQDQ6hUBl5ovBY/zIQH0qPkCu8oTBax/4QJDQj0A8
+KLB5XfFQBOyo0D1Vp7B1vMFQS/lt0B8oZLBlgTcQP4QuUD5r4rB8OvAQO0krz/AxJPBrnWNQLAM
8D/W0I7BZvjZQCVcEECEoaXBHMOlQCzgNUCPMrTBvtKgQEfUj0CWta7ByRPTQDmYfEDxIrTBKkjo
QN6S3UAZenjBZ0rxQHByukDaLWLBBmcHQaiV60CnVGTBRWovQc5bl0CF0nLBv6IpQbwIw0AuDmHB
7eAaQYXlkUBi517BPZ3dQBssmcCm/ozBwIytQJ+xiMDdRobBqOutQMb0uMD5FI7Bwf9jQIQ9VcAO
Tp/BfstdQCy/ncDSyJjBrg1dQAn4WsC2+pDBmQZvQBsIA0CPVKvB3AJMQE+ttj/bkp7BetIZQbrW
0EDIWYLBzaa5QGpljsAWop7BdWmLQIXxXEBQIZ3BgKHYQGbgar9FQrDB/cEYQaCjRL25AJ7BrWS/
QOqrXz4HLa7ByJkPQQLeZj+iEJfB8DXUQE4eBMAd0qnBi6wgQS1Ytj5iD6jBhJqeQHiNa7+HAZ/B
bykWQYHdKUA9R6TB9nSiQArfWz5deqXBGhIOQe8ZEEBVSZrBBXy2QHlNBMC3UaHBH2UfQTnN2j/7
K6vBswbEQK8vQkAeDozBTqTSQDJ8iUDFgJ3BGA3tQFsvpkCLqYzB9euyQAcL8j+p6pLB7W2/QLrs
SEBDxKPB1oHkQKZReUCKcZLBcI6qQLwPcEBy363Bjs4AQXJL6EBxZ3vBOn4dQamvuUD622vBdAnJ
QA79KMAo54nBHjLGQJpJoMDAlJDBsx2HQPlDtD+jzaLBKX4RQSA/xUDhP4DB45vNQLQdY8CXzJPB
2qEHQYlxTkA/HJPBCS0HQUJfnkBbw4TBWLKfQJ6eG0Cx6pzBY4QXQQ7SJkDilIDBacYrQXwmh0Dg
HY3Bs/6tQHZvTcD0sJvB11cnQUQbB0CNsrTBwd0XQT31akCkrYjB5lHvQELXaL+dxrbB8rcZQb7U
ir9hoJvBVx7CQBbAiz9oNrPBpsMJQatRGT9cTY/B83/nQEwYPMCyYavBI7knQfcivr6NYq3BVDGJ
QGQaab9mOZjBU0QVQf89bEBwpabBVSapQEPUakBGgonB+QjUQEp1J0A694TBveXsQANBl0BCP6LB
K6C5QFXIoUC4TpzBh873QM6kvkAkZJLBHrbPQOc1sUA8qIjBdVjNQHkGmz+6+JTBsWKaQDB9qz9L
Z47BR/jYQH2NHEBwMqbBNxucQHzSPEDutLLB/KGRQJf1jkAleavBNxjDQNqkiEBPn7LBXzTwQN3W
8EDKC4XBSeLqQKQ43EDEZW/Bwv8IQSljAkH6FnXBrmwpQWa9oEAgTG/BsZolQTFM1kDRlmXBFAwS
QYK+rUCb5V/BRmDOQLLsy7+APYzBEaqoQGvXL8AljobB6M3gQIuvO8Di2IPBHnvJQC/wtMD5qJfB
9/XdQM2yqcDgh4rBIdKlQL7Go8AiPY3B5uN1QCqo7D9BRarBQxhYQGA9ij8k1J3BPwYdQdMc0kBN
EYbBtw3uQFw8XMAlGpfB/IaKQMPwR0BunZrB

>  <OMEGA_E>  (6) 
OJYsPmCCMT6AJjY+9NmDPtg6kT5A2Rk+PBmaPkjOyz6QIdM+5K7ePg==

>  <OMEGA_NBR>  (6) 
     15881

$$$$
50220583
     RDKit          3D

 71 75  0  0  1  0  0  0  0  0999 V2000
    6.5304   -0.8735  -22.2013 C   0  0  0  0  0  0  0  0  0  0  0  0
   10.1317    1.8127  -21.3902 C   0  0  0  0  0  0  0  0  0  0  0  0
    5.7098    0.2348  -21.9310 C   0  0  0  0  0  0  0  0  0  0  0  0
    9.4401    2.6423  -20.4925 C   0  0  0  0  0  0  0  0  0  0  0  0
    6.6398   -1.9135  -21.2602 C   0  0  0  0  0  0  0  0  0  0  0  0
   10.1817    0.4227  -21.1661 C   0  0  0  0  0  0  0  0  0  0  0  0
    8.7736    6.8439  -15.6844 C   0  0  0  0  0  0  0  0  0  0  0  0
   10.2078    5.0852  -14.8379 C   0  0  0  0  0  0  0  0  0  0  0  0
    5.1101   -0.7331  -19.7747 C   0  0  0  0  0  0  0  0  0  0  0  0
    8.8404    0.6909  -19.1506 C   0  0  0  0  0  0  0  0  0  0  0  0
    9.4364    7.7411  -14.8351 C   0  0  0  0  0  0  0  0  0  0  0  0
   10.8323    6.0405  -14.0219 C   0  0  0  0  0  0  0  0  0  0  0  0
    4.9932    0.3025  -20.7182 C   0  0  0  0  0  0  0  0  0  0  0  0
    8.7761    2.0781  -19.3843 C   0  0  0  0  0  0  0  0  0  0  0  0
    9.1594    5.4876  -15.6891 C   0  0  0  0  0  0  0  0  0  0  0  0
    5.9283   -1.8543  -20.0452 C   0  0  0  0  0  0  0  0  0  0  0  0
    9.5403   -0.1369  -20.0427 C   0  0  0  0  0  0  0  0  0  0  0  0
    5.9993    3.1866  -17.5428 C   0  0  0  0  0  0  0  0  0  0  0  0
    6.6802    4.2759  -19.7212 C   0  0  0  0  0  0  0  0  0  0  0  0
    7.6773    5.0420  -17.6193 C   0  0  0  0  0  0  0  0  0  0  0  0
    5.3920    2.0505  -18.3536 C   0  0  0  0  0  0  0  0  0  0  0  0
    5.9771    3.1669  -20.5043 C   0  0  2  0  0  0  0  0  0  0  0  0
    7.1681    3.8211  -18.3311 C   0  0  1  0  0  0  0  0  0  0  0  0
    5.4042    3.8237  -21.7802 C   0  0  0  0  0  0  0  0  0  0  0  0
    3.7750   -3.7846  -19.2995 C   0  0  0  0  0  0  0  0  0  0  0  0
    5.3286   -4.4096  -17.4254 C   0  0  0  0  0  0  0  0  0  0  0  0
    4.1337    1.5036  -20.3920 C   0  0  0  0  0  0  0  0  0  0  0  0
    4.9104   -3.2813  -18.3770 C   0  0  0  0  0  0  0  0  0  0  0  0
   10.4419    7.3360  -14.0258 N   0  0  0  0  0  0  0  0  0  0  0  0
    8.5466    4.5780  -16.5380 N   0  0  0  0  0  0  0  0  0  0  0  0
    8.3379    2.8943  -18.3635 N   0  0  0  0  0  0  0  0  0  0  0  0
    4.9013    2.5460  -19.6690 N   0  0  1  0  0  0  0  0  0  0  0  0
   10.7006    3.5500  -17.5719 O   0  0  0  0  0  0  0  0  0  0  0  0
    9.1940    2.0956  -16.0607 O   0  0  0  0  0  0  0  0  0  0  0  0
    6.0812   -2.8972  -19.1490 O   0  0  0  0  0  0  0  0  0  0  0  0
    9.6176   -1.4648  -19.8057 F   0  0  0  0  0  0  0  0  0  0  0  0
    9.3804    3.1660  -17.0497 S   0  0  0  0  0  0  0  0  0  0  0  0
    7.0768   -0.9270  -23.1314 H   0  0  0  0  0  0  0  0  0  0  0  0
   10.6245    2.2396  -22.2512 H   0  0  0  0  0  0  0  0  0  0  0  0
    5.6280    1.0347  -22.6520 H   0  0  0  0  0  0  0  0  0  0  0  0
    9.4171    3.7104  -20.6509 H   0  0  0  0  0  0  0  0  0  0  0  0
    7.2733   -2.7626  -21.4701 H   0  0  0  0  0  0  0  0  0  0  0  0
   10.7128   -0.2156  -21.8567 H   0  0  0  0  0  0  0  0  0  0  0  0
    7.9769    7.1875  -16.3275 H   0  0  0  0  0  0  0  0  0  0  0  0
   10.5268    4.0537  -14.8139 H   0  0  0  0  0  0  0  0  0  0  0  0
    4.5730   -0.6722  -18.8397 H   0  0  0  0  0  0  0  0  0  0  0  0
    8.3522    0.2646  -18.2867 H   0  0  0  0  0  0  0  0  0  0  0  0
    9.1376    8.7789  -14.8268 H   0  0  0  0  0  0  0  0  0  0  0  0
   11.6426    5.7350  -13.3764 H   0  0  0  0  0  0  0  0  0  0  0  0
    5.2311    3.9499  -17.3500 H   0  0  0  0  0  0  0  0  0  0  0  0
    6.3740    2.7937  -16.5861 H   0  0  0  0  0  0  0  0  0  0  0  0
    7.5494    4.6175  -20.3025 H   0  0  0  0  0  0  0  0  0  0  0  0
    5.9765    5.1109  -19.5890 H   0  0  0  0  0  0  0  0  0  0  0  0
    8.2466    5.6750  -18.3159 H   0  0  0  0  0  0  0  0  0  0  0  0
    6.8352    5.6167  -17.2062 H   0  0  0  0  0  0  0  0  0  0  0  0
    6.1567    1.2778  -18.5214 H   0  0  0  0  0  0  0  0  0  0  0  0
    4.5499    1.6176  -17.7939 H   0  0  0  0  0  0  0  0  0  0  0  0
    6.7129    2.4016  -20.7922 H   0  0  0  0  0  0  0  0  0  0  0  0
    4.8849    3.0639  -22.3828 H   0  0  0  0  0  0  0  0  0  0  0  0
    4.6947    4.6154  -21.4979 H   0  0  0  0  0  0  0  0  0  0  0  0
    6.2252    4.2596  -22.3683 H   0  0  0  0  0  0  0  0  0  0  0  0
    3.4727   -2.9778  -19.9834 H   0  0  0  0  0  0  0  0  0  0  0  0
    4.1318   -4.6457  -19.8836 H   0  0  0  0  0  0  0  0  0  0  0  0
    2.9130   -4.0886  -18.6875 H   0  0  0  0  0  0  0  0  0  0  0  0
    6.1360   -4.0549  -16.7679 H   0  0  0  0  0  0  0  0  0  0  0  0
    4.4653   -4.7130  -16.8149 H   0  0  0  0  0  0  0  0  0  0  0  0
    5.6841   -5.2701  -18.0111 H   0  0  0  0  0  0  0  0  0  0  0  0
    3.7473    1.9308  -21.3291 H   0  0  0  0  0  0  0  0  0  0  0  0
    3.2920    1.1794  -19.7623 H   0  0  0  0  0  0  0  0  0  0  0  0
    4.5434   -2.4277  -17.7882 H   0  0  0  0  0  0  0  0  0  0  0  0
    4.2524    3.2789  -19.4651 H   0  0  0  0  0  0  0  0  0  0  0  0
  1  3  2  0
  1  5  1  0
  2  4  2  0
  2  6  1  0
  3 13  1  0
  4 14  1  0
  5 16  2  0
  6 17  2  0
  7 11  2  0
  7 15  1  0
  8 12  1  0
  8 15  2  0
  9 13  2  0
  9 16  1  0
 10 14  2  0
 10 17  1  0
 11 29  1  0
 12 29  2  0
 13 27  1  0
 14 31  1  0
 15 30  1  0
 16 35  1  0
 17 36  1  0
 18 21  1  0
 18 23  1  0
 19 22  1  0
 19 23  1  0
 20 23  1  0
 20 30  1  0
 21 32  1  0
 22 24  1  0
 22 32  1  0
 23 31  1  6
 25 28  1  0
 26 28  1  0
 27 32  1  0
 28 35  1  0
 30 37  1  0
 31 37  1  0
 33 37  2  0
 34 37  2  0
  1 38  1  0
  2 39  1  0
  3 40  1  0
  4 41  1  0
  5 42  1  0
  6 43  1  0
  7 44  1  0
  8 45  1  0
  9 46  1  0
 10 47  1  0
 11 48  1  0
 12 49  1  0
 18 50  1  0
 18 51  1  0
 19 52  1  0
 19 53  1  0
 20 54  1  0
 20 55  1  0
 21 56  1  0
 21 57  1  0
 22 58  1  6
 24 59  1  0
 24 60  1  0
 24 61  1  0
 25 62  1  0
 25 63  1  0
 25 64  1  0
 26 65  1  0
 26 66  1  0
 26 67  1  0
 27 68  1  0
 27 69  1  0
 28 70  1  0
 32 71  1  1
M  CHG  1  32   1
M  END
>  <OMEGA_C>  (7) 
yPjQQH6gX79WnLHBdRsiQVIF6D85H6vB2La2QF1ocD67cq/BxAoXQXgbKUC88KPBiHnUQBrt9L/R
FKrBXegiQV5s2D41VKnBwWAMQWgB20BY83rBJVMjQV66okAAaG3B8oWjQCevO7+TMp7BZnINQW7e
MD96NJnBf/sWQTa390CRXG3BOVEtQaZLwUChWWDBS8ifQFDdmj7ZvqXB1WoMQSP/BEAdE5vB+4wS
QZear0BwBnvBO7S9QEpb7b99XKDBO6UYQSwqDL5jV6DBjfq/QBXxS0CjV4zBN8TVQAjUiEALxZ3B
c6z1QDtYoUBD9IzBnousQNQ7A0BE1JLBgUS/QBevSkDICKTB3mDlQGWMdEAnppLBZ++sQNu2dEDO
Pa7BdplxQDY3csBoZZrBp4OqQBgbjcBEZ4vBC0eEQIJ1wD+7IqPBmyGdQIcBUsAsBJPB8hEnQXTA
6kCzaWDBBb8IQSd/kkDUTYTBKWgFQdo8OUCB6JLBkNecQOnwIkAgWp3BxzUrQQIzY0BPk4zBgRoT
QSQeBkBZfIDBYJnCQP5qOcA4MZnBw+EZQUx9u78Dcp7BOhYWQfeeSkDBZYjBWXXiQGBPbb8CDbnB
6v0pQVRWD0B3ArLBOBi0QCZxhD9MN7XBVawWQeh2bUAENaXBzL7oQPLOMMDVwqvBkmcrQXnBXL6f
2q7BCkP/QEQA5kDPnoLB0m0oQRC4gUDdBW3B5lWSQAgULL+7t5bBvKIFQdx6hz4wS5LBbTMSQWx2
DEFgOm3B5Uc6QXCFt0DABVbB32SnQKzKfEDWzIrB2ffLQH/LMkBbsITBjZTxQDnCk0Bwa6LBFz+/
QHWMo0A1tpzB4fEDQe6ZtUDhhpLBDbraQO+7s0BEponBAATFQAmPoz/PK5TBfZiRQB4Mzz/8WY7B
NNDWQCm0GUBmVqbBe1GcQL8WREDhD7PB3zqWQJOxk0DD+6vBEDXHQPVOiEBD8rLB6D9eQGqUPsDs
3Z/BBjiEQK2plMCoEZ/B5G46QNXVgsDxf5XB2lnEQPrBgcCkJIbB2uOOQAnRlsD7hIbBbeS1QOGk
qMCxFpDBhNNvQFEj9z/8oarBz69SQJL2lj81GZ7B6GORQKpfG8BKTo7BXROIQCLaUUBuuJvBN6yq
QG49k7+rXLTB+wssQYgd6j/706XB7CuVQFGCsTzeM7HBKDgfQYEMIUBLYp7BMqi6QIxJAsCbkqzB
HZIoQfxR6j4Tu6fBg84MQZr50kDExHXB+doqQZCQokB6snPBLc+fQIBPEb/md57BJG0LQYao6z7n
sJrBImsYQUbN70CLzWjBuqQ1QXkSwUDQJ2fBtpyQQCIsrD7nPabB2aAOQTiE6z+x5JjBiQgWQQtY
q0A2dXvBxXS0QMNw4b/DnaHBolEYQSzeab4XJaLB3rq8QBLTX0BwZI3Bjj/fQMtge0DnL5/BqXYA
Qb5WnECHdI7BBCOjQC6eFkBLmJLBOS3DQHcrNUAIdqTBz7PoQIV/a0AwEJPBTBG6QFHyUkAjFLDB
V/+PQDUdj8C4UJjBwMq4QL85ZcAQVojBsbR3QLtG0z+u7qLBDXajQLHcTcCaCZPBRHEsQR695kAE
3GHBR88KQcl7jkAkWITBi7kCQV29H0B8+JDBQaiaQD+xKEC0Hp7BgwsmQXHAG0Ce0oXB/EUCQQEV
BkAMTXjBiLPDQJ53KcC4E5rBajQVQQhWxr8o5qPBxCAPQTJtLkAymYTBX+euQAdfr787wbzBWos4
QWGQFkDtE6rBjRWIQCoqLz+jMLfBGQwiQT4hZECw2pzB8K3LQDNAO8Ay/a7Bf1syQRlDjb2ueK3B
9Ov5QGE020BWTHvBTnUyQTBuhECmaHfBlaebQBydsb4hE5bBLDP+QGMTjL2VW5bBfiURQSnrBkFi
T2TBpadFQfA7ukD/oGHBjVSqQPPOjUBACo7BnybCQI7AUEBl54TB6/D9QG1AfkAAe6PBApnOQDmL
nEAO+J/BD7IMQZ0qp0CYLJTBW2/qQPSitkDZ14zB0o61QNC6tT/N7ZHBHHGEQFNrD0DtYY7BQUzV
QLyw8T+osqTBgyemQNr1IkCVKbTBERmpQClOiEDr6K/B9X7YQHVoWkA9Z7TBKeaAQLM0hsBE8p/B
p2upQFe5psDbzJnBE5pvQKcQncCn9ZLBhnrGQIROK8Ddr4TBysOgQCFygMAD6oLBaGLSQNAaisA3
wYnBpZZaQJr3BkBxDqrBDZVFQH51tz+sAJ3BkteJQD8OH8ADj5HB1aOLQKwwYUAlS57B

>  <OMEGA_E>  (7) 
uP/qPvBIQz8=

>  <OMEGA_NBR>  (7) 
     18471

$$$$
50220587
     RDKit          3D

 71 75  0  0  1  0  0  0  0  0999 V2000
    6.4784   -0.7908  -22.2784 C   0  0  0  0  0  0  0  0  0  0  0  0
    9.3305   -0.3240  -19.8977 C   0  0  0  0  0  0  0  0  0  0  0  0
    9.6599    7.8092  -15.1693 C   0  0  0  0  0  0  0  0  0  0  0  0
    5.6405    0.2961  -21.9818 C   0  0  0  0  0  0  0  0  0  0  0  0
    8.6898    0.5817  -19.0340 C   0  0  0  0  0  0  0  0  0  0  0  0
    8.8937    6.8973  -15.8978 C   0  0  0  0  0  0  0  0  0  0  0  0
    6.6201   -1.8408  -21.3537 C   0  0  0  0  0  0  0  0  0  0  0  0
   10.0297    0.1546  -21.0237 C   0  0  0  0  0  0  0  0  0  0  0  0
    5.0940   -0.7074  -19.8285 C   0  0  0  0  0  0  0  0  0  0  0  0
    9.4534    2.4432  -20.4180 C   0  0  0  0  0  0  0  0  0  0  0  0
   10.6603    7.3290  -14.3025 C   0  0  0  0  0  0  0  0  0  0  0  0
   10.1631    5.1092  -14.8425 C   0  0  0  0  0  0  0  0  0  0  0  0
    4.9475    0.3392  -20.7542 C   0  0  0  0  0  0  0  0  0  0  0  0
    8.7312    1.9639  -19.3083 C   0  0  0  0  0  0  0  0  0  0  0  0
    9.1589    5.5192  -15.7481 C   0  0  0  0  0  0  0  0  0  0  0  0
    5.9230   -1.8148  -20.1287 C   0  0  0  0  0  0  0  0  0  0  0  0
   10.0997    1.5399  -21.2761 C   0  0  0  0  0  0  0  0  0  0  0  0
    5.9788    3.2070  -17.5609 C   0  0  0  0  0  0  0  0  0  0  0  0
    6.7284    4.2345  -19.7545 C   0  0  0  0  0  0  0  0  0  0  0  0
    7.6834    5.0277  -17.6547 C   0  0  0  0  0  0  0  0  0  0  0  0
    5.3582    2.0717  -18.3579 C   0  0  0  0  0  0  0  0  0  0  0  0
    5.9732    3.1507  -20.5204 C   0  0  2  0  0  0  0  0  0  0  0  0
    7.1710    3.7984  -18.3448 C   0  0  1  0  0  0  0  0  0  0  0  0
    5.4037    3.8321  -21.7862 C   0  0  0  0  0  0  0  0  0  0  0  0
    3.8134   -3.7554  -19.1132 C   0  0  0  0  0  0  0  0  0  0  0  0
    5.5538   -4.2660  -17.3715 C   0  0  0  0  0  0  0  0  0  0  0  0
    4.0928    1.5325  -20.3895 C   0  0  0  0  0  0  0  0  0  0  0  0
    5.0338   -3.2007  -18.3433 C   0  0  0  0  0  0  0  0  0  0  0  0
   10.8927    6.0050  -14.1485 N   0  0  0  0  0  0  0  0  0  0  0  0
    8.5176    4.5816  -16.5427 N   0  0  0  0  0  0  0  0  0  0  0  0
    8.3256    2.8519  -18.3324 N   0  0  0  0  0  0  0  0  0  0  0  0
    4.8821    2.5653  -19.6773 N   0  0  1  0  0  0  0  0  0  0  0  0
   10.6826    3.5781  -17.5801 O   0  0  0  0  0  0  0  0  0  0  0  0
    9.2239    2.1208  -16.0251 O   0  0  0  0  0  0  0  0  0  0  0  0
    6.1176   -2.8717  -19.2551 O   0  0  0  0  0  0  0  0  0  0  0  0
   10.8244    2.0085  -22.3159 F   0  0  0  0  0  0  0  0  0  0  0  0
    9.3766    3.1755  -17.0362 S   0  0  0  0  0  0  0  0  0  0  0  0
    7.0136   -0.8205  -23.2160 H   0  0  0  0  0  0  0  0  0  0  0  0
    9.2869   -1.3846  -19.6985 H   0  0  0  0  0  0  0  0  0  0  0  0
    9.4873    8.8706  -15.2694 H   0  0  0  0  0  0  0  0  0  0  0  0
    5.5266    1.0998  -22.6942 H   0  0  0  0  0  0  0  0  0  0  0  0
    8.1666    0.2190  -18.1615 H   0  0  0  0  0  0  0  0  0  0  0  0
    8.1141    7.2394  -16.5623 H   0  0  0  0  0  0  0  0  0  0  0  0
    7.2681   -2.6736  -21.5838 H   0  0  0  0  0  0  0  0  0  0  0  0
   10.5125   -0.5408  -21.6942 H   0  0  0  0  0  0  0  0  0  0  0  0
    4.5719   -0.6670  -18.8839 H   0  0  0  0  0  0  0  0  0  0  0  0
    9.5100    3.5048  -20.6085 H   0  0  0  0  0  0  0  0  0  0  0  0
   11.2577    8.0360  -13.7461 H   0  0  0  0  0  0  0  0  0  0  0  0
   10.3501    4.0546  -14.7034 H   0  0  0  0  0  0  0  0  0  0  0  0
    5.2258    3.9911  -17.3932 H   0  0  0  0  0  0  0  0  0  0  0  0
    6.3315    2.8241  -16.5919 H   0  0  0  0  0  0  0  0  0  0  0  0
    7.6243    4.5079  -20.3313 H   0  0  0  0  0  0  0  0  0  0  0  0
    6.0729    5.1125  -19.6572 H   0  0  0  0  0  0  0  0  0  0  0  0
    8.2794    5.6320  -18.3544 H   0  0  0  0  0  0  0  0  0  0  0  0
    6.8415    5.6270  -17.2777 H   0  0  0  0  0  0  0  0  0  0  0  0
    6.1111    1.2853  -18.5152 H   0  0  0  0  0  0  0  0  0  0  0  0
    4.5073    1.6578  -17.7971 H   0  0  0  0  0  0  0  0  0  0  0  0
    6.6757    2.3598  -20.8218 H   0  0  0  0  0  0  0  0  0  0  0  0
    4.8457    3.0939  -22.3810 H   0  0  0  0  0  0  0  0  0  0  0  0
    4.7298    4.6497  -21.4906 H   0  0  0  0  0  0  0  0  0  0  0  0
    6.2306    4.2377  -22.3876 H   0  0  0  0  0  0  0  0  0  0  0  0
    3.4406   -2.9907  -19.8104 H   0  0  0  0  0  0  0  0  0  0  0  0
    4.1122   -4.6513  -19.6773 H   0  0  0  0  0  0  0  0  0  0  0  0
    3.0189   -4.0194  -18.3997 H   0  0  0  0  0  0  0  0  0  0  0  0
    6.4221   -3.8709  -16.8238 H   0  0  0  0  0  0  0  0  0  0  0  0
    4.7595   -4.5301  -16.6577 H   0  0  0  0  0  0  0  0  0  0  0  0
    5.8527   -5.1619  -17.9353 H   0  0  0  0  0  0  0  0  0  0  0  0
    3.6780    1.9702  -21.3094 H   0  0  0  0  0  0  0  0  0  0  0  0
    3.2708    1.1986  -19.7393 H   0  0  0  0  0  0  0  0  0  0  0  0
    4.7271   -2.3098  -17.7756 H   0  0  0  0  0  0  0  0  0  0  0  0
    4.2501    3.3154  -19.4827 H   0  0  0  0  0  0  0  0  0  0  0  0
  1  4  2  0
  1  7  1  0
  2  5  2  0
  2  8  1  0
  3  6  2  0
  3 11  1  0
  4 13  1  0
  5 14  1  0
  6 15  1  0
  7 16  2  0
  8 17  2  0
  9 13  2  0
  9 16  1  0
 10 14  2  0
 10 17  1  0
 11 29  2  0
 12 15  2  0
 12 29  1  0
 13 27  1  0
 14 31  1  0
 15 30  1  0
 16 35  1  0
 17 36  1  0
 18 21  1  0
 18 23  1  0
 19 22  1  0
 19 23  1  0
 20 23  1  0
 20 30  1  0
 21 32  1  0
 22 24  1  0
 22 32  1  0
 23 31  1  6
 25 28  1  0
 26 28  1  0
 27 32  1  0
 28 35  1  0
 30 37  1  0
 31 37  1  0
 33 37  2  0
 34 37  2  0
  1 38  1  0
  2 39  1  0
  3 40  1  0
  4 41  1  0
  5 42  1  0
  6 43  1  0
  7 44  1  0
  8 45  1  0
  9 46  1  0
 10 47  1  0
 11 48  1  0
 12 49  1  0
 18 50  1  0
 18 51  1  0
 19 52  1  0
 19 53  1  0
 20 54  1  0
 20 55  1  0
 21 56  1  0
 21 57  1  0
 22 58  1  6
 24 59  1  0
 24 60  1  0
 24 61  1  0
 25 62  1  0
 25 63  1  0
 25 64  1  0
 26 65  1  0
 26 66  1  0
 26 67  1  0
 27 68  1  0
 27 69  1  0
 28 70  1  0
 32 71  1  1
M  CHG  1  32   1
M  END
>  <OMEGA_C>  (8) 
vU7PQG5xSr84OrLB0UkVQeDhpb5rLp/B9Y4aQTzl+UBftXLBIn+0QBqYlz6p2q/BSgkLQUrpFD+J
RZjBiUwOQZS23ECVXX7B2tfTQLSe679W1KrBiHkgQV5DHj5yMKjBzwGjQLcaNb+/oJ7BKUEXQchd
HED4V6PBdpAqQR+H6kA612TBEZwiQVd+o0DLem3BUVKeQMqorT6YCKbBCbMLQUNg+z9zd5rBwIoS
QeucsEBE+HvBmIm9QLBM6L+bB6HBWZghQZ0cxT9kNarBrFK/QP4/TUDBfIzB8U7XQDqBh0AwCZ7B
TN71QMLioEDOPI3BmHarQBaXBEAR3ZLBOCS/QLKlSUDeKaTBiXjlQNwYc0AWwpLBNuusQH5AdUAh
Sq7B5A50QNJYcMDR55jBqLixQCuDiMDA+IrBmPiCQCgoxD+oHaPByxShQODYTMAJv5LBjkguQdoo
wEATYGLBR0gIQYqckkBzV4TBqDUFQS6FNkC7qJLBEjqcQGgtJEAEa53BwusqQZz/ZED2o4zBPpUT
Qdy7B0BeM4DBqsPDQFzKN8B2CprBxDAtQaiLAEDwhrLBpwYWQQw7S0AkSojBCm/gQJsJUr9rurnB
UJcUQYI5sb9+lp3B28sXQSHuDUFeT3TBBNqwQLTEjD+xjbXBPqoCQR5DYD7QSpHBStMBQYWp50Ct
f4TBQpToQLEbK8Ctq6zBZTMoQU90Cr/Fja3Bo0ySQJe9Kr9UEpfB5CgYQRpOYEBO3qTBmR80QXuT
AEEq8FvBGZolQX6/gUD1QGvBjDmnQCduf0BGJYvB/pvKQA++NEA8vITB+vnzQMJAkEBqpqLBSlXC
QMmZo0DdQZ3BU3gEQac5tEC+1ZLB5O3aQC4QtECtOIrB8Y3DQEiEpD8uH5TBuzuQQEsz1D9gYI7B
SZ/VQFQGF0ANk6bBtw+bQCEDRkA+DLPBW1qXQP3JlEDV7KvBJGHHQJObh0DGGbPBZDJcQEBnP8DK
e57Bx5aDQFbXlMAJa53BTjZBQPuegMCAMpPBIILNQC69d8A7l4bB3E2YQC/2kMAPQ4XBfEm7QIou
pcCYe4/BK2VrQMEv/D++earBylRRQA1smT8G6p3BOUSXQEzUE8CBNI7BfwCIQHMvVECP3JvBQSDP
QBC7TL+JNrLB/w4hQR2exD8TgKrBT20aQWfo+UDgnXLBU1G0QCvpkz5y4K/BMQwXQYfZHEColqPB
pgcOQTS83ED1IX7BxqzTQOs57L9gxqrB6VkgQei/ID5EOKjBzeSiQA5uNL8mnZ7BV6ELQQqVGz8k
G5jBBnAqQSKF6kCKwmTBby0iQSd5o0BvFm3BzCaeQKdJrD5QDqbBpPULQXDl/T97gZrBWy4SQZKg
sEAHp3vBxXO9QOzi57/x9qDBSs0VQTJPnL7t9p7Beay/QO8ETEALfYzBKwbXQDi3h0DcBJ7BMGn1
QA0BoUBrKI3BQPmrQOaWA0AA7JLBExm/QDW+SUASLKTBmXnlQMtXc0Brw5LB9KSsQOQcdUDOSa7B
uqp1QPo0c8DKY5nBjr2wQEskiMBT5IrBrvOCQGwRxD8FIaPB6GKgQN9wTcDI4JLB8fotQS0iwEDs
HGLBMQYIQfarkkBEPITBGn8FQYNMOECBwZLBOmGcQC/JI0CmaZ3Bj/MqQVs+ZkABY4zB31UTQfCL
B0AFQIDBw8zDQFjHNsAB35nBB9EVQZilz78EipzBXPUVQQHfS0DLN4jBWzzgQIp5Vb8Ft7nB7Ugp
QW/j8T9NjbHBL8QXQWHxDUFjUXTBsKywQNF8iz/4mbXBqtgXQR6iYEBBO6XBoIUBQYmz50AhXITB
kljoQAqQK8DOl6zBs+cnQbwTDL+Kkq3Bpy6SQAkKKb88D5fBrJEDQX2wgj7JAJHB6yQ0Qe6RAEH8
A1zB2QElQWi3gUCzsmrBP1ynQO6RfUBsB4vBdU/LQG8DM0A7y4TBQYvzQFXVkEBWpaLBasjBQIWW
o0C5MJ3BKjoEQUaltED7sZLBFj/aQMThs0BkJorBLDzEQKh+oz/RRpTBj/OQQLCd0D8xbo7BgsPV
QHp6F0B9l6bBxvqaQJGZRUCKDLPBIduWQEWElEBk6avBjvjGQCnLh0AVGrPBEU9eQKodQ8BzHZ/B
odmFQNwWlsDBw53Bg4RBQEKegsC17JPB/nbLQEBAdcB8RIbBBrOWQGoqkcDuaoXBZcq7QASjpMD6
QY/BjoJrQG6O/D/Oe6rBoC1RQLSmmT9t753Bzx2VQHTEFMCpe47BmDGIQAesU0C9xJvBpYLOQGfP
Tb9IT7LBogkhQeQMxj9ve6rBQt8tQaKUxUCT62LB29uzQD6ikj4f7K/B9SIXQYL2HEBbc6PBPFwi
QW2UpUD7f23BMS7TQLnK7L/Y4arBKEMgQfTMKD5WWqjB7/OiQGAaNL90nJ7Bza8LQZ7gFz+KJZjB
MgIpQQPW8ECIA2fBnSUOQZjr3UCoN3/BkAqeQMbCrD4yDabB5hAMQdeY/D/KZZrBJ24SQQnNsUCR
NXzBHEq9QJ8q6L+GBqHBOr8VQWYRn77rIZ/ByWS/QE3KTUAehIzBSoHXQB9Kh0CMGp7BQQH2QCoh
oUB1WI3BbnarQM/uBECF25LBEla/QI/8SECvMqTB56blQARGc0DZypLBwDatQN44dEBaXa7Bbm51
QDrDcsAsHJnBN7yxQCL+h8Bk4orB1N6CQPJAxD+EG6PB3NqgQKQlTcAezZLB8VkZQb5H/EBCz3TB
SDAIQctMk0DcVYTB+VsFQY7+NkDmmZLBQVGcQAAnJECwcJ3BP/EqQSH5YUBCAIzBkz4SQaBfCEB8
m3/BZ87DQOMLN8BX9pnBsqkVQSjz0L/C4JzB3Z8VQZHFSkCp84fBVWffQDjWVr+E17nBSDspQTmd
9D+kgrHB/ls6Qfk6vUC2ulfBkQ+wQCMTiz+1pbXBNQEYQbrnYEBx+qTBe54lQQIxhED8c2rB5LHn
QP39K8BCvqzB9bwnQdslCL98y63Bb46SQAT/J7/NA5fBLa0DQSHuaz4REJHBiwQyQTO/BEHA7F7B
cZoBQQNs50BMDoXBiFinQBIRgEDANovBpJnKQKCFNUC9voTBmTH0QPrqj0BWuaLBZonCQCVpo0A0
X53BW6oEQXYitEDC9ZLBJwTbQB2ItEAIc4rBLX/DQDjbpD81E5TB0CyQQGWI1T/XXI7BEcbVQNMh
FkCmjqbBJl2bQKTTREC0GbPBmqmXQLZZlECVC6zBZbrHQE71hkAOLrPB2k1dQGGvQsB5yZ7BAEeF
QITwlcB+hp3BKCBCQHZDgsAfgpPBseDMQKoTdcAwZ4bB0xyYQBPikMBVRoXBvlO8QCCPpMC0So/B
JQJrQEFe/D9FdKrB9UFRQPPbmT/2353BVRGWQCRJFMBcXo7BGDiIQJRxVEAm65vBePjOQDMdTL+C
PrLB0ScVQcx4pb4FGp/BqOUtQWs/xUBywmLB7DS0QASxlD4R3K/BAEALQfwrFz+BIZjBw4oiQbZo
pUAFnm3BVpLTQOlW7L8N16rBFQMgQbYlFT5bPqjB2PaiQICYNb+ymp7BcSwXQc4wHEDkZ6PBiO0o
QWeM8EBAmGbBf0wOQen33UCVIH/Bwi+eQHjxqz4qBKbB4+kLQV5L/D+oZ5rB8qQSQbTUsUB8UHzB
rmi9QGGv6L8CBaHBiCkhQfHCwz9VVarBCpm/QFNsTUDPgYzBImLXQJR2h0AUGZ7Bluf1QNBJoUC2
VY3BrMSrQFKPBEAN3JLBFDS/QDRTSUD/L6TBGKblQBGGc0B+zZLBeNasQBSwdEBTUa7BG4N0QD3e
ccBNEpnBAnexQPqYiMDZ94rBHPSCQHTlwz+NEaPBgNGgQDN7TcAbzpLBLFoZQbQu/EDRcnTB7lsI
QbJ4k0BYZ4TBBG4FQXe9N0CDrZLBEF+cQCoEJEC9Z53BoQQrQRP0X0CY34vB4p0RQSgFCECYrn/B
iLXDQLPMN8BzAprBO2UsQWqY/j9UzrLBWYEVQUpBSkCN84fB6gHgQAUMVL/fwbnB1nEUQV/ysL/O
c53BG1g6QcK+vEB4jVfBgnqwQDjjiz8JkbXB2iUDQTktcT4tDJHBROUlQSr7g0AgymrBZz7oQCaL
K8AcsazB0XUnQVpJDr/Vp63BNmOSQAm3Kr/ZB5fBCSAYQVwMYECs+qTBMMkxQcGLBEF2QV7BbdYB
QRmc50DqCoXBv26nQKp1f0AlKIvBPf/KQL0LNUBKwoTBNAT0QH0nkECAu6LBmmLCQIONo0AYWJ3B
1W8EQT+RtECJ95LBbd/aQOxptECgWYrB8erDQL+3pD8uIZTB2aCQQEPj0z+iWY7Bc6/VQHWwFkDk
l6bBsfeaQAFNRUDKDLPBm0GXQDh/lECL9KvBijrHQLBRh0BdJ7PBNalcQG89QcBxsZ7B41SEQMWF
lcCRi53BLVBBQO2egcB2b5PBEejMQBJAd8AVg4bBbOCXQJxJkcBGVIXBOI27QHUwpcBgcI/BfRpr
QNfx+z/FaarB9HlRQMJYmT8n1Z3BUH+WQJWbFMBXTo7BpzWIQPcaVEAz1pvBAXatQPTior/bVrPB
A0sjQahoXjxOep/BgX8XQbfb7UCcdWTBulmXQKAm7L17HrDBvt4WQZ2RNT+l4JfBiVsLQSHiz0CV
DXDB9pO/QHXrB8BSm6vB7ioqQVKLKj+z2KjBtPKlQHXzJL89bZ3BB5sZQVWHLkAWmaLBYbstQQy+
8ECXImjBeCIsQRiSukBPBoHBhlCUQKWPYj7yKqXBifAQQXV+A0Dup5nBstUVQXdatUDN737B/sC7
QFyV6L9cpKDBVG0lQSHhAUCTWKrBdPK+QA+tYUC2QI3B8fjZQEFvgUBUe5/BODn/QN6dokAqeI/B
yuamQPxHFEB2EJLBnOvBQIuoNUDkV6TBj9roQLKRdED6opPBBfC1QCuVTkBr+q/BUCvaQM9oDcBN
TIbBEfcKQZv5NsBu7pLBOJp7QAylwD9B2KHBJSDrQMfZBsDj05HBt583QSWF10DCunbBNy0KQWXy
lkBtRIXBNuUEQVKLLkDZ05HBMlmbQFCrI0ALgJ3BRp0oQUR1OUDp1YbBb90FQfyJFEAI8HnBHrnM
QLcvLMC8N5nB0p0sQRrGK0AQGrPBRVMRQY/MQUAtiIXBmoawQEbxwL/bvLvBt4cnQTR8gr9VHJ7B
K+IPQds6AUGO3FjBaZqIQBgYBT8LDrbBldkRQTa2Vj7vo5DBWZz0QMxEzUCwlG3BP3TQQGXoQMDb
E67B/AkzQeWQ/D0f267B68uiQCue0r7qBpXB5hsXQfyNckARfKPBwxA3QVLHA0GNHV/BNDE0Qefu
pkD44YbBEBKqQPsmjUBzj43BNjLHQKqTU0Cf4YTBg2v2QH/ah0DraKTB85XEQHxhnUBHr5/BiZkL
QZGirUA5S5XBQZvnQEAivEC9GI7BHIi7QC/Btj+wkZHB1nWJQBgxCUC+cY3B1C3XQMYc+z+dd6TB
qqukQMxRGUCAyLPBQGShQJ/eg0Dg3q/BAULTQNNiXEAUiLTBtKO7QBt81b/PqIXBayvVQH0ZUcBl
OoTBxZXxQDIt4r9Kw4DBFccQQf6cMcDkNZvB+s0WQTrWGsCrc43BzZgIQR3ZesDG6pDB9ZlaQEBw
9T8H4qjBBElMQKUnoT8YopvBvU/wQAT/hb9dyJPBH1qKQCrlWUDyhZ3BGHytQITxor9/VLPBqkoj
QegwVzwlep/BEvA2QfeM2UAsyHXBU1yXQN5q7b2jHLDBjt0WQf9mNT+D4JfB+QgsQUnzukBUDIHB
upi/QPLvB8CBmKvBMysqQW55Kj812KjBCu+lQJoUJb8Oa53B8psZQSKCLkDdl6LB8mcrQd5G8kCm
2GbBekQLQR3Hz0CK8W/BOk6UQIXuYT4lKaXBTvAQQa11A0A+p5nB+tcVQf5ntUDJ9X7BvMC7QBCg
6L+ooaDBDm4lQZvdAUCgV6rBkfG+QDu+YUDIQY3BHfrZQN5mgUDhfJ/BVUH/QAydokDse4/BIeGm
QAFWFEDJD5LBLubBQO+aNUAoWKTB49voQOCNdEAzpJPBNem1QFaHTkC2+q/BqivaQM+RDcC2SIbB
GvYKQe/1NsCf7ZLBPpF7QEuPwD+o1qHBmhvrQNXjBsBr0JHBCAMWQYJS7UBtNWTBgzcKQc73lkBk
SYXBWeMEQb1/LkCJ05HB41ObQJ6oI0Def53BIpgoQdYtOUAW0obBgNAFQSWvFECT7HnB8LTMQJ01
LMCbNJnBCJ8sQZLEK0DgGLPBQk8RQe7DQUAmh4XBWZCwQHT/wL9rurvBkIcnQcqKgr9hHJ7B+PRH
QZMY3kAPunfB+52IQM3nBD+PDLbBCtcRQZXOVT5NpJDBdX80QXzyp0Di5IbB/HvQQIfqQMCfEK7B
XQozQTMz/D262q7BisSiQLfl0r7NBJXB4h0XQe2JckA6eqPBA8wzQUvXBEFUS13BZG30QD9VzEDB
wG3B0RSqQPUxjUApko3BVS/HQKCwU0BD4oTBeW32QGbKh0DPaqTBnZvEQGlcnUDfsZ/BO5oLQUOe
rUAfUZXBoKXnQK8ivECHG47BUX+7QLnVtj+Zj5HBnm+JQAhNCUDEcI3B8CTXQBj3+j/1d6TBAKCk
QK5HGUA6yLPBl2GhQLDag0Ah36/B+jrTQANLXEDuiLTBB6K7QBfh1b8/o4XBADHVQIxIUcAeOYTB
X5bxQF+M4r89v4DBdsQQQYCDMcAnNZvBFM0WQd/YGsBjco3BZZoIQTvbesBF7JDB5IhaQPRL9T9D
4KjBjUZMQAkSoT+4n5vBNUXwQOMHhr/WwpPBeFSKQADiWUAch53BDAivQHtboL8/a7PBCVAmQcAj
BkDuS6rBuxkXQWZz7UC8DGTB8mGYQJCN2r3+KrDBdwYaQVx1MUBDl6LB6w8LQeRxz0Dou2/BERDB
QNDiBsBpsqvBoRYrQTDBOz968ajB7lqmQIU2J7+pd53Bt8wWQbKDOT+YP5jBfVEtQaq68EAVvWfB
bOYrQTTeukAc6oDBP+GUQHiNXz6AMqXB+woRQZ/xBEDP0ZnBZJ8VQbpEtUBhuH7BYDe8QFa06L/3
t6DB6tUjQUilYj3Dxp/B2/S+QAcTYUBfOo3B8dvZQKahgUDoc5/B8/P+QBqtokDXZo/B6hWnQGue
E0AwEZLBEM7BQDYmNkCfV6TBdsHoQKymdEDtn5PBI5G1QAK1T0Az8K/BE4D4QEYoBcC96InB6tkJ
QYBKacASVpjBahl8QOhsvz/k2KHB76f3QEKKGsDQ8ZXBVko3QezY10CvbHbBtxAKQajclkDmN4XB
Q+oEQcvXLkCU6JHB/F2bQFBcI0BXe53Bja8oQUYsOkCh7obBLQ0GQarKE0DbG3rB1yfMQE/0K8BW
K5nBpLMpQVCVnb+zLZ7BrGMRQczLQUDRmIXBDJKyQDjuvL9w07vB/hUsQZrmJ0DmQrHBVGsPQTPj
AEGwX1jB4JOJQHtfBz+3F7bBmGkXQah+dUAlYKPByQv0QAuKzEDQQG3BPJvSQF0LP8CKLK7BU000
Qd1IVT687K7Bk/yiQL4l274wD5XB0jERQYVlSz4HPpHBtpI2QTvJA0Hip17BDQY0QfSAp0B2zobB
jeypQCe+jEAVfo3Bp1HHQLPEUkB93oTBGkv2QAYgiEAoYaTBqHbEQNySnUAToZ/BcnALQUTurUD9
NZXBkTnnQOsOvEAd/o3B5OG7QLfctT9xn5HBqbqJQLsBCED6bo3BfinXQKds/D8ojKTBZEmkQGKX
GkCJxbPBP/WgQEdhhECmwK/BLMjSQLTqXUCsg7TB603kQC6jmb8DYIjBUj3sQAAJPMDqU4XBkcgM
QZm+7r/AbofBZFQJQehwd8Dj86DBOXQaQWcEXMDu7pXBUcoDQQ1XkMAY1JPBJ+ZaQN4K9D894KjB
o+dMQL35nj/wo5vBXSUCQT/1xr9CbZrB5SqKQGpUWUDLdZ3BigWvQLFOoL+NbLPBwFImQYkRBkAD
SqrBt6I2Qfi02UCkaHXBqWKYQFpa2b3nK7DBqAkaQcxhMUAMlaLBidUrQUIcu0Cg6IDB5QnBQA/k
BsAFtKvBrxcrQStuOz9b8KjBv1emQCc+J7+6eJ3BMcwWQXcaOT//PpjBFQYrQe4a8kCvZmbBfv8K
QX9Mz0ChnG/Bw+CUQIXWXz44M6XBaAwRQQTaBEBc0JnBzKgVQX49tUDhtX7BfzG8QMa86L99uaDB
dtUjQWR4XD1Dxp/Btfi+QA0TYUAlOo3BjObZQDybgUAYc5/B0gH/QA2kokAgZo/BOxenQPafE0DQ
EJLBwtLBQM0hNkAbV6TBaMnoQKWXdEDfnpPB7Je1QKm3T0Cq76/BT3X4QNQ3BcAX6onBZtQJQXRc
acBDV5jBNRx8QFB5vz/c2KHBQJ/3QDaZGsAo85XBZ6UVQZbW7EAWyGPB+SAKQSHSlkCxOYXBBesE
QdW8LkAo55HBFWGbQCNfI0AUe53BBKwoQcavOUCk6IbBJv8FQWHIE0DdFnrBjR/MQB/+K8BCLZnB
u7EpQa3Lnb/TLZ7BZWERQZmdQUANloXB14+yQGjavL/U1LvBoRksQRXXJ0CWQLHBzKNHQQJ/3kBs
VnfB95eJQMSfBz91GLbBhm4XQcZsdUAZXaPBBV00QYJaqEC4x4bB5JHSQMUPP8BuLq7BRU40QR8S
VD7F667BcvmiQAJQ274qEJXBwS8RQSyIST4BPpHBX1YzQbfABEFkx1zB/ujzQJKcy0Bwb23B5/Op
QJfAjEASf43BCFHHQNLIUkDg3YTBlVf2QIEUiEAXYKTBCobEQBKQnUCRoJ/BMnILQbzprUBkN5XB
PUjnQKsDvEAZ+o3BHuG7QOjZtT/VnpHBKruJQCwICEC8bo3BRCrXQAFY/D/wi6TBHUykQG6gGkA9
xbPBdQChQMdlhEDlv6/BIdDSQILlXUAMg7TBnkTkQDC9mb+fYYjBui/sQCMXPMB5VYXBH8MMQW3m
7r+eb4fBcU8JQWmBd8Af9aDBtW4aQS8bXMCz75XBc8MDQY5fkMCP1ZPBO+haQG8f9D/q36jBU+tM
QK4Enz/Vo5vBRSICQYEVx79jbprB/y+KQM1ZWUC/dZ3BPf+uQEcsn7+ibbPBAWcmQaRUBkCbOarB
vI8qQc/LyEAZLV/By0WYQJ5lzL2GKLDBtSMaQWOWMUCDgaLBQfseQXToqUC2s2rBrwzBQAVjBsAu
uKvBlCIrQYxHPD9e5ajBcz6mQBCbJr9/d53B3tsWQcRxOT/eMZjB33ksQcWL8kDFgWfBuO0XQZdW
4ECYyILB+rqUQDISYz6ZLqXBfSMRQTP4BEBmv5nBxHwVQQCMtUCtXX7Bmii8QCIn6L+NvKDBnN4j
QThZZD0IvZ/BLfS+QM3+YEAQN43BV+jZQFpUgUDddZ/Bucr+QBONokBqhY/BngSnQKebE0ATCpLB
8bPBQPvbNUA2VKTB9broQOJFdEB/oZPBzXa1QGPDT0D86a/BAWf4QBFNBcAA7YnB38wJQZk2acCI
YJjB98l7QMqzvz/NzqHBzZP3QKl3GsCZ95XBkkIjQXOn/UBJUHrBETwKQShGl0CgV4XB//IEQRzH
LkC/25HB80abQCBhI0A+dJ3BO64oQfE5PED/z4bBK/gFQQn3FEBA63nB5BTMQCnNK8BDM5nBW7Ep
QQqvnb/pKp7Bs1URQfKBQkASiYXB+JOyQBNgu7/L1rvBiTAsQeksKEA1LrHBL+wxQXuiwECeFVDB
iXCJQHFdCT+XErbBHY8XQauodUD/RKPBMV0dQV26iUCOnGTBmqTSQKpxPsDQNa7BYVM0QZfXVz6I
467BEN2iQPca274aDpXByz8RQSkaSj7CMZHBeX01QQMYBUF0sl7BxYkQQUXP6UDUOYrBUfqpQKS+
jEC+e43Bf1bHQKi+UkAm24TBAGX2QO2ch0CZYqTBO6nEQOhhnUC7qZ/BIDkLQSvGrUAwZ5XB9fTm
QHLUu0DcG47BBMa7QM23tT+0mJHBOquJQLcZCEAWZo3By+7WQMx3+z8gjqTBNgqkQMziGkAUwrPB
af2gQJWAhEA0tK/BObDSQELKXUDDfrTBDznkQEXsmb/4YIjBrxzsQEQ+PMCJXIXB8rsMQcM277/a
cIfBHUkJQfI0d8Bl/6DBHGcaQaEHXMBI95XBgrkDQUJVkMD34pPB8HBaQG109D9W0qjBdLlMQKUe
nz+alpvB5h0CQTGvxr/3bprBryWKQOZvWUAwb53BKA6vQMdGn7/mcLPBmm4mQT0yBkBXN6rBX+Yj
Qb3o/ECL53jBQFSYQJr0zb10LLDB5SoaQa54MUDgf6LB3/MXQYQ/4EA0toLBTxjBQJJwBsAKu6vB
FykrQR+/Oz964qjBfESmQLjNJr8Be53BM+AWQWQUOT+cL5jBO/AsQYOZ7kBqhmXBEf4eQc2dqUCJ
qGrBGsWUQDdPYj6YMqXBJSkRQUHhBEDBvZnBAn0VQc2JtUDiXn7B8i68QIRC6L98v6DBjOMjQUgN
XT0Qup/B8fW+QAXvYEAPOo3B+/LZQEtFgUCReJ/B4cn+QA6GokCUiY/BSganQBeNE0BrDZLBpL/B
QInBNUAPV6TByr/oQMcvdECpo5PBU4m1QEKqT0Aw7a/B9mP4QAVfBcCt7onB78oJQUtWacBAYZjB
Edt7QNGYvz9G06HBKZT3QE+PGsA8+ZXBNVsqQdTHxUCfsl7BwT8KQYNLl0BTXIXB4PUEQVa1LkBu
25HBwU6bQAZRI0AreJ3Bn60oQY8qPECfzIbBdfMFQc8aFUDX5nnBkRXMQBzcK8CkNZnBerUpQSrq
nb8lJ57B+lQRQTuHQkAMiIXB2KWyQOV7u7/22bvBSzksQQUHKED3K7HBgCMmQVnKDkEAE37B74GJ
QLYtCT/tFrbBJ5cXQRSLdUDpQ6PBrL4QQSmv6kA9HorBlbHSQNF+PsA3OK7BO1o0Qcx3VT4r4K7B
vt+iQGN92760EZXBpEIRQUvdSD6IL5HBESA2QXNUAkHH51vBiyAdQaUriUDcAWXBsf2pQNi3jEBv
f43BvlTHQOevUkDl3YTBbnL2QNyKh0CJZKTBe7XEQO5TnUCfrZ/B7zULQVDArUCbbJXB/u/mQJvJ
u0AZII7BqMW7QKqVtT8gm5HBN6qJQFMQCEBLao3BRPjWQLs7+z8dkKTB+xykQOLLGkDUxbPBshGh
QFt1hEAUuK/BjMXSQD6tXUAIgbTB6TjkQKwEmr+OY4jBbxTsQP5KPMAbXoXBXboMQb9o77/ScYfB
HUgJQeJWd8ASAKHBNWUaQSkvXMBk95XBELUDQeNikMCt45PBnoZaQJRa9D8d16jBicZMQIwDnz+N
m5vBayACQQ/oxr+ycJrBhS+KQGNiWUD9c53B

>  <OMEGA_E>  (8) 
CP7mPijI7D5Aje8+uHzlProgXz8SKV8/JPpgP7wHYT+6oGE/yK9hPw==

>  <OMEGA_NBR>  (8) 
     29878

$$$$
50220588
     RDKit          3D

 70 74  0  0  1  0  0  0  0  0999 V2000
    6.4421   -0.8037  -22.2887 C   0  0  0  0  0  0  0  0  0  0  0  0
    9.3253   -0.3232  -19.8924 C   0  0  0  0  0  0  0  0  0  0  0  0
    5.6090    0.2850  -21.9851 C   0  0  0  0  0  0  0  0  0  0  0  0
    8.7160    0.5886  -19.0120 C   0  0  0  0  0  0  0  0  0  0  0  0
    6.5946   -1.8503  -21.3620 C   0  0  0  0  0  0  0  0  0  0  0  0
    9.9940    0.1484  -21.0398 C   0  0  0  0  0  0  0  0  0  0  0  0
   10.5814    7.3896  -14.4478 C   0  0  0  0  0  0  0  0  0  0  0  0
    5.0925   -0.7077  -19.8198 C   0  0  0  0  0  0  0  0  0  0  0  0
    9.4527    2.4423  -20.4210 C   0  0  0  0  0  0  0  0  0  0  0  0
    9.6010    7.7827  -15.3734 C   0  0  0  0  0  0  0  0  0  0  0  0
   10.7425    6.0195  -14.1786 C   0  0  0  0  0  0  0  0  0  0  0  0
    4.9346    0.3349  -20.7472 C   0  0  0  0  0  0  0  0  0  0  0  0
    8.7585    1.9700  -19.2906 C   0  0  0  0  0  0  0  0  0  0  0  0
    5.9133   -1.8181  -20.1283 C   0  0  0  0  0  0  0  0  0  0  0  0
   10.0654    1.5329  -21.2973 C   0  0  0  0  0  0  0  0  0  0  0  0
    9.0713    5.5379  -15.7291 C   0  0  0  0  0  0  0  0  0  0  0  0
    5.9881    3.2304  -17.5725 C   0  0  0  0  0  0  0  0  0  0  0  0
    6.7425    4.2259  -19.7795 C   0  0  0  0  0  0  0  0  0  0  0  0
    7.6968    5.0485  -17.6911 C   0  0  0  0  0  0  0  0  0  0  0  0
    5.3694    2.0832  -18.3548 C   0  0  0  0  0  0  0  0  0  0  0  0
    5.9762    3.1379  -20.5304 C   0  0  2  0  0  0  0  0  0  0  0  0
    7.1833    3.8103  -18.3624 C   0  0  1  0  0  0  0  0  0  0  0  0
    5.3968    3.8127  -21.7960 C   0  0  0  0  0  0  0  0  0  0  0  0
    3.8296   -3.7955  -19.1343 C   0  0  0  0  0  0  0  0  0  0  0  0
    5.5572   -4.2600  -17.3654 C   0  0  0  0  0  0  0  0  0  0  0  0
    4.0876    1.5302  -20.3735 C   0  0  0  0  0  0  0  0  0  0  0  0
    5.0277   -3.2129  -18.3511 C   0  0  0  0  0  0  0  0  0  0  0  0
    8.8549    6.8527  -15.9914 N   0  0  0  0  0  0  0  0  0  0  0  0
    9.9800    5.1151  -14.8180 N   0  0  0  0  0  0  0  0  0  0  0  0
    8.3421    2.8655  -18.3244 N   0  0  0  0  0  0  0  0  0  0  0  0
    8.4750    4.6007  -16.5429 N   0  0  0  0  0  0  0  0  0  0  0  0
    4.8879    2.5648  -19.6756 N   0  0  1  0  0  0  0  0  0  0  0  0
   10.6794    3.5959  -17.4906 O   0  0  0  0  0  0  0  0  0  0  0  0
    9.1704    2.1528  -15.9718 O   0  0  0  0  0  0  0  0  0  0  0  0
    6.1162   -2.8698  -19.2517 O   0  0  0  0  0  0  0  0  0  0  0  0
   10.7543    1.9944  -22.3643 F   0  0  0  0  0  0  0  0  0  0  0  0
    9.3558    3.1945  -16.9907 S   0  0  0  0  0  0  0  0  0  0  0  0
    6.9653   -0.8372  -23.2329 H   0  0  0  0  0  0  0  0  0  0  0  0
    9.2809   -1.3830  -19.6895 H   0  0  0  0  0  0  0  0  0  0  0  0
    5.4844    1.0849  -22.7000 H   0  0  0  0  0  0  0  0  0  0  0  0
    8.2162    0.2312  -18.1238 H   0  0  0  0  0  0  0  0  0  0  0  0
    7.2384   -2.6849  -21.5971 H   0  0  0  0  0  0  0  0  0  0  0  0
   10.4524   -0.5515  -21.7228 H   0  0  0  0  0  0  0  0  0  0  0  0
   11.1987    8.1248  -13.9531 H   0  0  0  0  0  0  0  0  0  0  0  0
    4.5853   -0.6617  -18.8674 H   0  0  0  0  0  0  0  0  0  0  0  0
    9.5138    3.5033  -20.6135 H   0  0  0  0  0  0  0  0  0  0  0  0
    9.4475    8.8301  -15.5876 H   0  0  0  0  0  0  0  0  0  0  0  0
   11.4784    5.6933  -13.4585 H   0  0  0  0  0  0  0  0  0  0  0  0
    5.2347    4.0169  -17.4185 H   0  0  0  0  0  0  0  0  0  0  0  0
    6.3381    2.8617  -16.5970 H   0  0  0  0  0  0  0  0  0  0  0  0
    7.6404    4.4820  -20.3609 H   0  0  0  0  0  0  0  0  0  0  0  0
    6.0951    5.1112  -19.6957 H   0  0  0  0  0  0  0  0  0  0  0  0
    8.3333    5.6201  -18.3826 H   0  0  0  0  0  0  0  0  0  0  0  0
    6.8576    5.6778  -17.3601 H   0  0  0  0  0  0  0  0  0  0  0  0
    6.1247    1.2982  -18.5074 H   0  0  0  0  0  0  0  0  0  0  0  0
    4.5220    1.6714  -17.7871 H   0  0  0  0  0  0  0  0  0  0  0  0
    6.6726    2.3416  -20.8320 H   0  0  0  0  0  0  0  0  0  0  0  0
    4.8307    3.0724  -22.3804 H   0  0  0  0  0  0  0  0  0  0  0  0
    4.7285    4.6346  -21.4997 H   0  0  0  0  0  0  0  0  0  0  0  0
    6.2194    4.2114  -22.4079 H   0  0  0  0  0  0  0  0  0  0  0  0
    3.4515   -3.0421  -19.8409 H   0  0  0  0  0  0  0  0  0  0  0  0
    4.1537   -4.6883  -19.6892 H   0  0  0  0  0  0  0  0  0  0  0  0
    3.0307   -4.0713  -18.4303 H   0  0  0  0  0  0  0  0  0  0  0  0
    6.4097   -3.8429  -16.8093 H   0  0  0  0  0  0  0  0  0  0  0  0
    4.7594   -4.5362  -16.6602 H   0  0  0  0  0  0  0  0  0  0  0  0
    5.8825   -5.1531  -17.9191 H   0  0  0  0  0  0  0  0  0  0  0  0
    3.6601    1.9658  -21.2886 H   0  0  0  0  0  0  0  0  0  0  0  0
    3.2747    1.1993  -19.7104 H   0  0  0  0  0  0  0  0  0  0  0  0
    4.6964   -2.3240  -17.7941 H   0  0  0  0  0  0  0  0  0  0  0  0
    4.2610    3.3200  -19.4844 H   0  0  0  0  0  0  0  0  0  0  0  0
  1  3  2  0
  1  5  1  0
  2  4  2  0
  2  6  1  0
  3 12  1  0
  4 13  1  0
  5 14  2  0
  6 15  2  0
  7 10  2  0
  7 11  1  0
  8 12  2  0
  8 14  1  0
  9 13  2  0
  9 15  1  0
 10 28  1  0
 11 29  2  0
 12 26  1  0
 13 30  1  0
 14 35  1  0
 15 36  1  0
 16 28  2  0
 16 29  1  0
 16 31  1  0
 17 20  1  0
 17 22  1  0
 18 21  1  0
 18 22  1  0
 19 22  1  0
 19 31  1  0
 20 32  1  0
 21 23  1  0
 21 32  1  0
 22 30  1  6
 24 27  1  0
 25 27  1  0
 26 32  1  0
 27 35  1  0
 30 37  1  0
 31 37  1  0
 33 37  2  0
 34 37  2  0
  1 38  1  0
  2 39  1  0
  3 40  1  0
  4 41  1  0
  5 42  1  0
  6 43  1  0
  7 44  1  0
  8 45  1  0
  9 46  1  0
 10 47  1  0
 11 48  1  0
 17 49  1  0
 17 50  1  0
 18 51  1  0
 18 52  1  0
 19 53  1  0
 19 54  1  0
 20 55  1  0
 20 56  1  0
 21 57  1  6
 23 58  1  0
 23 59  1  0
 23 60  1  0
 24 61  1  0
 24 62  1  0
 24 63  1  0
 25 64  1  0
 25 65  1  0
 25 66  1  0
 26 67  1  0
 26 68  1  0
 27 69  1  0
 32 70  1  1
M  CHG  1  32   1
M  END
>  <OMEGA_C>  (9) 
rSXOQDq9Tb9FT7LBcTQVQSp1pb6oI5/ByHyzQNHpkT6O4a/BjnQLQXSwFj+GGJjBwwbTQMHW7L9O
5arBfucfQfbuFz6cUajBVU0pQWV37EAfKmfBdPWiQPIpNb8Gj57BXj4XQUlPHEAoXqPBmp0ZQT8M
+UBf+XXBXOErQfWfwEBu22LBiuidQCVyqz5O+qXBqiIMQVEp/D8/U5rBAjq9QMK46L/FBqHBwwsh
QWA1xD/aYKrBMSQRQd42sUBjqnvBuZ6/QOq+TkCOlIzBX8LXQEE6h0BfPJ7BlEz2QBWNoUB3h43B
YNKrQFBTBUCp1pLBCj2/QOHSSEBWPqTBMt3lQHvbc0A55pLB5rKsQJIDdEAoXq7BZhh1QPLpcsAY
E5nBwtSxQERSiMBg7IrB/s2CQOvewz/a/KLBh+KgQKafTcAIz5LBfa0NQWxJ20Cl3H/BHa4fQQyv
o0COFm3BLHkFQQhkN0BKmJLBcZkHQfY4k0DWV4TBFGqcQOskJEC4Z53BqN4qQfwjZkDJ7IvB67kS
QbrGCUB9jH/BGrjDQKWqN8B+A5rBjhEsQa1J/z8N6rLBKLEVQYJyTEDl7IfBdOPeQPpSVr8O3bnB
Zn4UQT0Gsb8thJ3B83+vQHHcij+tmbXBrnUDQbW/bD54/ZDBzaDnQPDVK8D2xqzB5zwnQUAyDb9M
yK3B/C0zQTP/AUHdP1/BAruSQO1mKb948JbBgTgYQc01YEB06KTBBSkXQR9IDUG3ZnnBc6c3QZwv
tkAMVlfB6oKnQNiKgED+WIvB1dHKQOkmN0C6xoTBa370QCRsj0Az46LBuQrDQP2Oo0DQkJ3BZFUF
QbHXs0CZD5PBt3HbQOSwtUBv4YrByP3DQBwrpj8QD5TBl7SQQJbv1T/uS47ByYXVQAfcFUDrp6bB
U5WaQOCiRED8CrPBok+XQMtOlEBv/6vBCwXHQBPEhkBqQ7PBHuVcQDSxQsBAup7Bg+uEQMEGlsBq
g53Bw/ZBQHRIgsBEcZPBaBzNQKPxdcCIeYbBIU2YQEIokcAxSIXBQj28QI/mpMBXWo/BVD5qQOqe
+z8KT6rBNZVRQDmDmT/jrp3By0iWQI+8FMBoWo7B7FmIQDN6VEAR4JvBJEDOQGsuTr/HTbLBXxEh
QZH8xD/Me6rB+J6zQDTRkT7L4q/BOkQXQSHRHEBKd6PBLhbTQLIA7b8Z4arBPjYgQXFtIT6eT6jB
omooQYcS7kA/LWfBLRmjQB1oNL+Pjp7Bfr0LQVlxGT/mF5jBoqMXQQHH+UDM7nTBIposQc5ZwkCg
+mPB5v+dQOKxqz4C/aXB9TEMQUot/T8oZJrBlV29QKZh6L9H/6DB0roVQYjrnr4uDp/BkTYRQVaG
sUDI0nvBsKS/QAlcTkAkjIzBGojXQF9Ih0DhMp7BThL2QG6PoUDFgY3BfsWrQNQYBUBm0pLBIBW/
QNzySECsNqTBi8blQJTPc0A54pLBaHqsQNwvdEBQU67BvyR2QJFHdMB2YpnBovGwQNvvh8A004rB
hM2CQDWvwz8M/6LBc36gQBTJTcC05ZLBXzYMQYha20Do6n7B5dogQWq/pEAIQW7BNn4FQSKYN0CB
opLBsMgHQdlgk0DSaoTBqU+cQF0MJEAtYp3BMPUqQTvPZkDEMIzBLCsTQU9yCkBBvH/BXdbDQDUl
N8Bj7JnBpJgVQWq30L8dv5zB2+QVQcb+TEBxDojBzf/eQJUpV78w27nBPD8pQTDY8j+9iLHBB7Kv
QA/aij9Xm7XBajYYQc6zYEB0BaXBXJbnQNIRLMAfw6zBEpknQc8wC7+/vq3BCOgxQU4WA0E4OF/B
COKSQMYYKL/I75bBHroDQVDgdz4F/pDBI/ATQUiTDUFBeXfBjj85QVSKuED5RVnBrIanQLxMgEBm
Q4vB1vvKQGqGNkCAxITBnTL0QFafj0BZ3KLBt7rCQAWKo0A8f53BM/wEQQottEDiE5PBqCLbQAtc
tUBkwIrBKOnDQPGmpT90D5TBGqqQQFh11T8DR47BPGnVQKQaFkDHo6bBnmaaQHXLREDrAbPBsAqX
QMpVlEAj8avBBsPGQBDwhkAzOLPBbrNeQD+uRMAdK5/BrzqGQMe8lsDpsJ3B+/hBQP0Og8Cw6ZPB
vJPLQLFAdMDfOIbBHOiWQEfekMAWV4XBTSa8QBGMpMBOHo/B0lRqQIOQ+z+cUarBvYNRQEgBmT8z
tp3BsQ+VQLvpFMC3kY7BSTGIQC9DVEAx15vBmMOqQFA2kL+prbTB5igsQbMN6z/exqXBAxWVQAB9
DD3GW7HBY4cfQQ21IEBSLZ7BEe+6QLCOAcBJA63BQo0oQULp8D462qfBe1UsQfIN4EDzh2LBLdif
QFuBF7+usZ7Bk5QLQSrz6D7UtZrBFc0yQVPD1UCec3fB31oZQauuzUCOrlrB04iQQJEkpz5jW6bB
rvcOQW8c6j/2tZjB1bu0QE4q47/4BaLBCFYYQTanY77DS6LB75YUQVL2qUAjRXvBRbe8QK9cXkDb
Zo3BBHjfQFO1eUDcM5/B+JQAQVxSm0AVgo7BoCyjQIoaFUDXmZLBuv/CQGgzNEC2eqTBM73oQEn9
aUAcFZPBJKK5QL8iU0COCbDBf1SiQAaDmMDWG5XBWW2vQEQjOcCe4IfBYGR3QPwZ0T8/56LBeqmj
QApQT8AjhZPBG9QmQXMPu0B5xYHBIdYNQbq/skB0F2fBsdwCQQPcHkBZ2JDBXG4IQTsZjkBv4IPB
YI2aQJKJJ0CXGZ7BpjAmQUmTJkDFQ4XBJ50CQWSaAkBBFXjB48LDQKAaLMCsrZrB/xsVQQD0xL9Y
OKTBpNcOQdfgL0BcVITBjv2uQEUNqr+eGb3Bj5w4QedmF0C1A6rBx9SHQL/WND80QbfB5HwiQet7
Y0D7gZzBAx/MQIH6OcBMja/BHTUyQfsiP73Ss63BxrI1QQuD9UBGvljBN5qbQN8oyL52RZbBGXL+
QMWgn73RbpbBIF1BQb8340Ax4H3BKvYTQakb1UDDsErBOE6qQEQRjUD5Do7B+CDCQL1cT0A46YTB
4Tb+QOOue0DyeqPBjjrPQA3qm0DtA6DBLx0OQQeeo0AhvZPBpbzrQH0Vt0AawI3BNLK1QKrksj/w
+ZHBw4uEQLeYDUDjXY7BMvHUQLFm7z901aTBm2ylQHnLI0DZJbTBWeOoQCSCiED+v6/Bo/PXQDCO
WkA8abTBI+SZQMjKn8C7dJ3BTe7BQIwppsAgRZPBMziKQOp7psB3u4/B/TewQCRi5r9H5obBoGCX
QHeGVMCDcILBuhbPQLrhU8At+oXBko5ZQHQ9BkAS9anB+NFFQKP0sz8e7ZzBqvyDQPZnNMCnXpXB
Q4WLQLcGYECwPJ7B3QOqQLRPmb+w/7PBGScfQe+Ueb72I5/BcNSUQD5HkLzT4bDBCKASQYrJ8T60
sZfBf4u6QKpsBMAVLKzBuVIoQeGs2D7i9afB61ItQe8L5ECXQ2TB/7KhQHZ6Dr+oJJ7B3CAaQbkp
IkBGXKHBqpQsQSBz6EBvoHrBWYYhQdm8wkDpzFrB8lORQKarpD7R8KXBEXsPQT2g7j888pjBKsW1
QJPt4L+BOqHBqaQlQco56D/GF6nB4nsVQUZxrUBBqXzBkai9QL2UYUDHZY3BJ57cQFfyfkAWXp/B
7L8AQfPmnUDeF4/BMfqjQMtxF0BAdJLBDZ7CQL2uNUBee6TB9/noQCWdbkAbZpPBrey4QPcGUUCF
KrDBXy2+QLwVk8BNeo7BHt17QEYOR8DtPJHBri14QNpL0D8dqKLBpSenQLwMa8DgeZbBjZIgQUxn
zUC8OoPBlPkVQcyup0B2HWfBUYoDQZBVJEDEQ5HBqnoJQdMtkUBpkYTBq6OaQEo0KEA2/53Bg8km
QVNKK0BmsoXBKiIDQeXGCUCbu3jBZ7jEQNVqJ8DVe5nBJVMuQacAHkBTg7HBN3cPQXGINUAsv4TB
R5WtQNuYt7+uYbzBBrghQWjapr8oFZ7BRy+HQJu6IT9e4rbBcmoLQTsLNr2fBJHBx9fKQFxaPsC1
iq7Br2AxQQaXBr7O1K3BaLY2QWuu+UAGmVrBntqeQBfrnb6yw5XBdmUZQZccZ0CG2KHBM6A1QQjA
AEHmLoHBIbAhQfS/vkD6oknBuL+qQINpjkAx5o3B/ijEQDKSUkB49ITBdT76QKe6g0DC/6PBs23J
QCfwnEAOxp/BhtcNQVRrpkBRk5TBUtbrQO9nuUA6Lo7Bl662QMIZuD/Wx5HBMpKFQNIaEEDVHY7B
sPDVQNut9T/hiKTBFVSmQEeNHkAXK7TBm2SmQLRwhkC4IbDBPC/XQGIPW0C3e7TBwm/bQKvkn8An
LZLBiqnGQNrLgMCgQ4fBbeCoQPOvrcBhRozBidlaQAHKHMBE8JbBf1ZRQP1QfMCVCI/BXHSGQM2I
IsDUBYrB9gBaQCqiBED3w6nBhMtGQEi8sz/zpJzBkiGeQGNNiMC9kZ3BUSyLQBc3YEABLJ7B

>  <OMEGA_E>  (9) 
wEr6PgQcAT8mhFE/3spAPw==

>  <OMEGA_NBR>  (9) 
     34620

$$$$
50220589
     RDKit          3D

 68 72  0  0  1  0  0  0  0  0999 V2000
    6.6012   -0.7880  -22.2369 C   0  0  0  0  0  0  0  0  0  0  0  0
    9.9130    1.3832  -21.3200 C   0  0  0  0  0  0  0  0  0  0  0  0
    5.7675    0.3011  -21.9327 C   0  0  0  0  0  0  0  0  0  0  0  0
    9.3533    2.3998  -20.5274 C   0  0  0  0  0  0  0  0  0  0  0  0
    6.6808   -1.8810  -21.3544 C   0  0  0  0  0  0  0  0  0  0  0  0
    9.8744    0.0456  -20.8779 C   0  0  0  0  0  0  0  0  0  0  0  0
    5.1074   -0.7845  -19.8526 C   0  0  0  0  0  0  0  0  0  0  0  0
    8.7166    0.7410  -18.8501 C   0  0  0  0  0  0  0  0  0  0  0  0
    9.0816    7.6926  -14.6443 C   0  0  0  0  0  0  0  0  0  0  0  0
   10.3447    7.2471  -14.3389 C   0  0  0  0  0  0  0  0  0  0  0  0
    5.0165    0.3007  -20.7390 C   0  0  0  0  0  0  0  0  0  0  0  0
    8.7438    2.0760  -19.2995 C   0  0  0  0  0  0  0  0  0  0  0  0
    5.9283   -1.8960  -20.1620 C   0  0  0  0  0  0  0  0  0  0  0  0
    9.2761   -0.2748  -19.6421 C   0  0  0  0  0  0  0  0  0  0  0  0
    9.0495    5.7288  -15.7683 C   0  0  0  0  0  0  0  0  0  0  0  0
    6.0822    3.0865  -17.5129 C   0  0  0  0  0  0  0  0  0  0  0  0
    6.6152    4.3128  -19.6863 C   0  0  0  0  0  0  0  0  0  0  0  0
    7.5355    5.1239  -17.5788 C   0  0  0  0  0  0  0  0  0  0  0  0
    5.4870    1.9675  -18.3572 C   0  0  0  0  0  0  0  0  0  0  0  0
    5.9440    3.1925  -20.4741 C   0  0  2  0  0  0  0  0  0  0  0  0
    7.1541    3.8660  -18.3155 C   0  0  1  0  0  0  0  0  0  0  0  0
    5.3109    3.8568  -21.7186 C   0  0  0  0  0  0  0  0  0  0  0  0
    3.6703   -3.6535  -19.1138 C   0  0  0  0  0  0  0  0  0  0  0  0
    5.4238   -4.4304  -17.4917 C   0  0  0  0  0  0  0  0  0  0  0  0
    4.1496    1.4801  -20.3602 C   0  0  0  0  0  0  0  0  0  0  0  0
    4.9805   -3.2663  -18.3864 C   0  0  0  0  0  0  0  0  0  0  0  0
    8.3867    6.8182  -15.4665 N   0  0  0  0  0  0  0  0  0  0  0  0
    8.4284    3.0936  -18.4230 N   0  0  0  0  0  0  0  0  0  0  0  0
    8.5464    4.7616  -16.5990 N   0  0  0  0  0  0  0  0  0  0  0  0
    4.9223    2.5081  -19.6236 N   0  0  1  0  0  0  0  0  0  0  0  0
   10.7382    4.0314  -17.8003 O   0  0  0  0  0  0  0  0  0  0  0  0
    9.5453    2.4083  -16.1835 O   0  0  0  0  0  0  0  0  0  0  0  0
    6.0515   -3.0043  -19.3367 O   0  0  0  0  0  0  0  0  0  0  0  0
    9.2571   -1.5537  -19.2056 F   0  0  0  0  0  0  0  0  0  0  0  0
   10.6358    5.7091  -15.0642 S   0  0  0  0  0  0  0  0  0  0  0  0
    9.5214    3.4877  -17.1803 S   0  0  0  0  0  0  0  0  0  0  0  0
    7.1809   -0.7862  -23.1481 H   0  0  0  0  0  0  0  0  0  0  0  0
   10.3722    1.6267  -22.2668 H   0  0  0  0  0  0  0  0  0  0  0  0
    5.7017    1.1378  -22.6124 H   0  0  0  0  0  0  0  0  0  0  0  0
    9.3904    3.4270  -20.8589 H   0  0  0  0  0  0  0  0  0  0  0  0
    7.3237   -2.7156  -21.5923 H   0  0  0  0  0  0  0  0  0  0  0  0
   10.3042   -0.7359  -21.4870 H   0  0  0  0  0  0  0  0  0  0  0  0
    4.5476   -0.7714  -18.9291 H   0  0  0  0  0  0  0  0  0  0  0  0
    8.2664    0.4993  -17.8986 H   0  0  0  0  0  0  0  0  0  0  0  0
    8.6732    8.6247  -14.2826 H   0  0  0  0  0  0  0  0  0  0  0  0
   11.0562    7.7847  -13.7297 H   0  0  0  0  0  0  0  0  0  0  0  0
    5.2811    3.7783  -17.2135 H   0  0  0  0  0  0  0  0  0  0  0  0
    6.5472    2.6533  -16.6151 H   0  0  0  0  0  0  0  0  0  0  0  0
    7.4557    4.7005  -20.2806 H   0  0  0  0  0  0  0  0  0  0  0  0
    5.8790    5.1143  -19.5259 H   0  0  0  0  0  0  0  0  0  0  0  0
    7.9426    5.8640  -18.2834 H   0  0  0  0  0  0  0  0  0  0  0  0
    6.6546    5.5454  -17.0725 H   0  0  0  0  0  0  0  0  0  0  0  0
    6.2743    1.2372  -18.5956 H   0  0  0  0  0  0  0  0  0  0  0  0
    4.6871    1.4717  -17.7877 H   0  0  0  0  0  0  0  0  0  0  0  0
    6.7047    2.4676  -20.7996 H   0  0  0  0  0  0  0  0  0  0  0  0
    4.8092    3.0911  -22.3284 H   0  0  0  0  0  0  0  0  0  0  0  0
    4.5758    4.6097  -21.3981 H   0  0  0  0  0  0  0  0  0  0  0  0
    6.0974    4.3428  -22.3147 H   0  0  0  0  0  0  0  0  0  0  0  0
    3.3479   -2.8215  -19.7571 H   0  0  0  0  0  0  0  0  0  0  0  0
    3.8439   -4.5477  -19.7304 H   0  0  0  0  0  0  0  0  0  0  0  0
    2.8878   -3.8667  -18.3706 H   0  0  0  0  0  0  0  0  0  0  0  0
    6.3550   -4.1603  -16.9723 H   0  0  0  0  0  0  0  0  0  0  0  0
    4.6390   -4.6426  -16.7508 H   0  0  0  0  0  0  0  0  0  0  0  0
    5.5950   -5.3236  -18.1105 H   0  0  0  0  0  0  0  0  0  0  0  0
    3.7384    1.9301  -21.2758 H   0  0  0  0  0  0  0  0  0  0  0  0
    3.3253    1.1277  -19.7227 H   0  0  0  0  0  0  0  0  0  0  0  0
    4.7970   -2.3789  -17.7629 H   0  0  0  0  0  0  0  0  0  0  0  0
    4.2658    3.2138  -19.3569 H   0  0  0  0  0  0  0  0  0  0  0  0
  1  3  2  0
  1  5  1  0
  2  4  2  0
  2  6  1  0
  3 11  1  0
  4 12  1  0
  5 13  2  0
  6 14  2  0
  7 11  2  0
  7 13  1  0
  8 12  2  0
  8 14  1  0
  9 10  2  0
  9 27  1  0
 10 35  1  0
 11 25  1  0
 12 28  1  0
 13 33  1  0
 14 34  1  0
 15 27  2  0
 15 29  1  0
 15 35  1  0
 16 19  1  0
 16 21  1  0
 17 20  1  0
 17 21  1  0
 18 21  1  0
 18 29  1  0
 19 30  1  0
 20 22  1  0
 20 30  1  0
 21 28  1  6
 23 26  1  0
 24 26  1  0
 25 30  1  0
 26 33  1  0
 28 36  1  0
 29 36  1  0
 31 36  2  0
 32 36  2  0
  1 37  1  0
  2 38  1  0
  3 39  1  0
  4 40  1  0
  5 41  1  0
  6 42  1  0
  7 43  1  0
  8 44  1  0
  9 45  1  0
 10 46  1  0
 16 47  1  0
 16 48  1  0
 17 49  1  0
 17 50  1  0
 18 51  1  0
 18 52  1  0
 19 53  1  0
 19 54  1  0
 20 55  1  6
 22 56  1  0
 22 57  1  0
 22 58  1  0
 23 59  1  0
 23 60  1  0
 23 61  1  0
 24 62  1  0
 24 63  1  0
 24 64  1  0
 25 65  1  0
 25 66  1  0
 26 67  1  0
 30 68  1  1
M  CHG  1  30   1
M  END
>  <OMEGA_C>  (10) 
yTzTQJm4Sb825bHB05seQYQLsT9wj6rBU4+4QM4kmj4zdq/BEqcVQWCWGUAFOKTBYMnVQKvF8L/H
1arBv/0dQdaYOj3gBafBcW+jQCPXSL8K0p7BRncLQW+xPT/6zJbBSE4RQSMq9kAWT2rB2oMlQYfo
50AzbGXBioegQHr1mT526aXBxOYLQbHcBEBOZZrB/7S9QCGw8r+5S6HBEWsUQZ6ujL7zIp3BvcoQ
QbhSt0AdS3zBAKHCQJ+IRUBuGozBfa/TQIUCikByfZ3BGyPxQAD3o0BgoYzBp5WvQNbX+z+P25LB
RzW+QINRTED/yqPBQe7kQLlsd0AuhpLBIPOpQFXWdkCuv63BjuZqQCDSacD36JjBlY+tQALGjcAa
74vBjMmEQAp1vT+e4aLBfWCfQLkKUcBzF5PB/i8GQcEu2kDUdnfBitoGQQ/+RUBOYpPB7r0IQbFe
mEC5yoTBNIOdQDaFIEAK/ZzBnc8rQfgAgUD5Zo7BsbkYQV0iGkDHd4HBj6XBQK1FQMB+sZrB4xwU
QbPfxr8VpZnBRiwqQUKxtkDPBnHBxlcYQac2X0BbcYnBE8rlQIdHSb9bL7nBXvQlQR020D9fIrLB
j3S2QFKjkT8p5rTB5D4WQY1TW0AY36bBJ1zqQNbLLcAPvazB290kQbZiPL965avBlIWRQLR7Rb+1
bpfBTUMEQR6o/z5UMI/BPcUKQcv+CUGVhWTBUeYwQZ4c+UAJrVvBdv6oQPvOcUAmtYnBr4LRQPPP
KUCo64TBwJTuQHtqlkC4PqLB1SC8QB2oo0AENZzBkyn+QDqmu0B4RJLBmvLUQPtzsUCIlIjBqMbI
QHFbnj/Vw5TBB/2VQE5gvD81TY7Bo4zWQF7tHUCqZabBLOWZQMXTRUCUoLLB+2ySQAmDk0BSL6vB
8B3DQOv3ikB6hLLBhUNWQPKTNMCaDp7B8QF2QLqGkcDH153BONI4QMF3d8AK95LBOVzLQI8hhcAw
x4fBmXKUQGSQlMCKAYbBdgqzQD1bqsBH4pDBakFvQOYN9z/cNKrBddJUQFZXkD8VyJ3BqoCZQFg/
GMByGo7BcYGIQN+uTUAA25rBe/3PQAwKZb/eLLLBiT0XQfY2Bb7/V6HBvTW2QMgcaD7MCLDBZX0M
QfIzKT+VvpnB3UXTQK0g978klqrBnEkiQbAm+D5r3KnBUOuiQFl1Ob9Yv57BcdgXQdpTK0DDM6PB
NJIoQRfhyEDk0WHBZv4bQc2U7EDDW2TBA5OfQPbfnT6aS6bBvIgMQZklBEBzyprBwYG8QOL57b9F
3KDBbK0iQeXv8T8zu6rB9oYRQU1cr0DSpnrBtjm/QEI7SkAxWIzBLZfWQMf0h0CPoZ3BjhH1QH/U
oECUtozBQyasQHHAAUCGApPByB7AQA39SUAxEKTBfkTlQKusckDeapLBlzmuQJSIdUAXOa7Bce92
QJssgMCJyZnBsFSsQD//g8Ay0onBypCEQLIOwj8pmKPBz6mcQPZhT8D+BZPBgDEiQbD4pkCXq27B
sToFQYDjNUDmbZLB1p8IQV1fkkD6P4TBITidQKlkIkANk53BKDQrQZfUZkCwsozBLpkUQdpeCUD9
8X/BiJjBQMK2OMBeipnBbfstQZ9nH0Bcl7LBi1cIQWpg40AaMnfBBYQWQUYJTEAuM4jBHkXhQM0a
dr+Do7nBCQgXQdxwmr9/p6DBv8CzQFj+gj/G1bXBEDwEQdA9Rz5sIpPBqFrnQMtEMsC6OazBJHYq
QU+j+b3iua/BWc6RQG7aJr97Q5fBii0YQbw8cEDW2qPBJgA2Qf9bx0Do+FbBpxweQYohBUFuw1vB
RqGmQGBEe0Cm6IrBJHfKQJqoMEBmpITBTOXyQFmQkkDuI6LBjlXAQDX0okA2q5zBO1MDQeCJtUA2
T5LB6uzZQIWjskDBT4nBf6zEQFCgoD9OTJTBPt2QQKSgyz8Ur47ByofXQIvbGEAAZ6bB7Z6dQLu4
RUD6K7PBWpiXQNEWlECW6KvBKLnIQG7ciEAe0rLB3LlgQFdSV8CrYKDBiECKQGJDncB2Fp3BEDFA
QCQVicDnuJTBc/7DQCWpZMApCIXBswuRQJrpjMBLuoTBtDO7QNcXocDbF43B1ZdxQOOM+z+vEavB
a3FSQAapmD+jsZ7BpKyNQFVqFcAAuY/BZ52IQK2eUUDt9JvBNYvQQA1AYr9IH7LBc0UiQVQR9D/b
DKvBMcG2QAq5cj6u/K/BTpsXQVcmLEDGZ6PB5XTTQOd49r9NlKrBV2IiQWgdAT+HEKrBdN2iQEo5
Ob9Xxp7BCBANQcAhKz9fx5nBjBUpQfAOyUDtemLBuckcQS0L7UAfYGXBP8GfQHofoD6KTKbBr6sM
Qb2IBED73prBdYm8QNOt7b9K4KDBI+cXQeAh6r0VZaHBoW4RQZ7YrkCUjXrBDi6/QG3dSUBKVIzB
mXLWQIMRiEDfk53BJg31QAN7oECWpIzBLwqsQCqtAUDQBJPBbSTAQCBCSkA6C6TBSjflQKpjckDt
ZZLBUW+uQFzNdUB9Oa7Bpjh2QIJ7fsAom5nBTeqsQHUVhMAs14nB86SEQIRrwj+an6PBPAadQC+r
TsBK7pLBAzsiQR+gpkApum7BjTkFQYShNUCEdZLBklgIQXSvkUAKGoTBwC6dQP2KIkB7lJ3Btgwr
QczRZkD1mIzB/IgUQQa7B0D6BIDBwrDBQJCZOMB+kJnB6akYQaKLur96RKDBSagIQbtL40AYn3fB
R2MWQTguS0DsJojBIh3iQFAUcr+9i7nBimAqQQ1JGECBrbHBV5C0QAjnhD8RwbXBJMcXQT4RcUB/
D6TBRmLnQJ0hMsB7PKzBVIUqQTc/yr0f96/BBISRQGmaJ7+aUpfBxxAFQYkdST6YHZPBBKc2QR+0
x0AWzVfBdF0fQVmbBUG8WV3BUJ+mQOvqekDM3IrBJXLKQFIJMECFpITBKK7yQPHtkkDdE6LBgQ/A
QA/uokBXkZzB4IoDQSURtUBTLZLBnufZQCKCskDiUInB44DEQCdDoD+oUJTByrOQQDKdyz/htI7B
WZ/XQKEvGUC0W6bBAPSdQK35RUBVMrPBTryXQDMzlEDM76vBmgPJQI4GiUCGybLBE69fQFLVVMAZ
HqDBelaJQHxpnMBHA53BaOg/QJ/2h8AGc5TB4RXFQJatZcAnHYXB7NeRQIXQjMAlqITBMTq7QGJD
ocBmOI3BbfJxQDrp+z+aG6vBbXlSQLvfmD8AwJ7BTZmOQFiFFMBDho/B0YuIQOK1UUAA9pvBMa7S
QDrnSL9x/rHBjDIUQaJgl76kEJ3Bk9+3QApZmj57ka/B1lALQf31OD/4tJbB25vVQAWr77/p4qrB
u+cdQaxB3Tzd6KbB/FOjQKXuRr9X2p7B658VQYR3GEDPFqTB7woSQQ4M+EAx4WvBrg8mQYBl6UCN
hmbBDhmgQAtJmz5i+6XB9M8LQcDNA0AuTJrBXLq9QGFS8b/pUKHBj6weQVQKrz+qZKrBqyERQUwA
uEBwxnzBX5rCQE76Q0AkFIzBx43TQFzEiUDIaJ3Buq3wQEyAo0DIgIzByJyvQNrA+T8d65LBlQu+
QJJCTECWxqPB6crkQI5/dkCQcpLBfripQMdTd0BzsK3BLS9rQIoqaMBeypjBM/CtQFybjcCF+YvB
UH6EQCztvT+y7KLBRMefQH8TUMACCZPBrsUGQVl+20AolnjBe9MGQZhTRUAyVJPBYOYIQa98mECk
0YTB+GWdQDM8IECb/ZzB4ckrQUmPgUCCpo7B1E4ZQa4LG0CXhoHBJO/BQItBP8DPq5rB0JAoQZby
1z+rqLPBK2oqQXVMt0DoSnHBj4kYQf/KX0AliYnB8wrlQFsCSb9AULnBUJUTQUBQqb9waZrB5nq1
QPgmkT8NCrXByiAEQYmT9j4BF4/BqVHqQCgPLcArx6zBi8QkQb72QL9ey6vB5I6RQPksQ7+EcZfB
KDIWQUguWkCrwKbBgcALQX9GC0GsvWbB73sxQXfO+kCQ6lzBPe+oQAvxb0DunYnBlY7RQFm7J0D6
74TBp3nuQMY/lkCGJKLBpwW8QEZpo0AcGJzBftD8QDmgu0DEJZLBhIDUQKdFsED/TYjBfdvIQP7p
nD8/55TB6BqWQKEuuT9VZI7ByVrWQMr4HUA9babBYaaZQBCURkDrmrLBYTOSQLqsk0BLE6vBINvC
QGhbi0BocLLBo3ZWQGGOMsBO353BErR1QLaXkMAZyJ3Bwm05QLHldcBfzpLBc+nLQL5HhcBj24fB
z/SUQLZslMCcA4bB9hezQJMRqsBW/ZDBCd5uQJlL+D+vPKrBixVUQLX1kD8T2J3B7jGaQGaIF8Bb
+43BoX2IQJdeTUDXyZrBCWjAQNBfjL/ZO7PBVqQmQaEcQEBi4qvB23eoQMfAfT2d77DBge8ZQckW
WEACG6PBag7KQPnoAMBsB6vBdN8sQcaE1D+cKK3B46SiQEUQI78nTJ7BsdcYQdjPhz/yEJ3Bjcku
QeEEykANqWfBAIgeQZRG1kDlLlrBbvWZQGOZmz7raqbBNvoRQYPAGUBX65vB7em6QI2S5b9OjaDB
BWwmQYXmMT9VnKXBCkMTQd1GpkCRsnfBpJ2/QNk9TkBRm4zBy3XWQESCiECSyJ3Bgwj7QP6PnkDl
bozBrd2pQJQfB0AnJJPBmjTBQLBnSEDnVKTBUX3nQKk5ckBGnZLBqrayQMJFbkD+Na/BZZKBQNKH
gMC8bJrBScOwQPRAhsDpFIrBSKGBQHIIyj85yKPBXeafQJK5T8CAz5LBreQnQeWerkCE7nfB2q0F
Qa+hMEAc8JLBJq4IQRbJi0ACGIPBylucQEbFJUC4853BqyEqQYvjOkDIcYjB6e4JQamd5T/v1n7B
QmLEQLvNLcAcq5jBwHQtQfBfFL8uiabBK4QGQWL6v0BCfWLBv/ISQR3WM0C0nobB6l7LQJIOpL/q
SrvBx50rQXGbb0DOpbHBxjShQJgfRD/+OrfBPjQWQZ5mjUBZ1KHBrRndQGHiOMDcxKzBk5c2QY1k
rz9D6rPBCaaWQN9f8b62TZbByawTQUn1oD4qYpfBgik/QWJ11EDZ3WXBKm8gQVHQ6kCZakzBfpyo
QGk7gUBzSIvBTtLJQGkBNEB12YTBP4XxQI9TlUD7aKLBfrW+QJX1oUDQepzB+vAIQcL4r0DjhJHB
e7/hQGaStEC8v4nBcn3AQBqKoz9uIJTB4HGNQE5t4T8axY7BdMvYQF5uFUCQxKXB+nejQO3hO0Ag
CLTBQK+bQJYokUCGzq3Bd7XOQPzAg0BGg7PB/jVrQClmVcBcpaDBGSKTQOEIm8B5M57BGd1MQJZk
jcDR1ZXBK0jGQIo0acC0sYTB2qyVQGUfk8BYeYXBZ2DCQLDDoMAA143BIZ5sQBnIAUCATKvBFwBM
QDy4qD86vp7Bw/qNQMFXG8DTAI/BOgmJQJmtV0BcoZzBknPAQBRnjL9/OrPBra4mQXQjQEA/2qvB
r4aoQNz7fT1S7rDBQ/IZQVUMWECyFKPBfxfKQGbsAMD1BavBiuosQbiW1D/qIa3BkrmiQBzSIr8y
Sp7Bl9MYQUSihz8kEJ3BbucXQXsi0kCS6lrB06csQbgk0kDtMWLBpAiaQBHpmz5kaabBMvQRQRym
GUAm6ZvBBfe6QGGJ5b+mi6DBF3EmQebXMT+GmKXBOYkTQUYmpkBmvXfBi5a/QCeNTkDYmozBXITW
QDyKiEBrx53BUz77QCGMnkD7bYzBZ9mpQGdXB0BGIZPBLEDBQIN0SEBfU6TB6YbnQAVIckB2m5LB
/8iyQHRJbkCLNa/BJJyBQEmGgMCta5rBkMOwQG02hsAxEorBCbCBQJcUyj+rx6PBJu6fQC2vT8Bm
zpLBbCYKQdyGuUB5m2fB9p4FQedrMEAL75LBycwIQYe7i0D+FoPBn2KcQJrcJUBZ853BFQoqQe/y
OEBAc4jB46oJQU4k5T/Izn7BaGzEQJ7MLcCnqZjBlnwtQbZdFL/PhKbBfNAuQQRzskD3xnjBctgS
QQc1M0ANm4bBn2nLQDEcpL+PSbvBO60rQe2tb0APm7HBqEKhQJUXRD/1ObfByDcWQZxgjUAxzKHB
7B3dQFHsOMBtw6zBmac2QQmOrz9L4rPBNMKWQFqI8L5KS5bBzqITQSPUnz51ZJfBa70SQatY40CD
2UzB5LU5QVBs40AZ4VrBf5uoQFNugUBUT4vBQrfJQGZ0NEB61YTBiZbxQAlXlUCcZ6LBv8a+QLwA
okB8epzBBg4JQcDhr0DbhpHBYgriQICitECtvInBTHjAQCPtoz9vGZTB1miNQAQC4j+uwo7BMtXY
QF91FUCuwaXB94ijQNbjO0AeB7TBZsSbQEAukUCez63BJcvOQKW8g0CZgrPBIlNrQDtqVcCqpaDB
ESyTQDILm8CpMJ7B6+lMQPldjcAb1ZXB0kbGQIwbacD7roTBo6mVQMMPk8AFd4XBvmDCQPy8oMCT
0o3Bv7psQFPFAUBuTKvBzR1MQJm6qD/kvZ7BcAGOQCJHG8BkAY/BvAyJQIjFV0BnpJzBjmOuQAvQ
oL9pXbPBPkcjQWSk2jzFsZ/BCt+XQPv+3r1oF7DBsrQWQWtPNj9EFZjBV4vAQPMcB8CTqavBwVMq
Qf9AMT+K+ajB1USmQMUoJ7+3Z53BousZQUztL0CGiaLBvrgfQYnI3UCFwGLB9wQvQVs+6kATSHHB
vKGUQCIwXz5+HqXBzRwRQXQhBEBTr5nBFP67QNTw6L8crqDBM6glQTi/A0BpXKrBeDoVQYN3tEBJ
737B/Dq/QAz6YUCvSI3BVC/aQGo5gUDRjZ/BewUAQb8eokBppo/BqhmnQEl0FEDdCZLBRNLBQMOL
NUDZXaTB0hjpQCZKdECMuZPBYoa1QIcFT0Ar9q/BfZv4QBWDBcBO5onBxSYKQXuOZ8A9fZjBftx7
QO6hvz+OwaHBirn3QOXsGcBu9pXBDZwRQSUdv0AP7WrBrOkEQQhZLkB02pHBrQcJQTLGlkBwGIXB
q2ObQH6FI0ApeJ3B3qgoQSn7P0Am44bBc3IGQc0QE0CY/HnBljrMQBv/K8BvKJnBH8QsQWAsLkBD
GLPBuEYrQQbHz0B3roTByEkRQbH+QkD4h4XBjbuxQHmGvb9oxrvBpn0nQZMLgb+MZp7BJPaIQFHH
Bj8wALbBc1MRQVBVSj6c+pDBn/bRQHxfP8CJKK7BTEYzQQYaIT4vAK/BHyKjQMIg2r6W/pTBgpkX
QfkmdEBmS6PBNbQeQVZe6kDSsFLBM407QQaZAEHQJG7BvWmqQHBXjUDznY3BFo7HQEQ3VECK6ITB
eaP2QMBbh0ChgKTBMQLFQCBUnUA4xZ/BeeUMQa9Kq0DMMZXBwEjpQGvHvEAg2I7BAbq7QBIZtz8x
iZHBH7mJQKuFCUAkY43BM/nWQOSX+j/NkKTB0P+jQF0TGkAJw7PBCCGhQLkwhEB+x6/BHrvSQHSy
XEAMkbTByALkQC/am7+wRYjBn9fsQBUiPcCjYIXBnc0MQVrZ7b9HcIfBIpsJQfP+dMCBH6HBObka
QZV7WcDDGpbBa1cEQX7Yj8AfC5TBlkRaQIP48z+Bw6jBWQVNQG+Jnz8VgJvBiPQBQU46xL+RYJrB
o0qKQJieWUBMgJ3BO7ytQFX2ob++WrPBp14jQX8ZkTwhdp/Bb4eXQAGg4L1SJLDB0ecWQdYmNj9a
3pfBjse/QN99B8BnnavBgkgqQRotLD810KjBVdqlQGtfJL8rcZ3BN6YZQT3OLkBkkaLBxhAuQaZ+
z0BSDGfBxjslQZqX9UBXkW3B2EyUQEOLZT6qMKXBpfYQQR+hA0AHpZnB28e7QC8D6L9vpqDBt4cl
QaNKAkD3TarBvpEVQVI3tUBqv37BuM6+QADDYEADOY3B9dXZQGJagUCgcp/Bykb+QEmxokBsbo/B
Md+mQKiaE0CPFJLBT9vBQBOqNUBEVqTBOZzoQFhAdEDJmpPBQu61QLvrTkDb9q/BDv3ZQIhGDcA5
SobBO+0KQU2pNsBV55LBznl7QPrhwD8R4KHBggbrQKiWBsCuz5HBK8QkQTn7q0Cn73DBLvMEQcuj
LkAd0JHBjKYKQeP8lkC5goXBEkqbQD+PI0DOf53BNsgoQb2sOkDb44bB3gQGQdEDFkDZ1HnBxq7M
QE7pK8DcN5nBtcMsQSVRLEBzCrPBmkkRQUte7EAvIIDBQHgRQdI6QkAAkoXBTO6wQL/Rv7+swLvB
2psnQR75gb8/Gp7BdNuIQHu9Bj94FbbB8NwRQTrfVz7uo5DBHLzQQGBmQMCgFK7B5jEzQUl4Bj4z
0a7BDIuiQCGB0r7lCpXBth8XQYrRckAqc6PBBdw6QUE+zUDRfFvBZggqQRpjCkFA3mfBINipQOCj
jEDeeI3BLiTHQHlBUkAN3oTBS1P2QPTPh0B5W6TBwHLEQIBMnUAepp/BrH0KQaj0rkCVapXBLBXm
QKhOu0Dgs43BYJC7QJqHtT8SopHB33OJQFEnCEAfd43BgR7XQBwk+z9TeqTBmrGkQMDBGUCjzLPB
nF+hQIEHhEBZ1q/BukXTQBjhXEBpgLTBCXK7QJpK1b/fqIXB0v3UQJj9UMB9O4TBlVvxQLv34b92
vYDBeMQQQe40McBILZvBTb4WQVqNGsDUaI3Ba48IQRSPesDb5pDB665aQMjo9T/866jBhPtLQOBW
oT+Rr5vB4jPwQBBthb9YwZPBKVOKQF7TWUAKfJ3BPJStQC/Gob9sWbPB5GYjQc+uYzxhdZ/By12X
QKpR4L3CG7DBLPkWQRqxND+n1pfBsra/QDN2B8CPoavBxkgqQffGKz+dzqjBxPSlQH6zJL+WbJ3B
VL8ZQSymLkARfqLBil0kQYbG9EBLcnXBdmUrQcD23EAPWWTBmESUQPduZD5kJqXBrAwRQddNA0AP
lZnBWdO7QGsv6L8nqaDByI8lQZE/AkA9Q6rBQXoVQQ+jtECwmn7BFPO+QJrzYUAlRY3BthHaQDcY
gUAJhJ/BM2L/QIJnokBYoY/Bb8+mQOCCFEDICZLBsM/BQE1QNUD1V6TBROToQAspdEBTrJPBR8m1
QAGdTkDD9q/BlxjaQLDUDcBtUYbBBfcKQW0VN8BF8pLBfmJ7QDSVwD+/zKHBBh/rQHT6BsCv1pHB
bu8XQcAi3UAO5oHBh90EQYv+LUCpyJHB4VgKQVrWlkBEeIXB/EGbQGSrI0Bqe53Bg4EoQRG1OkC0
q4bBHpsFQfShFUD8rnnBn8TMQKYlLMC2QJnBLr4sQRppLEALALPBzHIiQdqxqEClk2bBMykRQQrm
QUCcdIXBarWwQIJkv7+YwLvBb6MnQc6Ggr9eH57BPJaIQPXKBj+ICLbBn/IRQVfmTz7ZnZDBZqfQ
QMVUQMD+Ha7B1yUzQQzfBT6Y1a7BfsyiQAVR0749BZXBpEcXQQ+6ckAeVqPBXg8oQTUiC0HEknfB
xhg1QZcW6UBkZVfBeS2qQPBbjUCcno3BeynHQAQsVEBb44TBjpD2QMhAh0CCcqTBIN3EQMwsnUBz
v5/Bo5wLQbE8rUDUgpXBh93nQPwBvEB+QI7BlmC7QNUOtz8qhZHBxF2JQOSvCUDVaI3B6evWQOb7
+T+bfqTBL1WkQLefGUCExrPBIGehQL7/g0Bd06/B3RnTQP4tXEDUh7TBjJC7QIdY1r9ArYXBhBTV
QKiSUcD/RoTBDnvxQERR479Ew4DBNs0QQVaCMcAVOJvBD8oWQfcXG8Bkco3BypYIQf0Be8Af9pDB
1xlaQP5Q9T+j0ajBWk1MQMHToD/SkJvBFFHwQN4nhr8PxJPBFkyKQIXwWUCxhp3BcfeqQEFGj7+C
s7TBTjMsQbDV6z+TtKXB9DWVQC8MJD0gYLHB038fQaPgIEBcHZ7B9RC7QMI1AcB8Cq3BbqIoQcom
9D5S0KfBN8mfQPFPF782t57BBZULQTan6D67uJrBCK0oQbeUwEBIp17BTTwoQVMz5kCWCWrBs4WQ
QFZOqD4kX6bBZuwOQQX46T+tsZjBqL20QJPf4r8gDaLBRGUYQXh0YL6xTKLB0LkUQXX/qUAKF3vB
Foq8QCsIXkASXI3BykvfQDSaeUBfJZ/BAF0AQU9km0AdfI7BhwSjQOTdFEBKlJLB3OPCQGc7NEBm
cqTBvo3oQAG6aUCCB5PBeJu5QMByU0B0/6/BHzOiQG2CmMD7MJXBDkSvQGdgOcD/64fBdjl3QNEp
0T+P56LB1o6jQPhVT8AEk5PB/rIdQdVMn0Cz0WjBVssCQU1yHkCc0ZDBmHgJQeDhjUDgJITBcG6a
QJR+J0AkFJ7BnP0lQcArIkBNI4XBrwACQQI3BECT6HfBr7bDQCQLLMDJtZrBIDQVQbGBxL9rQKTB
s4kZQfOs30CXpYDBzLgOQSupLkCmSoTBiU2vQBbFqL+eH73B36s4Qd7wF0AF6anBEwOIQHCsNj/I
RLfBomoiQTykY0BTa5zBmkvMQJuROcCCla/BglcyQVZ0Gr09qK3BKXWbQH3zyL7NSpbBwm3+QEzN
pb2deJbBoKswQSIVvUAlb0/BjfAvQSXJAUFsLmXBuyGqQHDojEBRAY7Bqe7BQNHnTkAg34TBQA3+
QOGxe0AQa6PBTgnPQGTbm0DB8Z/BAzwNQZwBpUAG/JPB4KXqQNNktkDETI3BTom1QKhlsj8w95HB
SmCEQN1LDUBRWo7B6tTUQEl47z+I0KTBe22lQBw1JEClIrTBM9yoQEOpiEDVsa/BA/XXQBr5WkDr
WrTBRs2ZQCC1n8Cti53BzcfBQBEzpsB3WZPBogyKQGqDpsDL1I/BaROwQJ/l5r/N7IbBOi2XQPbS
VMDnf4LBZejOQEMyVMCUBIbBBG1ZQGFcBkB89KnB1pxFQOW8sz8h8JzBaeeDQE5ZNMCcbZXBHWaL
QOf7X0CINJ7B

>  <OMEGA_E>  (10) 
WC29PrhG3z5gqOM+xHSyPtI+LT9Exy0/BGtYP5z+WD+0bFk/YMxDPw==

>  <OMEGA_NBR>  (10) 
     45655

$$$$
50220590
     RDKit          3D

 59 63  0  0  1  0  0  0  0  0999 V2000
    9.5440    1.2753  -21.3982 C   0  0  0  0  0  0  0  0  0  0  0  0
    4.9007   -0.0598  -22.0460 C   0  0  0  0  0  0  0  0  0  0  0  0
    5.6927   -1.0965  -22.5746 C   0  0  0  0  0  0  0  0  0  0  0  0
    9.0351    2.2836  -20.5648 C   0  0  0  0  0  0  0  0  0  0  0  0
   10.0527    0.0931  -20.8390 C   0  0  0  0  0  0  0  0  0  0  0  0
    7.1962   -2.7388  -19.6930 C   0  0  0  0  0  0  0  0  0  0  0  0
    5.5869   -0.6670  -19.7768 C   0  0  0  0  0  0  0  0  0  0  0  0
    9.4852    0.9122  -18.6070 C   0  0  0  0  0  0  0  0  0  0  0  0
    7.7204   -3.5047  -20.7087 C   0  0  0  0  0  0  0  0  0  0  0  0
    6.3609   -1.7130  -20.3131 C   0  0  0  0  0  0  0  0  0  0  0  0
    4.8679    0.1816  -20.6507 C   0  0  0  0  0  0  0  0  0  0  0  0
    6.4216   -1.9183  -21.6981 C   0  0  0  0  0  0  0  0  0  0  0  0
    8.9389    2.0970  -19.1634 C   0  0  0  0  0  0  0  0  0  0  0  0
   10.0502   -0.0779  -19.4422 C   0  0  0  0  0  0  0  0  0  0  0  0
    6.0596    3.4045  -17.5535 C   0  0  0  0  0  0  0  0  0  0  0  0
    6.6617    4.1946  -19.8685 C   0  0  0  0  0  0  0  0  0  0  0  0
    7.6461    5.3567  -17.8873 C   0  0  0  0  0  0  0  0  0  0  0  0
    5.4226    2.1625  -18.2033 C   0  0  0  0  0  0  0  0  0  0  0  0
    5.9817    2.9440  -20.4909 C   0  0  2  0  0  0  0  0  0  0  0  0
    7.2130    3.9834  -18.4265 C   0  0  1  0  0  0  0  0  0  0  0  0
    5.4565    3.3663  -21.8860 C   0  0  0  0  0  0  0  0  0  0  0  0
    9.0917    6.2564  -16.0499 C   0  0  0  0  0  0  0  0  0  0  0  0
    4.0574    1.3520  -20.1114 C   0  0  0  0  0  0  0  0  0  0  0  0
    7.2534   -3.0045  -21.9231 N   0  0  0  0  0  0  0  0  0  0  0  0
    8.4760    3.1228  -18.3095 N   0  0  0  0  0  0  0  0  0  0  0  0
    8.4872    5.0816  -16.7249 N   0  0  0  0  0  0  0  0  0  0  0  0
    4.8982    2.4694  -19.5654 N   0  0  1  0  0  0  0  0  0  0  0  0
    9.5074    2.8432  -15.8899 O   0  0  0  0  0  0  0  0  0  0  0  0
   10.7616    4.2267  -17.6690 O   0  0  0  0  0  0  0  0  0  0  0  0
   10.6025   -1.1902  -18.9057 F   0  0  0  0  0  0  0  0  0  0  0  0
    9.5186    3.7485  -17.0476 S   0  0  0  0  0  0  0  0  0  0  0  0
    9.5442    1.4094  -22.4699 H   0  0  0  0  0  0  0  0  0  0  0  0
    4.3130    0.5567  -22.7100 H   0  0  0  0  0  0  0  0  0  0  0  0
    5.7397   -1.2585  -23.6414 H   0  0  0  0  0  0  0  0  0  0  0  0
    8.7111    3.2179  -20.9991 H   0  0  0  0  0  0  0  0  0  0  0  0
   10.4450   -0.6835  -21.4789 H   0  0  0  0  0  0  0  0  0  0  0  0
    7.3697   -2.8711  -18.6353 H   0  0  0  0  0  0  0  0  0  0  0  0
    5.5424   -0.5139  -18.7086 H   0  0  0  0  0  0  0  0  0  0  0  0
    9.4692    0.7655  -17.5371 H   0  0  0  0  0  0  0  0  0  0  0  0
    8.3814   -4.3499  -20.5859 H   0  0  0  0  0  0  0  0  0  0  0  0
    5.2865    4.1766  -17.4266 H   0  0  0  0  0  0  0  0  0  0  0  0
    6.4633    3.1246  -16.5693 H   0  0  0  0  0  0  0  0  0  0  0  0
    7.5006    4.4874  -20.5170 H   0  0  0  0  0  0  0  0  0  0  0  0
    5.9214    5.0076  -19.8370 H   0  0  0  0  0  0  0  0  0  0  0  0
    8.2163    5.9056  -18.6512 H   0  0  0  0  0  0  0  0  0  0  0  0
    6.7661    5.9470  -17.5920 H   0  0  0  0  0  0  0  0  0  0  0  0
    6.1820    1.3706  -18.2822 H   0  0  0  0  0  0  0  0  0  0  0  0
    4.5931    1.8133  -17.5707 H   0  0  0  0  0  0  0  0  0  0  0  0
    6.7349    2.1522  -20.6157 H   0  0  0  0  0  0  0  0  0  0  0  0
    4.9643    2.5088  -22.3680 H   0  0  0  0  0  0  0  0  0  0  0  0
    4.7336    4.1876  -21.7724 H   0  0  0  0  0  0  0  0  0  0  0  0
    6.2989    3.7027  -22.5083 H   0  0  0  0  0  0  0  0  0  0  0  0
   10.1578    6.0627  -15.8604 H   0  0  0  0  0  0  0  0  0  0  0  0
    8.9890    7.1422  -16.6940 H   0  0  0  0  0  0  0  0  0  0  0  0
    8.5763    6.4358  -15.0948 H   0  0  0  0  0  0  0  0  0  0  0  0
    3.4382    1.7509  -20.9284 H   0  0  0  0  0  0  0  0  0  0  0  0
    3.4069    0.9815  -19.3055 H   0  0  0  0  0  0  0  0  0  0  0  0
    7.4841   -3.3742  -22.8231 H   0  0  0  0  0  0  0  0  0  0  0  0
    4.2783    3.2458  -19.4517 H   0  0  0  0  0  0  0  0  0  0  0  0
  1  4  2  0
  1  5  1  0
  2  3  2  0
  2 11  1  0
  3 12  1  0
  4 13  1  0
  5 14  2  0
  6  9  2  0
  6 10  1  0
  7 10  1  0
  7 11  2  0
  8 13  2  0
  8 14  1  0
  9 24  1  0
 10 12  2  0
 11 23  1  0
 12 24  1  0
 13 25  1  0
 14 30  1  0
 15 18  1  0
 15 20  1  0
 16 19  1  0
 16 20  1  0
 17 20  1  0
 17 26  1  0
 18 27  1  0
 19 21  1  0
 19 27  1  0
 20 25  1  6
 22 26  1  0
 23 27  1  0
 25 31  1  0
 26 31  1  0
 28 31  2  0
 29 31  2  0
  1 32  1  0
  2 33  1  0
  3 34  1  0
  4 35  1  0
  5 36  1  0
  6 37  1  0
  7 38  1  0
  8 39  1  0
  9 40  1  0
 15 41  1  0
 15 42  1  0
 16 43  1  0
 16 44  1  0
 17 45  1  0
 17 46  1  0
 18 47  1  0
 18 48  1  0
 19 49  1  6
 21 50  1  0
 21 51  1  0
 21 52  1  0
 22 53  1  0
 22 54  1  0
 22 55  1  0
 23 56  1  0
 23 57  1  0
 24 58  1  0
 27 59  1  1
M  CHG  1  27   1
M  END
>  <OMEGA_C>  (11) 
Z7QYQRM9oz+PL6vBe9KcQFYRdb1DXrDB7Sq2QEpbjL/amLTBqY8QQdQmEkCqhKTBu9cgQcGcvj0+
tqbBO0fmQBBIL8BEi53BxseyQBnDKr/ONp7BRcMXQVKDaT8Z25TBpA33QDZNYMBWq6XBGYzLQANE
278jgaLBosWbQET/OT6XNKXB7X3NQDiL9b+sla3BzQUPQTI1BkCSTpnBrM0gQVWOn72yiZvBUujB
QBHjWUCjbYzBmSzVQCM6hkCe8p7BzKz0QEhqq0AYGY/B5oWtQBdmCkBSoJHBCWq/QCBrPEBH7aPB
JNHmQPPvfkBvaZPBxJuuQE9xV0CUFq/BmXcRQYg0yEBEZoDBmNaBQKQNrT805KDB8BvoQD9JQMBx
Yq/BoJ0HQSPcR0DneZLBhMsHQd6cokCEzIXBEb6cQKEKHkDzhZzBIx4YQdr2NUAePX7Bqi8sQe1A
h0AQWo3B8aMpQZtYmL/XPpfBB0wYQS3nb0B5YYjB+bQYQTVntD9IwrPBOASKQN6EDj8mrrXBy6u3
QFkWob+QIb3B1mALQUzxTUBB/qfBjh4nQXX6Lr+w1KvB+9TrQJq/N8ANFZXB/FqxQOKLA786q5XB
wYEXQdj5Qz/8S4zBVhoGQZYyi8Dgr6TB+iqpQM6mhUCpaYvBotPOQKX4R0AAjoTBkwTwQJ+Yj0DM
IqTBWXy9QHw+oEA3sp7B/nUDQYT6vECnNZXB1IPYQPRNvkB9vIzBA9PFQAhwrz/sQZLBAPuSQHAb
6D/jkIzBeITXQAu9CUDw7KTBOtueQJmPIEC98bLBwXmXQJUAhkDdLa7BO5DJQIb5bEAREbTBR4Yi
QT0BwkA5xH3B79IPQdiM5EBajYXBkDgJQQryzUB9hHHBfQtcQCUe4D9JbafBagpaQGhCez+vcZrB
+33vQPvyV8C3lbbBrOeIQMq6T0ADnZvBvPgfQaosyb2BeJvB7B6dQFrtgb2jZbDBQHW2QLvrjL/m
nbTBMmsXQWGVZz/bxJTB9AEgQXKLmT2sqKbBKGvmQHaXL8AKjJ3Bav+yQOaLK79sPJ7Bv5UQQTJ0
EkCTY6TB6DP3QG2rYMBtqqXBDL/LQDTK279phKLBCgmcQOX8Nj47PKXBwLrNQIol9r+kmK3BEAwP
QcRbBkCNNJnBIyIYQfGLoj93GavByvTBQObcWUCvbYzBvErVQEk6hkAD8J7BHrX0QBp4q0BwE4/B
gqitQK5MCkCDpJHBCKW/QANUPEBY76PBdujmQOMEf0ACY5PBJvCuQPs8V0A7HK/BgYQRQeFZyEAk
Z4DBhhSCQO2wrD8M7qDBUlLoQEakQMDhYq/BCK0HQcEQSEDNaZLButcHQcS5okDFx4XBMvCcQJrk
HUB/jJzBUTMYQQs9NkAiLX7BpjssQXJZh0DDV43BIAcYQYmauj8I0bXBmVsYQT0qcEC0WYjBOIAm
QWwCgL/xA5jBHFmKQA2gDT8qt7XBj/63QBCyob9oJr3BH0EXQaqrQj/rNIzBBQ4mQezTNL/yzKvB
DO7rQPMMOMBZFZXBfo2xQJApBL8YsZXBjtsLQZ4BT0Dt0afB5SgGQaZni8DsrKTBTi2pQNSbhUAw
bYvBL8/OQH/2R0AtjITBVCTwQIarj0CKHaTBFIq9QOEvoEANsZ7B63IDQVYQvUBBMZXB44XYQOtO
vkAVtYzBeQDGQN1irz+PQ5LBPxiTQL275z9kmIzBF83XQIK5CUDk6aTBXkefQOFHIEAf+bLBXb+X
QDPchUCnOK7Bvu3JQCPYbEBXErTBW5QiQWAswkCcyX3BgdsPQVap5EDskIXBmUkJQXQizkAOhXHB
uJtcQHq/3z8eeafBInJaQER9ej+7fZrBYrrvQLtUWMBslbbBrROJQHiNT0CypZvBrhEYQf7EmL1B
TqDB+RWqQFcT1b0re6/BYETCQF0Bor+zjrHBvBAPQbLHRD+Wc5jB0NwgQZbZ9D7GtanBmeHOQJ2s
OsCrwZfBGFumQIknM79sgpzBzEwYQRXmLUCdRKPBhBjlQPKecsCNL57B0u2+QCVK7L+yoZ7BQlyc
QCI7Qj5m8qTBubTMQKIzCMBuDanBHsgOQanHCkBXAJrB4PEgQcEg8D8XMKvBlEHAQLv9U0BgkYzB
SQnYQDR9h0DNep7Bosj0QM5yp0D+a43BPaGsQNwjCEA0mZLBSSLCQOigQkBtQqTBYrrmQLDuekD3
x5LB1oGyQJgJY0CoUK/B2mIQQbY6vUARHXvBhmmDQM5nuz9gs6LB3bLjQKYSVMDeqajBWNUGQWp5
QEDa95HBXiAHQVdomkDyKITBH/ydQB3fIUC5eZ3BsnkYQWBfIkBIjn7BgGgrQQhug0CfpIzBrnAp
QY+MGkAqKrTBJu0XQZwYY0AAzYfBAToYQUt2kr9NHZ/BFf+hQNmUED/k9LXBW63MQN/lvr+HmLnB
x2EIQcDzrz7vPpHB34YnQQKvLL4Nxq/BjCDKQEBZQMBlOo/BCS2bQFWb/746fpTBZ/EYQUJ/ckAO
R6TBMO30QFcwlsDdkJvBu6enQMLOgkBlgIvBZWXLQP/zPUAVsITBB1j0QGvtkEDNJaPBszvBQDlI
okDkNJ7BIhkEQU64ukDZ9ZLBf7nYQAkRukDn24rBI9HEQOS6qj9wXpPBDRiRQG6Q3z83Co7BNdTZ
QNd7D0CZeaXBJcmiQOZfLkB0orPBCJ2bQHvci0B2K67BBQrOQBoIekAE/LPBRGUhQSuKtkBmEnjB
mdsOQeXU20Bo1oHBocQHQZUmv0BJzGvBAiNuQJmK7T+pUqrBdupQQIMxnD9KY53BdEXxQPmmcMBd
967B0F+KQJ2xU0DHY5zBQrsfQUxOFr4qgJ3BAYy1QNhPpL46FJTBbMrWQA6xob/8BpPBEKIWQXRv
Sj8GZ5bBMyMiQUAUKj5mbKjBfdD0QPnVCcBvRq7BgQe8QIoC0r6BkKfBEiAUQV5aGUAf/6TB+fMH
QUqLPsDnoKjB+PHbQClZsr9gdqbBXb+oQJBQBz7+Tp7BR1zpQMal57+oS5zBl4QQQUZqBEDdJJrB
uFwcQdm8uD+tJqzBD8DGQC7pNECby4zBGlzWQJIDhEARB57Be3buQMsWoUACSYzBvCOZQBA0O0Co
l5HB3Yy/QNqgO0CWa6PBEn7nQI5Jb0Der5LB3Fe0QFQNUkCHH6/B9LkNQUKUuUDruHnBNt+GQP82
mz+ib5/BJHAEQXNQMcAdvZ3BEoEJQYpEQ0BG7JLBYPMGQUdNlkAbB4TBe2iXQCL1JUBSUJ3BRm0h
QZ45LUCj2YHBJiAqQfcrk0DmNI/B4VwfQdV14z+Uh7bB9s4aQd5Cb0D8ionBIeEkQZ//jb8EjJrB
KbilQO+ybj3WBY3Bm+DhQBD1x7+BM4vBgFUUQbcaCD8LGI7BE2MoQck6Er/E6K3B0WHyQLpGBcD2
37bBcl6yQLt4lr0baa/BloAQQRMLWUCR0qfBOl0TQW+masCPDKzBd23FQFARSEB4VYTB9K7RQHpP
5D+zYI3B8mvxQMgTjkC3D6PBWZS/QOennkCaOZ3By9r6QA+JukBghJHBqErQQOmpq0BqmojBRi6E
QIV1DkCGRI3BN2eNQJD6fECfe5DBpi/VQDcZBEAaX6PBLiGkQLNSG0CD5LLBLAyfQC0MhUA+RK/B
nd/RQNm7YEACjLPBlEkfQYAEukCWknjBahUIQVJF2EAvHoDB9dQGQS+jtED0t2nBd2J0QAoSlz8n
pKfBkN9ZQHsmgD9Wu5nBwiIMQQmoT8Dn1pfBIBOBQNsKTUB8TqDB

>  <OMEGA_E>  (11) 
fGsdP2o8GD/0Fw4/LpNSPw==

>  <OMEGA_NBR>  (11) 
     49826

$$$$
50220591
     RDKit          3D

 68 72  0  0  1  0  0  0  0  0999 V2000
    6.6799   -0.8432  -22.1805 C   0  0  0  0  0  0  0  0  0  0  0  0
    9.5797    0.0178  -20.1319 C   0  0  0  0  0  0  0  0  0  0  0  0
    5.8776    0.2683  -21.8802 C   0  0  0  0  0  0  0  0  0  0  0  0
    8.9341    0.8127  -19.1674 C   0  0  0  0  0  0  0  0  0  0  0  0
    6.6639   -1.9684  -21.3381 C   0  0  0  0  0  0  0  0  0  0  0  0
   10.1607    0.6220  -21.2657 C   0  0  0  0  0  0  0  0  0  0  0  0
    5.0653   -0.8539  -19.8741 C   0  0  0  0  0  0  0  0  0  0  0  0
    9.4673    2.8135  -20.4637 C   0  0  0  0  0  0  0  0  0  0  0  0
    9.6326    7.6538  -14.9964 C   0  0  0  0  0  0  0  0  0  0  0  0
   10.4770    6.7185  -14.4590 C   0  0  0  0  0  0  0  0  0  0  0  0
    5.0640    0.2613  -20.7278 C   0  0  0  0  0  0  0  0  0  0  0  0
    8.8597    2.2090  -19.3474 C   0  0  0  0  0  0  0  0  0  0  0  0
    5.8537   -1.9915  -20.1847 C   0  0  0  0  0  0  0  0  0  0  0  0
   10.1040    2.0212  -21.4289 C   0  0  0  0  0  0  0  0  0  0  0  0
    9.0572    5.7173  -15.7960 C   0  0  0  0  0  0  0  0  0  0  0  0
    6.0220    3.1628  -17.5353 C   0  0  0  0  0  0  0  0  0  0  0  0
    6.6593    4.2838  -19.7182 C   0  0  0  0  0  0  0  0  0  0  0  0
    7.5796    5.1264  -17.6246 C   0  0  0  0  0  0  0  0  0  0  0  0
    5.4806    1.9967  -18.3563 C   0  0  0  0  0  0  0  0  0  0  0  0
    5.9989    3.1528  -20.4992 C   0  0  2  0  0  0  0  0  0  0  0  0
    7.1558    3.8633  -18.3185 C   0  0  1  0  0  0  0  0  0  0  0  0
    5.3945    3.7959  -21.7701 C   0  0  0  0  0  0  0  0  0  0  0  0
    3.5368   -3.5719  -18.7863 C   0  0  0  0  0  0  0  0  0  0  0  0
    5.4637   -4.4080  -17.4094 C   0  0  0  0  0  0  0  0  0  0  0  0
    4.1958    1.4487  -20.3776 C   0  0  0  0  0  0  0  0  0  0  0  0
    4.9695   -3.2594  -18.2971 C   0  0  0  0  0  0  0  0  0  0  0  0
    8.7531    6.9920  -15.8288 N   0  0  0  0  0  0  0  0  0  0  0  0
    8.3794    3.0010  -18.3235 N   0  0  0  0  0  0  0  0  0  0  0  0
    8.4708    4.7384  -16.5490 N   0  0  0  0  0  0  0  0  0  0  0  0
    4.9541    2.4945  -19.6554 N   0  0  1  0  0  0  0  0  0  0  0  0
   10.6976    3.8201  -17.5183 O   0  0  0  0  0  0  0  0  0  0  0  0
    9.2639    2.3283  -15.9763 O   0  0  0  0  0  0  0  0  0  0  0  0
   10.1088    5.5251  -14.9664 O   0  0  0  0  0  0  0  0  0  0  0  0
    5.8864   -3.1475  -19.4171 O   0  0  0  0  0  0  0  0  0  0  0  0
   10.6794    2.6107  -22.5000 F   0  0  0  0  0  0  0  0  0  0  0  0
    9.3956    3.3708  -17.0023 S   0  0  0  0  0  0  0  0  0  0  0  0
    7.3091   -0.8342  -23.0583 H   0  0  0  0  0  0  0  0  0  0  0  0
    9.6302   -1.0534  -20.0041 H   0  0  0  0  0  0  0  0  0  0  0  0
    5.8831    1.1297  -22.5317 H   0  0  0  0  0  0  0  0  0  0  0  0
    8.4970    0.3550  -18.2922 H   0  0  0  0  0  0  0  0  0  0  0  0
    7.2785   -2.8238  -21.5768 H   0  0  0  0  0  0  0  0  0  0  0  0
   10.6501    0.0118  -22.0104 H   0  0  0  0  0  0  0  0  0  0  0  0
    4.4635   -0.8453  -18.9774 H   0  0  0  0  0  0  0  0  0  0  0  0
    9.4430    3.8873  -20.5765 H   0  0  0  0  0  0  0  0  0  0  0  0
    9.6517    8.7163  -14.8036 H   0  0  0  0  0  0  0  0  0  0  0  0
   11.2824    6.9018  -13.7631 H   0  0  0  0  0  0  0  0  0  0  0  0
    5.2123    3.8816  -17.3413 H   0  0  0  0  0  0  0  0  0  0  0  0
    6.4152    2.7865  -16.5794 H   0  0  0  0  0  0  0  0  0  0  0  0
    7.5204    4.6490  -20.2971 H   0  0  0  0  0  0  0  0  0  0  0  0
    5.9275    5.0962  -19.5977 H   0  0  0  0  0  0  0  0  0  0  0  0
    8.1039    5.7878  -18.3301 H   0  0  0  0  0  0  0  0  0  0  0  0
    6.7004    5.6476  -17.2178 H   0  0  0  0  0  0  0  0  0  0  0  0
    6.2896    1.2752  -18.5429 H   0  0  0  0  0  0  0  0  0  0  0  0
    4.6704    1.5034  -17.7993 H   0  0  0  0  0  0  0  0  0  0  0  0
    6.7609    2.4163  -20.7938 H   0  0  0  0  0  0  0  0  0  0  0  0
    4.9019    3.0206  -22.3752 H   0  0  0  0  0  0  0  0  0  0  0  0
    4.6564    4.5581  -21.4796 H   0  0  0  0  0  0  0  0  0  0  0  0
    6.1954    4.2667  -22.3590 H   0  0  0  0  0  0  0  0  0  0  0  0
    3.1789   -2.7498  -19.4236 H   0  0  0  0  0  0  0  0  0  0  0  0
    3.5427   -4.5078  -19.3643 H   0  0  0  0  0  0  0  0  0  0  0  0
    2.8689   -3.6808  -17.9191 H   0  0  0  0  0  0  0  0  0  0  0  0
    6.4833   -4.1890  -17.0594 H   0  0  0  0  0  0  0  0  0  0  0  0
    4.7942   -4.5161  -16.5434 H   0  0  0  0  0  0  0  0  0  0  0  0
    5.4680   -5.3431  -17.9886 H   0  0  0  0  0  0  0  0  0  0  0  0
    3.7918    1.8796  -21.3055 H   0  0  0  0  0  0  0  0  0  0  0  0
    3.3667    1.1071  -19.7406 H   0  0  0  0  0  0  0  0  0  0  0  0
    4.9576   -2.3267  -17.7140 H   0  0  0  0  0  0  0  0  0  0  0  0
    4.2931    3.2100  -19.4292 H   0  0  0  0  0  0  0  0  0  0  0  0
  1  3  2  0
  1  5  1  0
  2  4  2  0
  2  6  1  0
  3 11  1  0
  4 12  1  0
  5 13  2  0
  6 14  2  0
  7 11  2  0
  7 13  1  0
  8 12  2  0
  8 14  1  0
  9 10  2  0
  9 27  1  0
 10 33  1  0
 11 25  1  0
 12 28  1  0
 13 34  1  0
 14 35  1  0
 15 27  2  0
 15 29  1  0
 15 33  1  0
 16 19  1  0
 16 21  1  0
 17 20  1  0
 17 21  1  0
 18 21  1  0
 18 29  1  0
 19 30  1  0
 20 22  1  0
 20 30  1  0
 21 28  1  6
 23 26  1  0
 24 26  1  0
 25 30  1  0
 26 34  1  0
 28 36  1  0
 29 36  1  0
 31 36  2  0
 32 36  2  0
  1 37  1  0
  2 38  1  0
  3 39  1  0
  4 40  1  0
  5 41  1  0
  6 42  1  0
  7 43  1  0
  8 44  1  0
  9 45  1  0
 10 46  1  0
 16 47  1  0
 16 48  1  0
 17 49  1  0
 17 50  1  0
 18 51  1  0
 18 52  1  0
 19 53  1  0
 19 54  1  0
 20 55  1  6
 22 56  1  0
 22 57  1  0
 22 58  1  0
 23 59  1  0
 23 60  1  0
 23 61  1  0
 24 62  1  0
 24 63  1  0
 24 64  1  0
 25 65  1  0
 25 66  1  0
 26 67  1  0
 30 68  1  1
M  CHG  1  30   1
M  END
>  <OMEGA_C>  (12) 
wMHVQBXeV7+/cbHBbkYZQUA1kjwYDqHBfhW8QG1jiT6nCq/B4PEOQQQOUD/OVpnBYD7VQObz+79Z
tKrBTJIiQfw6Hz8VIKrBBBeiQNWYWr87/p7BBnoXQewPNECWtaPB/R4aQSTs9EBC8W/B+KEnQbX9
1kDqV2fB/guiQMTGhT6c0qXBM8ENQc1fDUCTx5rBvFG7QDrq/r9XeqHBCqohQcpbAUBqbqvBNOoQ
QVb0tkBSvHzBaLTAQLhqSkBbSIzBuhjVQD4ViUD5vp3B5IvyQNULpEAs/4zB2mCvQGiV/z/M2ZLB
5Pa/QH7HSUBI/qPBZvzkQHBAd0BbjJLBYJ+sQE7wckAdKa7BL1piQJiZZMBUSpbBxtauQCsOjcB2
RovBYESGQFRuuT9HBaPBDAafQCyaUMBjYJLBngwMQTK+30CgQn3BNRIGQYIQQECKlpLBPYgHQRSh
l0BFZITBIIieQB6lH0AyPp3BOikrQRV8dECIJYzBEzkUQWsDFUDonn/Bmb0hQe3NsEBcdm/BiF28
QARwScA8VpvBuN4qQb4VJ0AAALTBaVQWQWW7V0CiBIjBcuTpQM+PVb9Od7jBfhUaQRHVhr9zCKDB
qUK8QL2ZkD/nQLTBpfMHQQnGtT59VpLBIOnoQF24NMBcnazBsWYqQThvQTxDFbDBSNWOQHNlWL+m
0ZfBkxYXQVDJeECqnKTBPW0aQQV2C0G822zBh4Q0QXfb3ECKNVzBA8umQHZreEDzuorBW0nNQApW
MkCUooTBOqfwQOXElEB0YKLBwK29QAUUo0AByJzBsqkBQXA1uUD9o5LBwGnWQP24tEAQvonBOkTJ
QDg4oz/qV5TBU3SVQGhvwD/zZI7BpFnYQCekGkCjWabBHNycQNJQQUBpALPBaQGVQBrckUBI1qvB
skDGQOmIiEBA37LB43JLQIb8L8BxY5vBY7xiQJY/kMAQ6prB/Zs3QAWSa8A5Wo/B+nbPQPALhsCP
eYjBxmmZQEuEkMDZWITB+fmuQN76qsCw6I/Boa1yQJeV8D/BcarBnndXQMK0jT+t7J3BTKSeQB7p
FMBGto3BN2GJQOtvTUAVb5vBvi6sQKnepL/NzrLB7m4gQdPlHL5VJ5/BsGeVQK2HD75+rq/Bf/AT
QR/HET+6vJfBa/++QH8lB8DEAKvBf8woQXeT/D7EQ6jBR5GkQCY9Ib/e7pzBntwZQRCLJkD/C6LB
1cMpQfnp0UCkwmbB6V0lQc+W8EDNyXXBtZOSQJ8XXj4GxKTBcQQQQX5n+T9LUZnBAjq6QLkD57/d
C6DBJFglQWy37z9hu6nBh+kVQezOs0DnZH/BEJm+QNX5Y0DPbo3B8+XaQOiwfkCMup/BeEQAQXIs
oUC59I/BTaGlQA3ZFkDh+pHBXm/BQK2MMkAtW6TBh/HoQDdGckBJzZPBm+K1QP2bSkCWDLDBI2mU
QN1mRcByjIrBsZGNQO+ih8DXiJzBI+F4QN+hwT+emqHBcFmtQNN/asAeJJTB2gMgQX9DrEBnWG3B
lToEQWtMKkA9o5HBfZEKQRnslUBltoXBQYeaQIQRJEDMfJ3B/w0oQXAGNkDNnobB0gMFQU0kFkBl
QnnBQ9YYQWXA3UC8Y4LBOt/KQPJ+KsDlepjBB0QtQR9/IEDzbbLB4MMQQQ2MP0B/ZYXBrDavQHmj
xL+vLrvBTZcjQTrqmb+n2Z3BQ/mFQOns8T7/qLXBilkNQXkKiz3F1JDBoSPRQIzHPsAKZa3BEdUx
QVpJi71RGq7BUsGhQIfCwb5Vj5TBS4kYQZ8va0BK0KLBSh8zQQZA1kBSZVjBj9EqQRuxCEFVtXXB
CaGqQNffjkC5CY7BV1PGQDG6V0Az/ITBIs/3QLLkg0BEnqTBfMHGQG0lnEADOKDBEm4MQc+5qkDx
2ZXB+cPpQPCYu0D4xY7BTHe5QML8uT8HPZHBAPSHQFl9DkBMXY3BMbLVQFT28T+HW6TBgJujQMUg
FkALurPBtW+iQMOkgkA5E7DBjm3TQC1+VUDdorTB/xarQACFK8CwpYTBdUp+QA7wEcAZV43BZTSB
QHtNeMDq0YbBqpCfQCvLlMBEWKPBxrN0QE0nocCe1pjBcpVwQCvxW8DNW5/BiKdXQO7h9D+Sq6jB
t9VJQGzspD/ZTpvBemHAQO1JkMCDH5HBNhuKQGn1WkBiv53B6BWsQF22pL9EzrLBTGcgQdZsHr5o
KJ/BN1GVQA1XDr4Kra/Bi/ATQfmbET+Uu5fBHOm+QOkUB8AwAavB3sMoQYGi+z60RajB9n+kQCkb
Ib/07ZzBZOMZQRJ+JkBoCqLBBJolQcYT70D6BHXBXzUqQalO0ECqGmbBX4GSQCPSXj5mwqTB6wsQ
Qe1d+T/XTpnBiie6QBzt5r/4C6DBx1YlQQyJ7z/Vu6nBIQEWQeLqs0Bof3/BrqC+QHviY0DEbo3B
Y+vaQI6BfkAvvJ/BajwAQTspoUCY/Y/BPKSlQADKFkDV+ZHBkWjBQGNxMkA3W6TB2vPoQFwsckD1
zpPBk9a1QCCUSkCtC7DBP1iUQI5ZRcBbi4rB4GuNQCqPh8BmiZzBfMh4QCyywT9Ml6HByzytQLZw
asAgJZTBXNIYQXxa3EAZR4LB7EMEQcNUKkBHoZHBmJkKQbYMlkDKvoXB0oOaQFwKJED0ep3B1hko
QcRmNkCEnIbBhBEFQQ+XFkAiOnnB/JEgQfXQq0BS0GzBVcnKQKl6KsCbe5jBZz8tQYtiIECgb7LB
V88QQfDgP0BgZIXBMRqvQPV0xL9TLrvBfIojQXYlmr/F253BlOGFQBGp8j7jprXBGloNQf5Wij0f
05DBZgzRQNS1PsBPZq3B58UxQWY0kL3kHa7BsbGhQDOkwb4+jpTBy5UYQQ8la0DBzaLB4vIqQc33
B0Fju3TBkqwzQZxT1EClyVfB4qmqQHDVjkBrCI7B8mDGQOOeV0CX/ITBGtf3QPO8g0Dln6TBFdLG
QP0UnECtO6DBZV0MQVW5qkD55pXB3qbpQMKKu0Azz47BhXi5QAnYuT8pPZHBqfmHQPRwDkAUW43B
3KLVQMan8T9LXaTB8ISjQLMnFkAnubPBWWyiQJimgkBpELDBrV/TQMRpVUApo7TBwA2rQPWJK8Av
pYTBuy9+QGTVEcDWU43BzSCBQK08eMDz0IbB1WOfQFS2lMAcWqPBgWJ0QDASocCD15jBolBwQBe9
W8BmWp/BIYRXQIMB9T8Gp6jBl8dJQAsApT89SpvB4D/AQDtJkMBqIpHBHh6KQBL2WkDFvJ3BLxep
QLlBoL9JP7LB3B8mQda34z8FOqnBrZyTQKt4gr1jf6/BLVEaQTMJI0Ag5aHBqi66QKewBMBQKqrB
KdYoQTsDzT6PfqfBttGgQAN9AL95mpzBMBQTQbzFDT9jS5fBu5knQQZj70DMGXbB3I4rQarr0EAV
2WbBNGiQQKOFqz46rqTB978PQdGN9z+8KpnBtB61QDcM27+1TJ/BA8UfQTf5U74zZJ7BJSIXQWLg
tEAtFYDBC0K/QAUza0BpvI3B0MTcQAmUgEDZBqDBGmIBQcNZokAwWJDBcf+kQDZvH0CtLZLB8g3C
QJJbNkDxh6TB1w3qQHugdUAsC5TBb2a3QFdsTUBfTrDBoLC2QLa4jsBb2ovBmgmBQL88fcCrTJrB
+A53QEmu1D+P1KHBRkOxQAwbecDlOpfBw6oaQc/m3EBayoLBSSkEQaoHLEBspJHBf1kLQdZSl0Bf
/4XBgqCaQHveK0A2v53BmdwnQUT9NEAvcYbBdGMEQUxWG0AXH3nB5GEhQcTSrECiTG3BKVbCQBZO
IsCPHZfBHnAjQcBLwr9+cJzBhKMQQRS2QUB3X4XBXXOsQMc+xL8BjLrBzRstQbjSD0B/L7DBsH+F
QPIEDD9qsLXB0ksZQbiIZ0DB7qLBaR/LQM+SPsD8QKzB+NsxQYnwRL5yIq3BW8+dQL9jW75AT5TB
8uILQYO1pD1WaZDBPHstQR/xB0FVE3bB/fM0Qe3f1EAFe1jB5GOsQFspk0DnfY7BKYDGQNRxX0Ak
QIXBWQn6QEeag0Bh26TB4cjJQF8XnkCRt6DBosgNQQKnqkD4O5bB+83sQAiRvUATWI/BP6m3QEVn
yD+4QZHB0/6GQNALGkAuoI3BVzLVQLWX9j87WKTBIUSkQP7MGUCH5rPB+xalQBDDhECohbDBe0vV
QHlSVUCL2LTBxKbYQHB8jcBUj4nBwbmjQNwYd8B/MobBmI6rQG4bsMA1rYvBtjp5QKx7Y8AdaqLB
eDxsQKwRoMCyEJrBy5JcQFgFV8D8lZTBxclXQLUEBEAYCKnBlKZGQCB+vT96m5vBJorDQAh+kMCM
3JzB0UOLQILoY0BhLJ7B5iypQG55ob9aObLBYxkmQe4H4z/dManBv7GTQE+alL0Rfq/B2UEaQQ25
IkBy4aHByTu6QMw3BcAUIarBF9UoQfx/yj7xcafB89GgQJj/Ab8fl5zBDgcTQfTXDD9LQ5fB/g4r
Qfh40kDBgmfB7k8nQWnR8ECn4HbBsnGQQODjpz4irqTBb60PQaID9z80J5nBQSG1QPDe27+/RJ/B
Z8AfQdQIWL5wV57BufQWQd21tEBzBoDBvRy/QEUQa0Bbv43BQLPcQIGBgEDGBqDBkVwBQRRBokDu
T5DBY+mkQA8yH0CUMJLBAwrCQIgYNkAYiaTBn/PpQHV7dUDfCZTBiWm3QPkFTUD1ULDBcKi2QOnZ
jsBNzIvBRBOBQBy2fcCbRJrBtBJ3QKHO0z9Z2aHB+EexQLR3ecCJLpfBd8AgQbw6rUBL023BzxIE
QQ3GK0ATo5HBsT0LQScfl0B/9YXB55WaQJKGK0Amw53Ba74nQUh5NEBfbIbBtT4EQXbHGkBDIHnB
3p8aQYc43kDU54LBcFDCQOShIsB0EpfBa3AjQde4wr/lXpzBCoUQQdk7QUBdXIXBGZCsQGKmxb8U
hbrBJRgtQa9uD0ByJ7DBRJ2FQBCICT+zsbXBCzgZQUw0Z0Bc7qLB5C3LQGkgP8BANKzBueExQaBN
Sr6FEq3Bu8adQLsSYL7bTJTBKNMLQVy5nj0lYZDB81g0QRbC1kAgGVnBiUwtQSaeCEFWD3fBKDqs
QCgTk0CqhY7BWUzGQDdqX0C7QYXBj/r5QFCSg0DX2aTBoK3JQE3+nUBIuKDBys4NQQWGqkBELpbB
u8/sQCSEvUBUUo/B4pq3QFoGyD+lQZHBXOSGQPzEGUAUpY3BtzjVQKkt9j9fVqTBnlOkQMpQGUBT
6LPBzA+lQDeJhECIi7DBcVHVQEf2VECt2bTB2prYQH2TjcAufonBvqSjQBpYd8B4J4bBwI2rQPs+
sMACnovB/F95QBwIZMBNY6LBiV5sQJ9QoMBxB5rBhYxcQGN7V8DnkJTBm+BXQNR/A0BZD6nBYphG
QDiuvD84opvB2ZvDQO2tkMAzzZzBzDCLQDmGY0CgMp7BWtmrQI9OpL9TxLLBfxQxQX+x4z8Y16PB
dE6VQH9ABb5Oqq/BOY0kQZicHkCoWZzBQiC+QDJqB8D88arBgEEpQRDEFz9ed6jBaEmjQKVII78i
5JzBz88IQcqGRT89q53BCvEoQUlZ00Dcp2bBrZckQXOq8UCY4HXB9tORQI4GXz4ivqTBxnIQQecI
/D8qFZnByjm5QBua578z/p/Bqv0UQceDyz24gKXBXlkVQU6OtECISn/BGnK+QHlYZEDNs43BnvDe
QMKMeECW+p/BpH4AQQ5KoEAoEZDBVm2lQCZtF0DeHZLBzmPBQEAvMUCOhqTBBpLpQD+wb0A8z5PB
uFi1QIoZTEBLE7DBir2UQBRYRsADaorBrv2NQO9YiMASYJzBm/h3QGrUwj/hmqHBtq2tQF7fasBK
CZTBnU0fQYiBrUBiG23Bs1EEQXNOKEDyO5HBAzcKQcEvlkB9nIXBcGyaQFWfJEBKl53B7pQnQf39
NUD1Y4XBr8MDQWz+GED6T3jB7jwYQXBl3kAEcYLB5IPKQJgEKsARbpjBqVQNQSzIgr9PLKrB5DYQ
QeI1QEDQ04TB1huvQADFw7/9I7vBobBAQRC3CUDDCabBW4yGQEES/T4ZrLXByk4qQYdDWkCmEZnB
evbPQAl8P8AeUq3BB8gyQf0tej01Sa7BJ9yfQFXYyr6Og5TBvSnzQPRgvD4yLJvBSjEyQU8O2EBo
QFjBgPUpQShCCUHt6nXBXxKrQIFPj0AGqY7BnB3FQNDZWUB1KYXBnzj9QDlBd0BudqTB0gXPQIFG
m0BdOKHBHP8MQRcTqUDM25XBCzjqQBXsukCmOo/BAyW5QBLfuj9JWJHBesKHQLqCD0AxfI3BYZ7T
QH8M6j+v36TBr1mgQMhOG0A6o7PBU4ukQHv4hEB/4K/Bb5rSQJosUkDD6LTBpmOrQBa7K8BxjoTB
eRR+QLiHE8C1Lo3Bwv6BQHS5ecBVpIbBsgagQH9KlcBgNKPBzHZ2QIgdosAEpJjBwY1wQFUJXsBk
Lp/BaH5WQKy69T+aqajB9zNJQBNRpz+WQZvBoDbBQM8mkMAICpHBm1SKQIbhW0Ai6Z3Ba9erQGk8
pL8qxbLB2RsxQSp34z/F0qPBD0uVQEvNBL4Hq6/BdZgkQUuEHkASVJzBfyG+QJhfB8AR86rB20Mp
QT+EFz9VdKjBiEWjQBhFI78V5ZzBidIIQaa2RT9lqJ3BVMUkQVEw8EDcE3XBo1gpQVbC0UC/+mXB
fc+RQCUgXz64vqTB5nsQQQH++z8QEJnBYTm5QEqM579F/5/Bvv0UQcoDzD1ffqXBMWMVQcqvtEBN
YH/BdnW+QPc/ZEDzs43Bb/XeQFpdeEA+/J/BhnQAQUNGoEDKGZDBb3GlQM5WF0DkHZLBHGLBQNMT
MUBzh6TBtZHpQHyWb0CV0JPB31S1QDARTEB2E7DBNrSUQM9SRsDvbIrBl/+NQGZXiMB5Y5zBwvF3
QIzQwj+jmqHB9qmtQOHaasBJC5TBgioYQaIH3UDaUILByloEQZteKEBYOJHB7jIKQZBUlkBYooXB
fW2aQCWSJEAUl53Bi50nQaGaNkClXYXBAs8DQYhwGUCORHjByM0fQQQVrUByjWzBhoHKQJP/KcAp
b5jB9E8NQTGlgr9nK6rBND4QQc6fQEAx0ITBqhivQPSyw7/cJLvBOLlAQdyMCUBzBabBIImGQGhY
/T6vrLXBr14qQZUfWkDOCpnBIPvPQIJsP8BqU63BRsgyQTT9dD2ZRq7B8NWfQIn1yr5uhJTBTinz
QKldvT6tKpvB0gUqQVaOCEEV53TBV7oyQQQi1kA8olfBHhWrQDVDj0B5qI7BYiTFQFq/WUDPKYXB
SD/9QFr2dkAtd6TBFxXPQLoym0A+PKHBKvIMQe4JqUB25pXBpBjqQM3gukBxR4/BRSq5QPCzuj8/
WZHBDsiHQIJnD0DBe43BppXTQLHF6T8G4qTBME+gQIhTG0C/o7PBFI6kQLj3hEAR36/BLZXSQLEd
UkCY6bTB9FarQJe1K8CRkITBLgV+QH+CE8B3Mo3BKvOBQNmzecDjp4bBcQ2gQO9IlcD8NqPBCnZ2
QBwcosAvqJjB5JRwQN4GXsDDMp/BtHVWQAfD9T/gqKjBUy9JQENLpz8gQZvBqzHBQBgkkMBGC5HB
9lmKQJPZW0BP6J3B

>  <OMEGA_E>  (12) 
2JXXPtqaKj8QkCo/lNQ7P/jtOz9abTY/mGg2Pw==

>  <OMEGA_NBR>  (12) 
     57662

$$$$
50220592
     RDKit          3D

 64 68  0  0  1  0  0  0  0  0999 V2000
    9.8716    1.4581  -21.3729 C   0  0  0  0  0  0  0  0  0  0  0  0
    5.7138    0.2153  -21.8111 C   0  0  0  0  0  0  0  0  0  0  0  0
    6.5794   -0.8554  -22.0921 C   0  0  0  0  0  0  0  0  0  0  0  0
    9.3646    2.5067  -20.5833 C   0  0  0  0  0  0  0  0  0  0  0  0
    9.8779    0.1407  -20.8737 C   0  0  0  0  0  0  0  0  0  0  0  0
    5.0835   -0.8305  -19.6886 C   0  0  0  0  0  0  0  0  0  0  0  0
    8.8754    0.9214  -18.7910 C   0  0  0  0  0  0  0  0  0  0  0  0
    5.9403   -1.8966  -19.9891 C   0  0  0  0  0  0  0  0  0  0  0  0
    4.9734    0.2335  -20.6039 C   0  0  0  0  0  0  0  0  0  0  0  0
    6.6852   -1.9030  -21.1652 C   0  0  0  0  0  0  0  0  0  0  0  0
    8.8594    2.2398  -19.2943 C   0  0  0  0  0  0  0  0  0  0  0  0
    9.3765   -0.1279  -19.5841 C   0  0  0  0  0  0  0  0  0  0  0  0
    6.2559   -3.1361  -19.2954 C   0  0  0  0  0  0  0  0  0  0  0  0
    6.1842    3.1156  -17.5138 C   0  0  0  0  0  0  0  0  0  0  0  0
    6.5838    4.3233  -19.7386 C   0  0  0  0  0  0  0  0  0  0  0  0
    7.4660    5.2865  -17.6413 C   0  0  0  0  0  0  0  0  0  0  0  0
    5.6076    1.9575  -18.3253 C   0  0  0  0  0  0  0  0  0  0  0  0
    5.9326    3.1434  -20.4726 C   0  0  2  0  0  0  0  0  0  0  0  0
    7.1766    3.9677  -18.3548 C   0  0  1  0  0  0  0  0  0  0  0  0
    5.2410    3.7356  -21.7251 C   0  0  0  0  0  0  0  0  0  0  0  0
    4.1546   -4.1165  -18.4365 C   0  0  0  0  0  0  0  0  0  0  0  0
    9.0659    6.1789  -15.9659 C   0  0  0  0  0  0  0  0  0  0  0  0
    4.1371    1.4283  -20.2297 C   0  0  0  0  0  0  0  0  0  0  0  0
    5.5694   -3.6498  -18.0561 C   0  0  0  0  0  0  0  0  0  0  0  0
    7.1359   -3.7905  -20.0204 N   0  0  0  0  0  0  0  0  0  0  0  0
    7.4325   -3.0617  -21.1456 N   0  0  0  0  0  0  0  0  0  0  0  0
    8.5172    3.3030  -18.4668 N   0  0  0  0  0  0  0  0  0  0  0  0
    8.4826    5.0014  -16.6405 N   0  0  0  0  0  0  0  0  0  0  0  0
    4.9604    2.4686  -19.5606 N   0  0  1  0  0  0  0  0  0  0  0  0
    9.6925    2.7429  -16.2086 O   0  0  0  0  0  0  0  0  0  0  0  0
   10.7453    4.4613  -17.8258 O   0  0  0  0  0  0  0  0  0  0  0  0
    9.3896   -1.3908  -19.1022 F   0  0  0  0  0  0  0  0  0  0  0  0
    9.5798    3.8132  -17.2085 S   0  0  0  0  0  0  0  0  0  0  0  0
   10.2557    1.6631  -22.3613 H   0  0  0  0  0  0  0  0  0  0  0  0
    5.6129    1.0261  -22.5174 H   0  0  0  0  0  0  0  0  0  0  0  0
    7.1538   -0.8715  -23.0065 H   0  0  0  0  0  0  0  0  0  0  0  0
    9.3624    3.5170  -20.9651 H   0  0  0  0  0  0  0  0  0  0  0  0
   10.2674   -0.6640  -21.4796 H   0  0  0  0  0  0  0  0  0  0  0  0
    4.5164   -0.8245  -18.7696 H   0  0  0  0  0  0  0  0  0  0  0  0
    8.5033    0.7178  -17.7978 H   0  0  0  0  0  0  0  0  0  0  0  0
    5.3591    3.7596  -17.1754 H   0  0  0  0  0  0  0  0  0  0  0  0
    6.7145    2.7095  -16.6398 H   0  0  0  0  0  0  0  0  0  0  0  0
    7.3950    4.7154  -20.3697 H   0  0  0  0  0  0  0  0  0  0  0  0
    5.8209    5.1028  -19.5959 H   0  0  0  0  0  0  0  0  0  0  0  0
    7.8380    6.0327  -18.3587 H   0  0  0  0  0  0  0  0  0  0  0  0
    6.5532    5.6653  -17.1584 H   0  0  0  0  0  0  0  0  0  0  0  0
    6.4186    1.2666  -18.5991 H   0  0  0  0  0  0  0  0  0  0  0  0
    4.8612    1.4245  -17.7180 H   0  0  0  0  0  0  0  0  0  0  0  0
    6.7104    2.4324  -20.7880 H   0  0  0  0  0  0  0  0  0  0  0  0
    4.7546    2.9282  -22.2922 H   0  0  0  0  0  0  0  0  0  0  0  0
    4.4850    4.4712  -21.4130 H   0  0  0  0  0  0  0  0  0  0  0  0
    5.9920    4.2285  -22.3599 H   0  0  0  0  0  0  0  0  0  0  0  0
    3.6397   -4.4950  -17.5412 H   0  0  0  0  0  0  0  0  0  0  0  0
    3.5894   -3.2703  -18.8542 H   0  0  0  0  0  0  0  0  0  0  0  0
    4.2224   -4.9182  -19.1867 H   0  0  0  0  0  0  0  0  0  0  0  0
   10.1615    6.0841  -15.9438 H   0  0  0  0  0  0  0  0  0  0  0  0
    8.7879    7.0908  -16.5147 H   0  0  0  0  0  0  0  0  0  0  0  0
    8.6823    6.2390  -14.9367 H   0  0  0  0  0  0  0  0  0  0  0  0
    3.6908    1.8541  -21.1405 H   0  0  0  0  0  0  0  0  0  0  0  0
    3.3379    1.1074  -19.5453 H   0  0  0  0  0  0  0  0  0  0  0  0
    6.1388   -4.4941  -17.6401 H   0  0  0  0  0  0  0  0  0  0  0  0
    5.5058   -2.8462  -17.3076 H   0  0  0  0  0  0  0  0  0  0  0  0
    8.0925   -3.3313  -21.8469 H   0  0  0  0  0  0  0  0  0  0  0  0
    4.3218    3.1790  -19.2649 H   0  0  0  0  0  0  0  0  0  0  0  0
  1  4  2  0
  1  5  1  0
  2  3  2  0
  2  9  1  0
  3 10  1  0
  4 11  1  0
  5 12  2  0
  6  8  1  0
  6  9  2  0
  7 11  2  0
  7 12  1  0
  8 10  2  0
  8 13  1  0
  9 23  1  0
 10 26  1  0
 11 27  1  0
 12 32  1  0
 13 24  1  0
 13 25  2  0
 14 17  1  0
 14 19  1  0
 15 18  1  0
 15 19  1  0
 16 19  1  0
 16 28  1  0
 17 29  1  0
 18 20  1  0
 18 29  1  0
 19 27  1  6
 21 24  1  0
 22 28  1  0
 23 29  1  0
 25 26  1  0
 27 33  1  0
 28 33  1  0
 30 33  2  0
 31 33  2  0
  1 34  1  0
  2 35  1  0
  3 36  1  0
  4 37  1  0
  5 38  1  0
  6 39  1  0
  7 40  1  0
 14 41  1  0
 14 42  1  0
 15 43  1  0
 15 44  1  0
 16 45  1  0
 16 46  1  0
 17 47  1  0
 17 48  1  0
 18 49  1  6
 20 50  1  0
 20 51  1  0
 20 52  1  0
 21 53  1  0
 21 54  1  0
 21 55  1  0
 22 56  1  0
 22 57  1  0
 22 58  1  0
 23 59  1  0
 23 60  1  0
 24 61  1  0
 24 62  1  0
 26 63  1  0
 29 64  1  1
M  CHG  1  29   1
M  END
>  <OMEGA_C>  (13) 
DPIdQWijuj+3+6rBude2QCR1XD47fa7Bq4rSQLP6Wr+UvLDBcNUVQaptIECwqqTBDgweQdwZED5P
/abBV6yiQLmYVL9Tgp3BnQEOQbzjaz/qU5bBxxa+QFrC8r+b6Z/BSiafQAwcbz7L1KTBc+3VQAyU
879eUqnBNcANQWlZD0DCWprBCwYWQUL7Ar4xrJzBJzDIQLu1SMAOXZrBsOTFQPVlR0A+HIzBu67S
QGtYikCw6J3BMenuQK0qqUB1IY3BeXGzQJqP+j8jmpLBJ9i9QIYtSUDVx6PBrKblQAbufUCO1pLB
UbanQK8Tb0DszK3BoPKEQMO6g8DpfZPBuQ0RQVq5xUBPdH/B62KEQFbTtj9U1qHBjziyQN6WacDM
cpDBT1nkQBKYcsDLKaDBJtftQH/zQ8BBKqnBX0YIQZtkU0D3u5PBnrgHQWoLoEDBH4XB7rueQNn8
HUAkfJzBpRQbQX+LL0Arq4HB8OwrQSPDjkAmm47B4jsWQUgFsr9h0ZjB20YZQQcMdEDsqonBYBck
QVXh1D/Y47LB/ZyzQBVYgz+XI7TBzuvkQHkZX79pDbjBjMwVQRYWYUCBuKfBJEckQd78Kb8+1qvB
H4aQQOkUU78SKJbBog0IQVnBNz/LYY7Btn2rQGudcEA3Z4nBNt3WQM1oLUBUHoXB+qPsQEvklkAg
9aLB80S6QOlJo0BZxJzBjND6QEYMwUC23pLBd7PRQA5KtUBRRInBzmTNQNQfoj/+ypTBHo+bQAlW
tj9gvo3Bv7vWQOSrG0DJTabBCiaYQMtnO0BcVrLBRIWPQL0Tj0DDTavBur6/QJVPh0AS4bLBIPBo
QPfWj8BMVIzBUrllQCFNUcBm1ZbBLh6HQN1hncBEfpnBpJUiQaOwwkC3GX/BEZsMQbLn4kAIHoTB
seoKQfylx0Cr/G7BETZsQIZS7T+pH6nBoaBVQOu/jT+0XJzBznDEQJvPj8DZHo3BSi+wQJ0oNsD7
dYrB7HoBQZMzVcBrxq7BekyKQPB0S0CNHprBiMQVQeUsFL6+uJzB3LG2QCclVT77nK7BFmDSQJVh
XL8m87DBkOMNQagOZz/hTJbBG9odQduFBz5NA6fBvNSjQPf5VL9Jhp3BhNkVQaDzH0AdiaTByyu/
QAq48r9EBKDB5qGfQB8TaT7z26TBmWbWQFjV8799hKnBWLwNQZFrDkBYQZrB3usdQXJYuj8656rB
Q3rJQPWkSMBVf5rBKNDFQJU8R0CdEYzBW+DSQBwHikCB353Bb+XuQPIDqUDxG43BmXCzQGjm+T92
i5LB3Oy9QHSlSEDyu6PBLLPlQDdxfUACyZLB07+nQNHEbkBfu63B+dKFQCBZgsAKbZPB0gARQRsa
xkBQln/BH6SEQI5BtT+tz6HB+K6zQHtIacD3iZDB/YvlQNNccsCoWKDBipXuQPvDQ8AkY6nBGEAI
QQFaUkAdn5PB8t8HQTQwoEBYLYXBn8yeQKltHUCpcpzBbqIcQR21MkB65IHBm6ErQdnkkECTP4/B
Gv4lQQ973T+DsbTBkrMZQRNGdkAx7onBkJ0VQa9llL9Hw5nBVQGzQHAbgj/BRLTBfT/kQGjUYL/r
V7jB0PcHQSi0MT8+W47Bu/4jQeNcK79466vB+zuSQBH5Ur+wFpbBG98VQUTIYEAniKfBuGKrQP6Y
cEBzaYnBD6XWQNdvLUCJC4XBK+/sQGVnlkBv6qLB2Y+6QAcXo0A0w5zBem76QGDxwEAg4pLBsL7R
QIn2tEAiL4nBIGzNQBhxoT9UtZTBYYebQKLQtT/ar43B8MDWQAUXG0DQR6bBgxWYQE06O0AkRbLB
sqKPQJj2jkBCNqvBqMW/QCEih0Bz0bLB5hJrQC9WjsArOYzBLWFoQAFnTcDun5bBZPSGQAPOm8A7
f5nBw5AiQaTMw0CejX/ByBgMQU0240ALF4TBGiQLQbGJx0D3AW/BaGBsQHPC6z+GE6nB1WVWQCks
iz/7U5zB3G7FQLw8kMAyWo3BD6uyQHNENsDleorBwckBQeHXVMAPCa/BW0SKQPfOSkCzG5rBCkQb
QdDLYL4I26HBzfW9QFwm4T7lerDB11DbQMB6H7/JobHB8XQSQd3jDj8vjZnBQaQhQS1xxj60gqvB
98KlQFsEAL/CbJ/BYQcXQS4QJEAwcaTBqvnEQMANwb+QXKDBMhajQFOIAT9lYafBZqfeQHbZyr/n
cqnB6lIQQT9n+j+yyJrBJaEfQSgN5D9Gx6zBWgXTQBfwJcAoTJnBFX/GQGhO8j/iKJDB4MnUQFfT
hECyQpnBcBfkQJI/c0B0SoXBLzSYQE+6EUDqLZPBcka9QCZnW0BnkaLBWjzkQADJSECwb5DBvmSx
QJN7jkBSVavBcUqWQOSQZcAV7I7BGaADQUkwwkACc4TBT7WEQPqQ1z/O/qXBekTCQJjLOcANOI7B
z0LxQPjuUMD2RZ7BS474QNZ/LMC1GajBbhoJQaUDL0DUKJLB5s8FQbjjkkD6kITBMlSVQJ2lL0BO
j57BZCUpQZCJTEBaVIXB2wEhQWN9nEAgTZTB/k0mQX7zF0CX67XB9QAaQaoxekAmRozB2yIdQQ2D
pL860KDBif67QIUzmj81j7bBi/7uQJuVMr+dtbjBR1INQTKNrD2DOZLB7g4oQc14W75I7bHBPQyQ
QGue/L4NtJjBEYwVQdl4aECGbqXBN7bGQMetuz+YDIjBTmvSQC2Nkj+r4ZXBmcrwQBTClUCmgJzB
nsy+QNINnEAzlpXB4gDIQLGQjkDAcITBOYLjQHMPQkBd/n3BBHKDQPj0sj8HJZLBpk6NQGxwRUCT
3Y3BPPLSQFtOK0AVBqbBgMKgQCoVfEDy6LHBZUecQHsep0Dd66fBza/OQDyjnUB8aK7BJo6KQOSS
c8AD0IbBmih/QCnVOsBAAZPB30SZQFbOkMCQdJPBAPkPQQ160ECCmonB7V/nQKsjy0Dqb4fBP5cF
QYMBzkDXb3jBQG1+QHH2CECZ4q3BinNMQLVMpz+WyqLBgtzYQOemZMCgHYrB8Cu/QMe++79QqonB
bMQGQQUoQsA5gK3BLbB9QFYvXUDiiZ7BpI8fQUNXsj9whKnBr3qZQE1TyD2cTrHBVF2xQMaqeL+4
h7XBp1cXQTC7F0CriqLBWN0eQd7UED1DnabBju6rQCaiGL/RGJ/B4T8NQbDFIT9kz5XBXbrCQJG/
178obaPBI6mXQO+zoT5nHqbBaPjFQFE17b82ea7B6YINQWtm/z/xzZjBmh4WQTVZr77Ir5zB02La
QMo4M8DDqJ7BX9u/QFsOXkDX0IzB4WTaQPAEhUCwJJ/BswL4QFIQqUAS0o7BFmOqQGRvEEBjJZLB
rwDCQAnzPUAnRKTBFb7nQHw9fEAUPpPBKNizQMVPXEBGiq/BQEq3QI9/bsB7OY7BK7sSQcqIwkAq
M3/Bgd1/QMogxD/j2aHBOurfQC2cRcD715LBCXTqQK6TYcCce6bBu9PeQOmTPsD8HbDBO2YGQahN
PkAgnZHBzk4IQetbnkAWQIXBucKcQJ59JUCXP53BWcMWQVxpKkA40XzBT/ArQe0CfkD5tozB0gEX
Qahz0b9CppnBIbEXQQntY0A3sofB8WYmQb/G1z89GbHB0mCIQGYbQj9GpLbBzM+zQNxJjr85E77B
/YwYQeObWkCko6TBAwglQSl3N7+j/qvB0vWpQAg4675tipbBm0UGQbnVqz4IRY7BxaioQKpyiUDg
Y4zB1ebJQH48TEBgroTBCZP3QGy9ikA+2qPB56rFQH5toUApiJ/BvD8GQRckuUC2vZTBAvLcQHwB
vkCGwozBmD7BQG7dtT+SY5LBNyiOQGdo+z+QcI3BgufXQAI+B0DCGaXBrkSiQJ+LKECdkrPB+fme
QJdUikBSwq7Bi0DQQGhIbUClSLTBsey7QBBae8B/poXB5R+cQOiKQsBoSY/Boq2wQIB2lcAWbZLB
jnkjQf9EukAusHvBST4SQX0430CmsYTBMzMKQTHyyECqJHDBbDFbQA5Q/T9KdajByZtTQIt6mT9D
jJvBV//6QCm1ccDfvZHBmXHmQBFTCcAxmo7Bwx7nQOm9VcDgR7fBgciKQP42WkC8pJzB/TwWQWFP
nL76r5zBxxCaQM20ljwQ0rDB6G2yQH3ohL/yErXBZ50NQY4yLT8Z0pXBP/seQcpXhT3lpabBF9Wu
QJgqIb8VqJ7BR4MXQS77GUB1q6LBdlDGQDoG2r++AqPBPROZQDJZgT69paXBb4LIQPvd8b/0Da7B
lN8NQUZZAkCa4ZjBd6cfQW05tj9jn6nB69vfQBLuMcAxSJ7BUGfAQLQoXkB1w4zB9I/ZQMmnhEBc
QJ/BvTL3QD0tqkBNIY/BDoOrQOsWD0Ar5ZHBGJvBQGHGO0AxK6TB0p7nQPJbfUDHXZPBD2+yQHlz
WEAmbq/BZzq/QK0EbcDFio3B5n4SQc1XxUBVKIDB/LeAQGBwuj++XqHB0vPmQMadQsDrfpLB4IHv
QJGdYMCoH6bBKCjiQEa9P8ANvK/BhrMGQfY1QUCwwpHBfk8IQeZ1oEABoIXBiQqdQKRmIkCi+pzB
9NsXQUSuMEBKZH3B7gYsQaBmgkAAUY3BAmgoQbY95T9bE7PBPx8YQeFgaUB1EojBMiMWQY3yq7+e
TZrBY/WHQDIZKD/QHrbBFh+0QHSimL94nb3BBNAGQXfExj57OI7BjSclQVnZML/O/avBDHatQFzM
9r68GpbBdKMYQcLBXEAm1KTB46moQB4EiUBaWYzBywzLQKmkTUA6ooTBM2f2QBWhikAFEqTBGU/E
QO+poEC1rJ/B0XoFQZxsukCoLJXBr83bQKicvkAkBo3BTvHCQL4stT+8IpLB08KPQCMz9z+GD43B
fgHYQMPjBUANA6XBziChQMuZI0A+ULPBfQ6dQDAEiECSpq7BvFzOQK0TakD/T7TB/eHEQC+5eMAB
+4TB53CjQL98QsAdgI7BxOy4QF0YlcBCmpHBC2IjQavqvUCqB33B4IQRQZXF4UDeUoXBTyIKQXGz
y0B1KHHBOClbQHXB8D/o7afBQJpWQKi3jj978ZrBqlYBQRFDbcAogZHBdzHtQBePBcADZ47Bbtrp
QPWEV8CF6LbBL4OKQMZeVkC9ZJzBQKEgQQCJ0j8hWqrBhKmlQFDhcr3S/K7BVrC7QJiEor/FuLDB
aEIYQZJjI0Cx1aLBLlMfQfvWhD5FcajBYAagQAoZFL9I45vBqv4MQWk6MT8+hZfBaWu2QMOS479z
tZ3BbQaYQKz3lz5nkaTBxefDQJmDB8Cq/KfBWOANQSFGBUDIg5nB0rkVQX4BX74I+p7BGvXDQOk1
OMDYvpbBHsG/QKrmXEAd14zBx4TaQKwNiEDv3J7Bud/3QNyPqEAA8I3BzGSqQInTEUCbpJLBMNTC
QNjiREC1baTBjb3nQGCRfUDoBZPBJvm0QL8VZEApr6/BeEznQJ6QJcDC64TBuOMRQabMvUDJBHzB
RjiBQM5pzz+4vaLByuS9QMkPP8C8xIrB87vXQDI7ccCgtZzBNSPYQJbsVcA/JKfBxmkGQSLxPkDP
yZHBWt0HQThIm0BmboTBI0+dQP4vKkAUsJ3Blq8WQdWBIUDXhn3BGL8rQY2cfUB/RozBGhsVQasp
xr9oBZ3BAIgXQXH0X0C/iofBpw0oQTmtAECtlbHBMyefQIyGGT/torXBUyHGQO14xb+5qbjBmcYZ
QTJhZ0BeMaTBR60lQSH6376FOq7BLQqVQBrSp7798ZPBoqAFQYN4pj4vR5DBXpKoQJDGiEB9G4zB
6KnJQBzUR0BK0YTBsKn3QIgvj0DudqPBvVDFQFEmpEDA7J7BRXAGQczbuUBFhZPBWsvcQMssvUCS
sIvB2RzBQKBVuD+pFJPB19+NQLLo+z9ZH47BqhLZQM/KDkDVUaXB5AmkQK83MECE3bPBqZefQAfQ
jUCc3a7BanbRQNKRdkCxTrTBX3HiQCbVKsC/dXjBGbUAQaV0UMBdYofBO6fvQKJWxr8v+IbB8Jci
QYFGtUATeXjB3HsRQSnu20DpjYLBlAUJQfPMwUC68mzBBQBsQFUWAEBigarB4C1LQPfbuD9ueZ3B
QtajQMkjFMBLRojBOJm1QI62gMB5sIjBDCvlQDwOdsDPPq3BQBWLQCNsXkDj6JzB+BwVQTvmab5j
8Z7Bl8elQHKqfr2s/a7B9Mu7QF/9or93srDBR6UMQYlmLz8CdJfBIdweQZV7ej5SZKjBoPCfQMXn
E79545vBPkgYQX2oIkDutaLBu1S2QAWS479brp3BjBCYQF6/lz45laTBNe/DQIKhB8AT8qfBg9UN
QbjFBEDGaJnBoGogQSba0D+SRarBiMTDQBglOMA9spbB0bO/QNkNXUAP24zBqsbaQLvph0B43p7B
lPv3QKqBqEBa743BuFmqQHn1EUDkqJLBUA7DQC+nREBvcKTBjNDnQBxwfUAdApPB5V21QIHIY0As
tq/BUtnmQAS6JcD51YTBJ+oRQXrMvUAHAXzBa1KBQBOOzz8HyKLBh369QMftPsCOuYrBHqPXQLY0
ccBropzBAy7YQCsBVsDtEafBrmUGQb6lPkBQt5HBGOEHQXJDm0CKaYTBXm2dQL81KkCSuJ3BoKUW
QbyDIUCrYX3Bn78rQeQ2fUAcO4zBqtYpQcsGBkAqSrPBToUXQcfJX0DhfIfBnCEUQfkkpb/CcJ3B
iFafQJx1GD/pprXBY0rGQHk0xr8oobjBej0FQY6NpD6iNZDB5h8lQQbs6L50Lq7BIt2UQBS1pr7x
9JPBDwkaQQKdZkBNBqTBi5CoQFToiEDcKIzBAnfJQHcUSEBU0YTBUgH4QIPsjkDRcqPBLafFQHMR
pEDv9p7BPIYGQYO6uUCGhJPB0+vcQLstvUAotYvBpAfBQIRvuD9EEZPBtsGNQBJ+/D9hKI7BvD7Z
QDlxDkDzTaXB32qkQGDyL0Ac5bPBSwugQO23jUBH667Beu7RQLESdkBYUbTBWtfhQAvxKsCuTHjB
g3YAQXjQUMBrRYfB9VvvQDvLxr+x4IbBV5siQQc8tUBJbXjByYsRQZ3k20AbkILBrQcJQVHkwUAc
82zBfGRsQI0gAEA/jqrBCURLQAdNuT9qh53B4XmjQHbPE8BEQojB8wq1QCidgMD/pojBr07lQCAu
dsA6KK3BlD+LQOiIXkD395zBxfweQUJd5j8Q7KzBuPa9QL/N4T4ZfrDBO6/aQL8KI787u7HB458W
Qbr8JEDTgaTB91shQV120T4cpqvB79ilQP0C/L6UZ5/BU64SQYgpEj+Ck5nBTonEQIbCwb8Ua6DB
lT2jQD1VAz8WXqfBz4ndQBbKzb9ym6nBYkwQQbnN+z8DzJrBsmsbQU7sTb7e76HBdFLSQB/KJsDn
ZpnBRIbGQCbJ8j8IJJDB0cLUQIIEhUDhNZnBHRLkQPhZc0DZP4XBXz2YQD74EUDhK5PBj1+9QJPQ
W0CaiaLByjrkQD4PSUDwZpDB+omxQBexjkBuTqvB3S6WQM1cZcD1x47B9ZIDQZxFwkDqaYTB4eGE
QMB92D+S/6XBcDrCQFG6OcDUPo7BJTTvQOP0U8C7kZ7By9X1QFRgMMDSeqjBCRkJQQZVL0CUIpLB
6cgFQSH6kkDbhYTBX2yVQEMCMECQjJ7BfxwpQdOjTEBWSIXBiAMhQQiYnEAWQJTB770eQbv0wr9v
haDBY/0ZQb1kekCOOozBRZQjQVBOEUAOWrTBW168QJ1Cmz+bhbbBmj3uQN1PN7+s07jBkggVQdxg
aUAeeaXB47cnQUI1Qb6lGrLBhXeQQIbd8r4xnpjBj8sNQcwnwD1XOJLB8LXGQDMOvD9tCIjB/3vS
QJogkz8w3ZXBYL3wQOANlkBsbpzBAbC+QEsnnEAeiJXBWfXHQHGTjkDtYoTBQIjjQOQTQkBm7n3B
I3yDQGdksz8jJ5LBZ06NQDqeRUBN2o3BVxjTQN/CK0CX+6XBTP6gQCt8fEBL5bHBsFucQFJLp0Cg
56fBE9jOQOvjnUBTXK7BBM6KQJTScsARoIbByad+QLLKOsAP15LBp+WYQGDZkMCjQ5PB1OkPQTyS
0EAikonBH0PnQKAuy0ATZ4fB14gFQY0dzkC1XnjBnft+QP95CUC/463BErVMQPBEqD+60aLBY//Y
QFtjZMDDK4rBoW2/QJj2+r8vv4nBZrIEQRokSMBKEq7BeNt9QP6GXUBVh57B7mIhQSuNDEDlda3B
AFnBQJL2iz6tsa3B12TYQM7Ab78k1KzBJsAYQbnYOECBpaTBvAojQazASj/nNa3BJXGUQI0HzL4g
jZ7B/n0TQWxqRT9dR5vBVgCtQI7VyL/Jcp3BnjufQKDHCz8okqbBOzHOQLiD678GkaTBFrYRQeaH
C0ASfpvBmhkcQUgSoj10H6TBnMarQI1dLMC47JXBNz/IQMUa+j8FVJHBHwvWQHsyiUAaL5nBWtTj
QEw/ckDpVIXBc/6ZQM2gGEB6/JPBZvO+QFIYaEAJ36LBCnnlQF6yTUBvzZDB4MWyQB/alkDJG6vB
gkGmQHbqHcBEAYLBE2UCQfQtwkAm/oLBBouHQFQW8D+1JKfBX4yOQKakNsBIWYzBC/LJQFa5YsCi
tZjBIBLfQFYERMB9i6HB6fAJQY0vN0BheJLBhEUFQQYsk0CM9IPB3jaXQKfDOUBCPp/BKF8pQVWb
UkD9JYXBtrcgQdnQokAwP5PBoKodQcObor8M56PBDAkaQZ3QgECO1ovB5L0mQbuHL0AyarTBUcLJ
QCnHfT/ey7PBOZjxQEJflb9IcrLBFH4XQV/CfUCQ36TBk6ApQVH2hT6E+rPB4A5zQP5qYb5zUpnB
5z0OQbGDYz4TUZTBXLvIQLMkuD/3jYnBEA7UQAgFoz/SlJfBsgTyQCALm0DQHpzBNMW/QP9in0AD
OpXB5xrHQN4MjUD8TYTBcWPjQIvVPUBV6n7Bh5KEQOtlwj83HpPBwhGQQMlcS0CfaY7B+/TUQE1O
OkDsqqbB0nSiQHjqh0Ar9LHBCkmdQINKrkCMVafBUenPQF8jp0Cf5q3BKqmQQHavJcBkP3bBA1fC
QFmPR8Ar+4DBeLiwQDumtb/KhILB0rUOQfSg0kB5v4fBTOLkQKUay0A994XBXuUDQfqiy0BnGXXB
i2uLQCA/EkDgQK/B4NZKQPEw2D9OlaXBDehkQGH5DMBLVo3BkRKEQJy1ecCszIvByin3QLDfYcBD
QqXBwFqAQEuGZkCEDp/BEg8cQdgcgz14CKTBbGnBQDzWij45qK3BIHLYQH9ZcL+nwqzB2F4TQVgW
Qj88OpvBOy4jQasQRj/iGa3B7UaUQHy3y75ZjJ7Bn+IYQarhN0AzlaTBjsCsQBXxyL+nbZ3BVzOf
QAGhCz98kKbBsQrOQBDS678ChKTBCq4RQdO3CkBIdJvBL6chQeZ9C0BvW63BPl+rQBBnLMCZ55XB
6SbIQJDs+T8oUJHBPTPWQFQViUBuL5nBLuXjQB0XckBtU4XBXfOZQDHAGECF/ZPBnRS/QAr0Z0Cy
36LBv37lQLlvTUDFypDB6QKzQKLNlkBSHavB4tClQP/fHcAx/YHBcIsCQbMBwkBpAIPBkZSHQCwp
8D/cJqfBWxaOQJR1NsAuVozBc4HJQE/nYsBtq5jBC8neQBZDRMBxfKHBle4JQWGdNkDEcpLBZlkF
QXT5kkAm84PBJEaXQKPOOUDrQJ/BGmMpQXrDUUDZIYXBYdIgQUZookAMPZPBQK8oQcxwN0AXALbB
2BUaQTd2gECE04vBJkIdQVysgb8y1KPBLujJQD7ufD+zwrPBUsjxQOCklb8dV7LBe/wNQWv0Vz5J
SJTBU80pQbt/dj7e2LPBkqhyQMzKXr6nVZnBfqcXQY3MfEDM0qTBPI3IQGIiuD+SiInBBe7TQIWQ
oj8JjpfBij3yQLDVmkBeHpzBvfq/QINan0DjPJXBWDzHQFoSjUCZToTB+VrjQLW5PUAw5H7BFnSE
QM7gwj82H5PBow+QQGOVS0BCbY7BDAvVQB4OOkBaqqbBsqyiQP7mh0Aq9rHBt5KdQKFMrkBEWKfB
mDLQQIsDp0Ay563BnTCQQNh4JcDQOHbBftLBQPK3R8CR9YDBFGewQMK4tb/zgILB0uIOQVZb0kDm
wofBTzblQN4Dy0BW+oXBLA8EQdJ+y0BfH3XB+IKLQLQ3EkB1Q6/BzuFKQDeB2D9hmaXB9yNkQGqX
DMADVY3BZn2DQPtyecChyYvBteP2QHA4YsC4LqXBVnWAQEipZkDYFJ/B

>  <OMEGA_E>  (13) 
/DztPugi4j7G8DE/pD4nP9BmJT/cJCM/4icfP75BMz9SVjw/PEk9Pw==

>  <OMEGA_NBR>  (13) 
     68202

$$$$
50220593
     RDKit          3D

 62 65  0  0  1  0  0  0  0  0999 V2000
    9.9572    1.4113  -21.4165 C   0  0  0  0  0  0  0  0  0  0  0  0
    5.1153   -0.7659  -19.6774 C   0  0  0  0  0  0  0  0  0  0  0  0
    5.6968    0.2523  -21.8192 C   0  0  0  0  0  0  0  0  0  0  0  0
    9.4742    2.4332  -20.5800 C   0  0  0  0  0  0  0  0  0  0  0  0
    5.9320   -1.8710  -19.9828 C   0  0  0  0  0  0  0  0  0  0  0  0
    6.5253   -0.8322  -22.1141 C   0  0  0  0  0  0  0  0  0  0  0  0
   10.0717    0.0953  -20.9246 C   0  0  0  0  0  0  0  0  0  0  0  0
    9.2545    0.8295  -18.7509 C   0  0  0  0  0  0  0  0  0  0  0  0
    4.9941    0.2926  -20.6011 C   0  0  0  0  0  0  0  0  0  0  0  0
    9.1138    2.1366  -19.2518 C   0  0  0  0  0  0  0  0  0  0  0  0
    6.6617   -1.8905  -21.2015 C   0  0  0  0  0  0  0  0  0  0  0  0
    9.7211   -0.1914  -19.5893 C   0  0  0  0  0  0  0  0  0  0  0  0
    8.3983   -3.5959  -20.7058 C   0  0  0  0  0  0  0  0  0  0  0  0
    6.3880    2.2105  -17.8440 C   0  0  0  0  0  0  0  0  0  0  0  0
    6.6596    4.1525  -19.5247 C   0  0  0  0  0  0  0  0  0  0  0  0
    7.1655    4.5197  -17.0766 C   0  0  0  0  0  0  0  0  0  0  0  0
    4.9204    2.4007  -18.1983 C   0  0  0  0  0  0  0  0  0  0  0  0
    5.9363    3.1270  -20.4024 C   0  0  2  0  0  0  0  0  0  0  0  0
    7.2059    3.4871  -18.2275 C   0  0  1  0  0  0  0  0  0  0  0  0
    9.7894   -3.9664  -21.2249 C   0  0  0  0  0  0  0  0  0  0  0  0
    5.5000    3.8239  -21.7055 C   0  0  0  0  0  0  0  0  0  0  0  0
    8.7546    6.1654  -16.0675 C   0  0  0  0  0  0  0  0  0  0  0  0
    4.0690    1.4517  -20.3238 C   0  0  0  0  0  0  0  0  0  0  0  0
    8.6497    3.1421  -18.4240 N   0  0  0  0  0  0  0  0  0  0  0  0
    8.4886    5.1375  -17.0902 N   0  0  0  0  0  0  0  0  0  0  0  0
    7.5769   -2.8768  -21.5642 N   0  0  0  0  0  0  0  0  0  0  0  0
    4.7295    2.6091  -19.6675 N   0  0  1  0  0  0  0  0  0  0  0  0
    8.1546   -3.7284  -19.5119 O   0  0  0  0  0  0  0  0  0  0  0  0
    9.6734    3.0713  -16.0470 O   0  0  0  0  0  0  0  0  0  0  0  0
   10.8393    4.4243  -17.9288 O   0  0  0  0  0  0  0  0  0  0  0  0
    9.8634   -1.4365  -19.0940 F   0  0  0  0  0  0  0  0  0  0  0  0
    9.6407    3.9013  -17.2596 S   0  0  0  0  0  0  0  0  0  0  0  0
   10.2401    1.6344  -22.4346 H   0  0  0  0  0  0  0  0  0  0  0  0
    4.5831   -0.7289  -18.7383 H   0  0  0  0  0  0  0  0  0  0  0  0
    5.5953    1.0615  -22.5272 H   0  0  0  0  0  0  0  0  0  0  0  0
    9.3800    3.4416  -20.9550 H   0  0  0  0  0  0  0  0  0  0  0  0
    6.0036   -2.6998  -19.2941 H   0  0  0  0  0  0  0  0  0  0  0  0
    7.0643   -0.8571  -23.0497 H   0  0  0  0  0  0  0  0  0  0  0  0
   10.4280   -0.6934  -21.5706 H   0  0  0  0  0  0  0  0  0  0  0  0
    9.0034    0.6136  -17.7229 H   0  0  0  0  0  0  0  0  0  0  0  0
    6.4805    2.0310  -16.7626 H   0  0  0  0  0  0  0  0  0  0  0  0
    6.7856    1.3452  -18.3946 H   0  0  0  0  0  0  0  0  0  0  0  0
    7.4997    4.5819  -20.0903 H   0  0  0  0  0  0  0  0  0  0  0  0
    5.9556    4.9519  -19.2503 H   0  0  0  0  0  0  0  0  0  0  0  0
    6.3836    5.2721  -17.2570 H   0  0  0  0  0  0  0  0  0  0  0  0
    6.9795    4.0213  -16.1138 H   0  0  0  0  0  0  0  0  0  0  0  0
    4.3600    1.5060  -17.8892 H   0  0  0  0  0  0  0  0  0  0  0  0
    4.5346    3.2791  -17.6603 H   0  0  0  0  0  0  0  0  0  0  0  0
    6.6178    2.2968  -20.6397 H   0  0  0  0  0  0  0  0  0  0  0  0
   10.4101   -4.3226  -20.3896 H   0  0  0  0  0  0  0  0  0  0  0  0
    9.6992   -4.7615  -21.9796 H   0  0  0  0  0  0  0  0  0  0  0  0
   10.2589   -3.0813  -21.6790 H   0  0  0  0  0  0  0  0  0  0  0  0
    4.9776    3.1022  -22.3507 H   0  0  0  0  0  0  0  0  0  0  0  0
    4.8241    4.6582  -21.4665 H   0  0  0  0  0  0  0  0  0  0  0  0
    6.3869    4.2093  -22.2298 H   0  0  0  0  0  0  0  0  0  0  0  0
    9.7059    5.9429  -15.5620 H   0  0  0  0  0  0  0  0  0  0  0  0
    8.8171    7.1530  -16.5480 H   0  0  0  0  0  0  0  0  0  0  0  0
    7.9391    6.1677  -15.3294 H   0  0  0  0  0  0  0  0  0  0  0  0
    3.6450    1.7921  -21.2800 H   0  0  0  0  0  0  0  0  0  0  0  0
    3.2591    1.0986  -19.6685 H   0  0  0  0  0  0  0  0  0  0  0  0
    7.6495   -3.0876  -22.5391 H   0  0  0  0  0  0  0  0  0  0  0  0
    4.0616    3.3506  -19.7310 H   0  0  0  0  0  0  0  0  0  0  0  0
  1  4  2  0
  1  7  1  0
  2  5  2  0
  2  9  1  0
  3  6  1  0
  3  9  2  0
  4 10  1  0
  5 11  1  0
  6 11  2  0
  7 12  2  0
  8 10  2  0
  8 12  1  0
  9 23  1  0
 10 24  1  0
 11 26  1  0
 12 31  1  0
 13 20  1  0
 13 26  1  0
 13 28  2  0
 14 17  1  0
 14 19  1  0
 15 18  1  0
 15 19  1  0
 16 19  1  0
 16 25  1  0
 17 27  1  0
 18 21  1  0
 18 27  1  0
 19 24  1  6
 22 25  1  0
 23 27  1  0
 24 32  1  0
 25 32  1  0
 29 32  2  0
 30 32  2  0
  1 33  1  0
  2 34  1  0
  3 35  1  0
  4 36  1  0
  5 37  1  0
  6 38  1  0
  7 39  1  0
  8 40  1  0
 14 41  1  0
 14 42  1  0
 15 43  1  0
 15 44  1  0
 16 45  1  0
 16 46  1  0
 17 47  1  0
 17 48  1  0
 18 49  1  6
 20 50  1  0
 20 51  1  0
 20 52  1  0
 21 53  1  0
 21 54  1  0
 21 55  1  0
 22 56  1  0
 22 57  1  0
 22 58  1  0
 23 59  1  0
 23 60  1  0
 26 61  1  0
 27 62  1  1
M  CHG  1  27   1
M  END
>  <OMEGA_C>  (14) 
oFAfQdCktD/3VKvBhLCjQNsTRL87a53BmEy2QFYwgT6sja7BJpYXQZm5G0DYo6TBRNO9QGx777/R
3J/BEM/QQOEHVb/G6bDBqCUhQdhEwz2OZafBURIUQftbVD/IAZbBENCfQGrLlT4Hz6TBItIRQXO+
CECYA5rBfizVQLf88b+0nKnBy4kbQcgFRL72tpzBS18GQZEiZsB1paXBkmrMQD54DUBpwI7BphvV
QA7hhECOMpzB1EvlQMKhkEDdnIjBUHSdQMakGUAXlpHBfva9QEIhSEAmOKPBjJbmQP4sX0D60ZHB
R6EcQeLYfcCIzKnB9v+vQN66dEDqpK3B+RIMQeZKxUBKioDBMDWCQLbQuT8hl6LBVWUKQWwYSUBC
ZJPBe9EHQbNmpEDLuIjBVnbyQKAdOMCEg6zBFFiXQPX7JkASV53BQHkCQX+dbsBPGJzBOsYaQSqQ
REBMYIDBqm0tQR+UjUAZbo/BU9AdQeret7+cwJjBVEAaQTqveUC5E4rBZNcjQdM00T8UerPBZqiS
QAGbOr8g6JXBCQ2zQP/fhz+xN7TBahQWQX9DXEDZo6fBeR3AQOnILMBKWprBuA7iQHFsW7/CZbjB
INkmQfyDMb+EkKzBFQ4QQfoXHT9yyI3B21/PQGf7AUDiGYbBhCPZQGgurD8ZKJPBPP3vQI2ekkAF
uaDBaZS+QAB2nkCjAJrBtEbMQHC1qEBrDorB1FffQCiugEAj6YDBV4WLQDfGwD//HI/BUxuRQEPd
UUBGSI3B5MTTQDH+EkAPHqXB0o8mQQNTisDNHaPB5C8bQd5dmMBR1q/BZCQkQbgzRcB/bq3BLUif
QOuKRkA5zrLB6F6aQLEPlUBLu6vBiWHMQECyhkCv1rHBaUsbQesrvkD6/XjB7xINQfjk5EA9YoTB
4gz+QLZdxUAjRXXBHEdpQHRi5T9zParB2ZRQQMKdjD8rWZ3BdMj0QHibRcD6T7TBV/iBQMJwVkAe
2Z3Bo+QaQaDevL3NKKDB1JiZQCYaHb/1Kp3Bzua8QHDMED7kf63BvEsTQQz0Rz+tNJjBMeGwQC0p
578PeZ3BZHvUQLQPh79Zz63BZ04hQUDX1j6pKKrBhDQYQWU9K0AOTqTBMHmfQBiNtz7hIaXB3rkR
QT9wCkAfUprBNRLPQKToAcDbvaXB4gwgQeTy5j+eNKzBXqrzQJpagMCWoJ3BJEzKQF14CEDFM4/B
aW/WQCxZhkAkN5vBH6TkQO6kikBnW4fBKxCcQAdxGEC1mJLBE4/AQI1wUEDwOaPB6xPmQHEDWkA2
L5HBLYkPQRSxlsD6up3BIa+0QLxpgUBKYa3Ba30KQcw+wUCWOX7BivWEQE6bzj+Jt6TBmAgKQakt
QUB7eJLBC5AGQSLuoUCbvIfBAcvqQMoPSMBp+aXB+biYQAHlLEDOTJ7BGoXZQKpRisA7v5bB0HUf
QYmNSkCnyIDBpgQrQf5ak0A2/5DBKogmQXE3E0DJubXB2JcaQU34fEBnZ4rBq88bQf6Yk7+Fm57B
vf+CQDgP4b7px5bBYU7BQMm3Yz8ForPB4qkOQZ2syT7QepDBqtyrQL+0I8A+ZpfBddfqQFB1nb9h
P7TB2DEnQZubf76FRLDBgiUXQUkQb0BL4qXB+BfLQLuO8D/0o4bBtmnXQGPMpT9Z4JPBSRTyQJik
lUCHGJ/Bw4O/QEkQn0AarpjBbGnJQHHZoEC/44fBKC3iQMi8b0DB4H/BgBCJQPF1vT9E6ZDBCESP
QP6RTkDI943BuIzWQKwfHED9VaXB1kIQQbsJrsCJJ5fBybMRQcNWp8BzaKXBWUwcQaeafcCTtJzB
DAClQO3FV0A3IrPBRrWeQHuVm0BVRavB4dvRQDHKjkBh/rDBf4QaQWn+u0CycXfBc30JQVrc4UBf
YoLBQMT8QK44vUAcnHHB+VyAQHRH/T+E8KzB32RLQBIdrz8ML6HBh/X5QFfjUsAz46zBTKiDQGv8
XEC3qJ7BzO8gQadlEUBg/a3B4TOYQGHjDb+hM53BqV7FQDmGxD38M6zBGzQYQTsVPkASO6XBpSKx
QPyx2b9xkpvBp5/dQHGBir+OzarB9AokQb0QYT9mXq3B2rwVQX/jYT/eLZvBKJKiQGhcuj7iWKXB
k4ASQY/jEUC2w5vB1mDUQPlg/b9nWaLBrHQeQR5+PD4F96PBaTftQEEwhMDHg5nBTqTLQNkd9z/9
2ZDBSg/UQMgoiEACWpnBfjvlQFbcdkAMhoXBBmScQMfiEECxTpPBSlC9QIsVYUDqtqLB9oDmQCCf
T0Ci25DB3gwHQThEqMD2VprBexuuQN2EkUBhGqvBO+cAQRu0xkCKGoTBeDGJQBUK1D+lSabBc6QK
QeIvPkDbz5LBVTIFQaoFmEBssoTBHHLuQKi/R8AeT6HBYH+XQDgBL0BSq57BOxrWQCAMg8A9mJHB
S3AqQZL9ZEClKYbBoxsfQcPKqEAslJTBDXAhQb3Dk7/0YaPBsfkZQYYfh0DHxozB90AlQQOEM0Dk
L7XBg315QBO1vr4LKZjBJ3HNQOtASj/igbLBLdgVQZ43gUBpvaXBr3KpQOgUGMBQHJXBh4n3QASY
pr9NPrDBwbMqQd0esD4gGLTByYQRQZrMsT4T+pPB6uLNQD+9uT+Y84jBrBbYQH6Fnz+c/5bBTonu
QKBam0B3m5zBOeG8QGtgnUDwYpXB+nPHQEeljUC+ZITBdUDnQL8PREBz537BocmIQPhprj92G5LB
WXuRQPifQ0DB2Y3Bc0bUQEIvNUCNgabBauEFQVzuvMBiPZPB/uADQT1Pu8CgkaHBmjkXQTqEmsCC
zprBJAeeQAfKgEBkuLHB95uXQM4HqEAFWKfBY9zJQKA6o0CGN67BcFoMQevq10B/N4nBdwbhQF4t
zUD03obBnKgCQRKZ0UBWkHfBr5SMQKVLAkAhga7B+qlOQJd5tz+NraTBh4ICQZSKTsBR6qbB4q1+
QCPzWEDve57B

>  <OMEGA_E>  (14) 
VI8iP1jfJD9eyUw/

>  <OMEGA_NBR>  (14) 
     71530

$$$$
50220680
     RDKit          3D

 52 55  0  0  1  0  0  0  0  0999 V2000
    6.4761   -1.8921  -21.6753 C   0  0  0  0  0  0  0  0  0  0  0  0
    5.9411   -0.8932  -22.5132 C   0  0  0  0  0  0  0  0  0  0  0  0
    6.1729   -1.8944  -20.2994 C   0  0  0  0  0  0  0  0  0  0  0  0
    7.5768    5.4246  -15.2794 C   0  0  0  0  0  0  0  0  0  0  0  0
    5.1167    0.1127  -21.9718 C   0  0  0  0  0  0  0  0  0  0  0  0
    5.3422   -0.8936  -19.7592 C   0  0  0  0  0  0  0  0  0  0  0  0
    7.9711    4.3474  -16.0967 C   0  0  0  0  0  0  0  0  0  0  0  0
    7.5660    6.7352  -15.7965 C   0  0  0  0  0  0  0  0  0  0  0  0
    8.3489    5.8927  -17.9501 C   0  0  0  0  0  0  0  0  0  0  0  0
    4.8323    0.1313  -20.5870 C   0  0  0  0  0  0  0  0  0  0  0  0
    8.3554    4.5762  -17.4390 C   0  0  0  0  0  0  0  0  0  0  0  0
    7.9512    6.9693  -17.1325 C   0  0  0  0  0  0  0  0  0  0  0  0
    6.9921    3.6742  -20.0614 C   0  0  0  0  0  0  0  0  0  0  0  0
    6.8707    1.8445  -18.2364 C   0  0  0  0  0  0  0  0  0  0  0  0
    8.7558    1.8364  -19.9628 C   0  0  0  0  0  0  0  0  0  0  0  0
    5.7985    2.9185  -20.6581 C   0  0  0  0  0  0  0  0  0  0  0  0
    5.4363    2.4276  -18.2005 C   0  0  2  0  0  0  0  0  0  0  0  0
    7.8201    2.7294  -19.1224 C   0  0  1  0  0  0  0  0  0  0  0  0
    4.5568    1.7098  -17.1480 C   0  0  0  0  0  0  0  0  0  0  0  0
    4.0127    1.2733  -19.9991 C   0  0  0  0  0  0  0  0  0  0  0  0
    9.7558    1.3354  -19.0152 N   0  0  0  0  0  0  0  0  0  0  0  0
    8.7637    3.5211  -18.2634 N   0  0  0  0  0  0  0  0  0  0  0  0
    4.8289    2.4768  -19.5925 N   0  0  2  0  0  0  0  0  0  0  0  0
   10.0625    2.0164  -16.5260 O   0  0  0  0  0  0  0  0  0  0  0  0
   11.3654    3.2821  -18.3542 O   0  0  0  0  0  0  0  0  0  0  0  0
    7.9417    8.2276  -17.6299 F   0  0  0  0  0  0  0  0  0  0  0  0
   10.1731    2.5632  -17.8853 S   0  0  0  0  0  0  0  0  0  0  0  0
    7.1185   -2.6560  -22.0879 H   0  0  0  0  0  0  0  0  0  0  0  0
    6.1631   -0.8989  -23.5702 H   0  0  0  0  0  0  0  0  0  0  0  0
    6.5776   -2.6639  -19.6588 H   0  0  0  0  0  0  0  0  0  0  0  0
    7.2826    5.2458  -14.2558 H   0  0  0  0  0  0  0  0  0  0  0  0
    4.7005    0.8723  -22.6168 H   0  0  0  0  0  0  0  0  0  0  0  0
    5.0942   -0.9097  -18.7082 H   0  0  0  0  0  0  0  0  0  0  0  0
    7.9801    3.3438  -15.6977 H   0  0  0  0  0  0  0  0  0  0  0  0
    7.2626    7.5605  -15.1695 H   0  0  0  0  0  0  0  0  0  0  0  0
    8.6498    6.0749  -18.9712 H   0  0  0  0  0  0  0  0  0  0  0  0
    7.6382    4.0332  -20.8760 H   0  0  0  0  0  0  0  0  0  0  0  0
    6.6242    4.5323  -19.4798 H   0  0  0  0  0  0  0  0  0  0  0  0
    7.2685    1.8061  -17.2115 H   0  0  0  0  0  0  0  0  0  0  0  0
    6.8345    0.8275  -18.6540 H   0  0  0  0  0  0  0  0  0  0  0  0
    8.1951    1.0023  -20.4099 H   0  0  0  0  0  0  0  0  0  0  0  0
    9.2375    2.4229  -20.7589 H   0  0  0  0  0  0  0  0  0  0  0  0
    5.2750    3.5796  -21.3644 H   0  0  0  0  0  0  0  0  0  0  0  0
    6.1693    2.0313  -21.1924 H   0  0  0  0  0  0  0  0  0  0  0  0
    5.5346    3.4698  -17.8625 H   0  0  0  0  0  0  0  0  0  0  0  0
    3.5484    2.1492  -17.1510 H   0  0  0  0  0  0  0  0  0  0  0  0
    4.4910    0.6396  -17.3937 H   0  0  0  0  0  0  0  0  0  0  0  0
    5.0061    1.8302  -16.1512 H   0  0  0  0  0  0  0  0  0  0  0  0
    3.2777    1.5935  -20.7522 H   0  0  0  0  0  0  0  0  0  0  0  0
    3.4860    0.8974  -19.1095 H   0  0  0  0  0  0  0  0  0  0  0  0
    9.3807    0.5489  -18.5245 H   0  0  0  0  0  0  0  0  0  0  0  0
    4.1623    3.2205  -19.5422 H   0  0  0  0  0  0  0  0  0  0  0  0
  1  2  2  0
  1  3  1  0
  2  5  1  0
  3  6  2  0
  4  7  2  0
  4  8  1  0
  5 10  2  0
  6 10  1  0
  7 11  1  0
  8 12  2  0
  9 11  2  0
  9 12  1  0
 10 20  1  0
 11 22  1  0
 12 26  1  0
 13 16  1  0
 13 18  1  0
 14 17  1  0
 14 18  1  0
 15 18  1  0
 15 21  1  0
 16 23  1  0
 17 19  1  0
 17 23  1  0
 18 22  1  1
 20 23  1  0
 21 27  1  0
 22 27  1  0
 24 27  2  0
 25 27  2  0
  1 28  1  0
  2 29  1  0
  3 30  1  0
  4 31  1  0
  5 32  1  0
  6 33  1  0
  7 34  1  0
  8 35  1  0
  9 36  1  0
 13 37  1  0
 13 38  1  0
 14 39  1  0
 14 40  1  0
 15 41  1  0
 15 42  1  0
 16 43  1  0
 16 44  1  0
 17 45  1  1
 19 46  1  0
 19 47  1  0
 19 48  1  0
 20 49  1  0
 20 50  1  0
 21 51  1  0
 23 52  1  1
M  CHG  1  23   1
M  END
>  <OMEGA_C>  (15) 
LDzPQK0x8r8dZ63Bwh2+QLCrZL8TG7TBMojFQKJ68r9EZaLBMHXyQCiWrUCWeHTBZLyjQJq+5j0m
xq/BhvOqQBvBZL/wEp7BMhP/QL8di0AixoDBZRzyQM+G10B1vnzBBpUFQaWQvEDSmY/BVKKaQGFn
Bj4XsqTBo68FQXpwkkD+govBK3D+QNwE30BTD4nBGL/fQHkla0DNfaDBkdzbQH8Y7D8Y5JHBnhcM
QXEP6z+5s5/BHI25QALIOkDZQ6XBSPatQFtdG0CHmpHBiT76QBOvLkCk+pjBR9GRQFna2j8iL4nB
s2eAQJb6oj8P/p/BwBccQZ7tqj8bH5jBTjgMQchZYUCFG5LBkIaaQK2DHkCAvZzBMQAhQQcNAUBD
NYTB09g1QdgNUkB81ZLBpyL+QDmkA0H2CY3BF8UiQSQMJEAyFY/B98rjQI77KcAbtLDBCTjFQCYd
Zr+rj7zBuXvSQKx8KsAkRZ3BBwvpQODdp0CnF2TB0WqWQOJRXz8s77TBZgOjQJzhaL98qpXB+lz/
QJkBVkDEKXvB8GboQPrv8UAltnLBY2UKQallwkANxZfBLWz0QD4QgUAeAqfBsPnTQKUIkUCm1pvB
O5foQNQu5z86sYnBabTaQMjWUz9eO5XBGx8DQQpMgD99R6PB/cwTQWoRG0BDEqbBvsyoQN0YZUBE
6qrBA2vFQDkBAkAXiqnBYxuxQG4QXkBu5o7BdBhjQByMCUA4NYnBn7aPQL+8Iz9WJovBXTKgQEVE
6j+3NYHB6MVRQGr5yz+NBKbB2RpfQKG6ZT804JjBdxcWQfCEDD8pMpTB4TGFQOQcTkByVpzBu/3O
QBbt8r+iTK3BqPu9QKpvZr/fB7TBMDbFQDGo8r/VS6LBMLb+QPw330BHJYnBHqWjQGwp3z1Iu6/B
I7CqQG4zZL9sAZ7BX6kFQWK2vEC5ro/Br2byQJ7Q10DV6XzBpCj/QOJai0Bj14DBJnyaQIxwBz4O
qKTBc7gFQcyXkkAhlIvBW63yQNXerUCdm3TBHM/fQOkFa0Dnh6DBd8DbQG237D8Z4ZHB6Q8MQRhe
6j8irp/Bp5O5QN2yOkBaSqXBpeGtQBHYG0BUnpHBCzn6QJOpLkAj/ZjB8qiRQAFm3D8gMInB6E6A
QCqPoz9P/Z/BXQgcQXRZqj8uFJjBoDsMQVxtYUCGJJLBgX6aQDnHHkADw5zBYuAgQYMiAUBLLYTB
BNs1QRuSUUBuzZLB0wTnQF2vpkCkEWDB8rgiQcfjI0CeD4/Bo4XjQJiAKsAqk7DBdiPFQHO9aL+0
e7zBzg/SQNGKKsBZJp3BiHr+QIZZ/0C1U4zB7WaWQGsXXj8N6rTB87SiQMdlZ7+GmZXB6HYKQUt8
wkAK25fB4sHoQL9F8kBj5XLB8Vn/QKZ/VkCrSXvB3Ib0QIfegEDSDafBdBXUQGQPkUA955vBZHPo
QKA26D8/rYnBtYvaQHSwVD9tMJXBNBEDQS0lfz8NPaPBp80TQc15GkDoD6bBC+OoQKDwZEDo9arB
bWXFQELDAUAxiqnBNhKxQGKZXkCY8I7BG9RiQMZtCkAPO4nBdoGPQECrJj/cIIvBTAOgQGEZ7D+C
NoHBv6tRQAZvzD95B6bBu81eQHrlZz8c3pjBZQAWQdjXCz8EJJTBoDWFQNt4TkBBYpzBXKbEQIG5
DcA3/arBGWLJQNqPjL/+x7HBijGrQFDaB8Dus6HBTzIcQRpxwz/MxqrBTLe0QPik5T1BS6/BEMKW
QAuzaL/oKp/BMd8VQS9TJEBM46PBavMYQYy2PT77wKfB4NgIQS3CbD+l+ZbB7z6bQAQYUD4QBKbB
riYMQS1XEUD1+5nBh0QPQejW7L093J3BdPbCQFkRR0ANAIzBZoXTQI3gjkA9GJ3BbKvuQA9TqEDU
V4vBwJqbQP/DM0CR7JLBbtXBQCM/U0C/BaTBaIDkQDZIgEA+/5HBidmmQKWue0CvEq3Bm2SIQPqj
wj830KLBj+cFQbudmUDlAIPBU3gHQYUrVEBQ+ZLBQkuqQPgrEkAcQ53BshkrQY5Gh0DeCIvBPfsV
QRdRG0AEoYDBW4YMQTC/s7/v4prBcu4WQR1UZkBusofBZ5LUQBcgScDa56zBmt/cQGQUlr8v5LjB
ImOnQCbPPsDDjJzBb4kjQezj4D/vYLLB1Fm4QGQDeD/mebTBca2DQCFaVL/s/ZfBsncYQb0hZkCt
MKbBtuIdQdsEHb9eBa3BNGcBQRmWMT+CZo/B9nu4QJ6GaEDUtoTBH1nSQJVACkDqy4nB6ujtQF87
nkBweaHBHau5QKc3pkBz0pvB8Rv+QBvbwEAFVpDBnknRQB+ItUDJy4fBf16HQIDpA0Bp6o7BExuJ
QLjMbkBEMJTBTVfdQPgIM0B0wafBVa6ZQHXLSECLL7LBfXeMQJVykEDpkKnBLzO7QOQTk0A/6LHB
Y0V7QEpuBEBy86nBUS1aQPZGrj9LaJ3B9HwOQZB7skDIXoDBwIbAQI8vzT+6aJvBLHDEQC6DDcBU
jarBZmjJQArrjb9zerHBeD6qQKi8BsDDZ6HB22IPQQg3573S4p3Btlu0QBgR0z1WPq/BenuVQP2f
Y78MHZ/BShEJQceNbT/W/JbBVkwZQeS5Pz7Lt6fBV0oWQYyNJEBZ1qPBHFWaQHz4Vz6IEqbB2GwM
Qc2hEUD9+ZnBK8EcQTDPwz/Gr6rBcmvDQM7gQ0DODIzBkE/TQEXEjkA19JzBStTtQN2Mp0AEG4vB
WK6bQCSIMkA77ZLBFujBQJiRU0D8AKTB7oDkQG5Zf0Ar6ZHB/nqnQHp5fEDfHq3B6tSHQGgKxT+y
AqPBpvcFQTNomUDm64LBlK4HQRakVEDZ/ZLBsvapQAk8EkDLX53B/0MrQazihkBI2IrBvsoVQYCC
GkA4o4DBL48mQXIB6T/iCrTBiPgWQeDgZUCroofBK77UQH7oSMApQqzBAF/dQBjvmL9Uf7jB3B6m
QNQcPcAELJzB7KEMQf4Zkr91o5vBciC4QNPCcj/uibTBMN6BQMVwTL9rCZjBS6YBQfpgMj8RaI/B
4D8eQZiBHL9G+6zBCuUYQV1ZZkBVJKbBHVi5QN4OY0C0koTBNgDTQFaGBkBEMYrBEontQGiZnkDm
SaHBSkS5QJLOpUBGlpvBYyb8QFLmwEAfDZDB6j3QQOeKs0AoZofBC1GHQL19AkCs/o7BgnWJQOYi
bkDnApTBPZXdQHhqM0CNqqfBvY2aQK7ZSUDpT7LB8O+MQLzSkEDfrqnBWiS8QHSIk0Dg2rHBvYl7
QJGqBUBgNarBzkpYQIP4sj/TsZ3BGpMOQZuLskC5eYDBhf2/QNbnyz+WoZvBJR6/QJ56d79I87LB
pf2pQKiXDD4RjbfBj1u3QGW+qL/gM6jBbLslQXFdpD8bCqjBjXSNQEYsZj8GYrHBq8+bQCLZB7+k
66HBoMofQXyoFkDaWaHBx5AfQYDE+7x0caXBg2ANQfAxSz/6e5XBxYOHQOIYGD+qe6bBOkgTQYaK
B0DmIJjBRnwTQSRkjb4pI5zB6w3JQLMaN0D2SY3Bwd/dQK4cakDH6aDB/5znQD5HpUD+iJDB1IKb
QL46PECeTpHB+ICwQMKVUUBgIKTBDxXoQPAAbUC3dZTBOyiVQF9IkECzhqbByoRtQALS1D+YQp/B
OlQCQX7upUAWYIfBul8KQXaMTUDqupLBl+udQO7tFkA98ZvB9+MoQUH0nEDl6Y7BFXgbQWG/VUCh
tn/B2JUNQd/0xL/hoZnBOt4XQTYOhUCkcYnB/FbVQGLaxb/9rLfBX7+vQNg/yz4s0L/B2YfGQFIx
DMDzzKTBkgYvQYtlvD++Kq/BrTB4QO3M2z9i/LTB/DWWQNcGSb88pJnBZtAkQb/5VkC4RqPBTxkk
QYvTWb9clqrBUScEQes3Gj8RV47BBErKQHLGT0CADYXBinLTQEKx5z9dX43BhcLzQN9sO0CBlKTB
lFvkQAUSlUBUMaTB9g7zQK/xukBc2pbBMyXHQG6/rkCJGI7B+tOFQLEyF0CWJYzBSJKQQPwSf0Dp
r5HBZPqyQDo/LUBdo6vBSWlpQNsphkCqz6jBoHWTQFKgpEB0W5/B3aijQBxzokBiIq3BhxBCQMzF
FUBckaPBDgBMQJV2nT+LVpjBoIkHQevYw0AXPobBMKyzQHWh0D+XQJvB

>  <OMEGA_E>  (15) 
/myHP1BPhz/8Yg4/6AMJPxwvOz8=

>  <OMEGA_NBR>  (15) 
     76202

$$$$
50220681
     RDKit          3D

 56 59  0  0  1  0  0  0  0  0999 V2000
    6.4836   -0.9736  -22.2816 C   0  0  0  0  0  0  0  0  0  0  0  0
    9.1359   -0.1722  -19.6070 C   0  0  0  0  0  0  0  0  0  0  0  0
    5.7302    0.1606  -21.9347 C   0  0  0  0  0  0  0  0  0  0  0  0
    8.7215    0.8939  -18.7865 C   0  0  0  0  0  0  0  0  0  0  0  0
    6.5358   -2.0780  -21.4118 C   0  0  0  0  0  0  0  0  0  0  0  0
    9.6980    0.0912  -20.8718 C   0  0  0  0  0  0  0  0  0  0  0  0
    5.0690   -0.9174  -19.8445 C   0  0  0  0  0  0  0  0  0  0  0  0
    9.3926    2.4852  -20.5126 C   0  0  0  0  0  0  0  0  0  0  0  0
    5.0232    0.1949  -20.7146 C   0  0  0  0  0  0  0  0  0  0  0  0
    8.8355    2.2250  -19.2447 C   0  0  0  0  0  0  0  0  0  0  0  0
    5.8208   -2.0680  -20.1965 C   0  0  0  0  0  0  0  0  0  0  0  0
    9.8311    1.4206  -21.3217 C   0  0  0  0  0  0  0  0  0  0  0  0
    6.1638    3.0757  -17.5036 C   0  0  0  0  0  0  0  0  0  0  0  0
    6.6035    4.3573  -19.6674 C   0  0  0  0  0  0  0  0  0  0  0  0
    7.4756    5.2475  -17.5005 C   0  0  0  0  0  0  0  0  0  0  0  0
    5.5852    1.9388  -18.3576 C   0  0  0  0  0  0  0  0  0  0  0  0
    5.9954    3.1793  -20.4613 C   0  0  2  0  0  0  0  0  0  0  0  0
    7.1812    3.9592  -18.2871 C   0  0  1  0  0  0  0  0  0  0  0  0
    5.3487    3.7875  -21.7275 C   0  0  0  0  0  0  0  0  0  0  0  0
    4.7204   -3.5474  -18.6489 C   0  0  0  0  0  0  0  0  0  0  0  0
    4.2085    1.4184  -20.3347 C   0  0  0  0  0  0  0  0  0  0  0  0
    8.4456    4.8700  -16.4818 N   0  0  0  0  0  0  0  0  0  0  0  0
    8.5236    3.2945  -18.4100 N   0  0  0  0  0  0  0  0  0  0  0  0
    4.9945    2.4615  -19.6114 N   0  0  1  0  0  0  0  0  0  0  0  0
    9.5773    2.5684  -16.1229 O   0  0  0  0  0  0  0  0  0  0  0  0
   10.7467    4.3612  -17.5695 O   0  0  0  0  0  0  0  0  0  0  0  0
    5.9132   -3.1872  -19.3838 O   0  0  0  0  0  0  0  0  0  0  0  0
   10.3959    1.6771  -22.5229 F   0  0  0  0  0  0  0  0  0  0  0  0
    9.5385    3.6959  -17.0632 S   0  0  0  0  0  0  0  0  0  0  0  0
    7.0232   -0.9975  -23.2169 H   0  0  0  0  0  0  0  0  0  0  0  0
    9.0232   -1.1911  -19.2672 H   0  0  0  0  0  0  0  0  0  0  0  0
    5.6924    1.0078  -22.6035 H   0  0  0  0  0  0  0  0  0  0  0  0
    8.3160    0.6938  -17.8058 H   0  0  0  0  0  0  0  0  0  0  0  0
    7.1285   -2.9410  -21.6771 H   0  0  0  0  0  0  0  0  0  0  0  0
   10.0270   -0.7257  -21.4970 H   0  0  0  0  0  0  0  0  0  0  0  0
    4.5302   -0.8918  -18.9088 H   0  0  0  0  0  0  0  0  0  0  0  0
    9.4832    3.5025  -20.8637 H   0  0  0  0  0  0  0  0  0  0  0  0
    5.3362    3.7134  -17.1593 H   0  0  0  0  0  0  0  0  0  0  0  0
    6.6751    2.6373  -16.6339 H   0  0  0  0  0  0  0  0  0  0  0  0
    7.4142    4.7962  -20.2675 H   0  0  0  0  0  0  0  0  0  0  0  0
    5.8166    5.1093  -19.5085 H   0  0  0  0  0  0  0  0  0  0  0  0
    7.8964    6.0160  -18.1656 H   0  0  0  0  0  0  0  0  0  0  0  0
    6.5567    5.6306  -17.0328 H   0  0  0  0  0  0  0  0  0  0  0  0
    6.3899    1.2316  -18.6071 H   0  0  0  0  0  0  0  0  0  0  0  0
    4.8051    1.4186  -17.7824 H   0  0  0  0  0  0  0  0  0  0  0  0
    6.7983    2.4891  -20.7595 H   0  0  0  0  0  0  0  0  0  0  0  0
    4.8985    2.9857  -22.3311 H   0  0  0  0  0  0  0  0  0  0  0  0
    4.5694    4.5056  -21.4322 H   0  0  0  0  0  0  0  0  0  0  0  0
    6.1181    4.3044  -22.3198 H   0  0  0  0  0  0  0  0  0  0  0  0
    4.9184   -4.4452  -18.0449 H   0  0  0  0  0  0  0  0  0  0  0  0
    4.4324   -2.7169  -17.9876 H   0  0  0  0  0  0  0  0  0  0  0  0
    3.9030   -3.7539  -19.3554 H   0  0  0  0  0  0  0  0  0  0  0  0
    3.8027    1.8648  -21.2545 H   0  0  0  0  0  0  0  0  0  0  0  0
    3.3798    1.0964  -19.6869 H   0  0  0  0  0  0  0  0  0  0  0  0
    8.9586    5.6824  -16.2046 H   0  0  0  0  0  0  0  0  0  0  0  0
    4.3307    3.1552  -19.3318 H   0  0  0  0  0  0  0  0  0  0  0  0
  1  3  2  0
  1  5  1  0
  2  4  2  0
  2  6  1  0
  3  9  1  0
  4 10  1  0
  5 11  2  0
  6 12  2  0
  7  9  2  0
  7 11  1  0
  8 10  2  0
  8 12  1  0
  9 21  1  0
 10 23  1  0
 11 27  1  0
 12 28  1  0
 13 16  1  0
 13 18  1  0
 14 17  1  0
 14 18  1  0
 15 18  1  0
 15 22  1  0
 16 24  1  0
 17 19  1  0
 17 24  1  0
 18 23  1  6
 20 27  1  0
 21 24  1  0
 22 29  1  0
 23 29  1  0
 25 29  2  0
 26 29  2  0
  1 30  1  0
  2 31  1  0
  3 32  1  0
  4 33  1  0
  5 34  1  0
  6 35  1  0
  7 36  1  0
  8 37  1  0
 13 38  1  0
 13 39  1  0
 14 40  1  0
 14 41  1  0
 15 42  1  0
 15 43  1  0
 16 44  1  0
 16 45  1  0
 17 46  1  6
 19 47  1  0
 19 48  1  0
 19 49  1  0
 20 50  1  0
 20 51  1  0
 20 52  1  0
 21 53  1  0
 21 54  1  0
 22 55  1  0
 24 56  1  1
M  CHG  1  24   1
M  END
>  <OMEGA_C>  (16) 
w3nPQHg7eb/AQLLB0SwSQR1OML4l25zBAl63QMZ3JD5Meq/BOYsLQT7ZZD/WSpbB4iTRQK7+BMBa
S6vB9iobQaC8uj2F+abBKDWiQMDdar97wZ7BLUgWQR8NH0DWGaTBML6gQKySRz6Lt6XBEV4NQcpm
DkAk9ZnBs0O6QH9ZBMCFkqHBNkwdQXnVtT/hkqrBoD3FQAHZREBKB4zByU/TQD9vi0DXVp3Bczjv
QL7rp0AKAYzBGLqyQC0s+D9T3JLBVNq/QFd6S0DTsKPBiszlQHZjfUDsS5LBaiirQNZmckDT0a3B
mw2XQCIJY8D1MJXB6auGQHGNtT94raLBIyEHQfjWm0Cy2oPBtGAIQa7ZUkCUR5PB89KfQOGJHUAS
5JzBuzwZQXJgJECl+4DBZfIrQUCPi0BqjozBUDm9QJL6S8D6EZvBpFUmQfyr1j/zLrTBnp0YQeyJ
bEB5gYjBzb3gQLRZf78pvLnB9V4QQWJ2mL9JI5rBJii2QCn+gD8J1LTBNA4FQcSeMT85co7BZhzk
QE85PMDAaq3Bg24gQUDJOb/a+avBgveQQAhKZL8/RZfBJrsXQckoYEDj6KbBDsKqQBqobUA8RonB
mprVQCvKKEA2EoXBckHtQE16mUDOI6LBeiG6QL1/o0BYEZzBgK/8QFyDwEAiU5HBPdDRQAMutEA1
Q4jBQnrMQBilnT9J25TBdsOZQLCVtT9mQo7BwIvZQDVNH0BqE6bBncCcQL8VP0AnprLBvTiSQIMt
kEAVdavBKMfDQJ29iUAAj7LBT2OdQPE+jsDmW5DBmNaNQJ7hLcCq5o/Bn8p5QJBAcMDt15rBX19z
QL2x7j88CarBD09YQJRXjD+9fp3BXVYPQVDWtUAZo4HBKZWKQDLvSUBup5rBkRzPQIAne7/WT7LB
dxkdQRZqvT9c1arBCjC3QJYwID5Aha/BO0QWQTA1IUC1DaTBaeTQQAZIBcDdUqvBAhkbQXLvDT44
iKfBY4iiQNE6ab+btp7B9Z4LQRw+YD/2nJbBptigQP5ZST43uKXBMFwNQRX6DUDY+JnBw2i6QOEM
BMBVi6HBhFASQdAiJ75fbp3BcHPEQHAtRkDKDozBpfrTQI81i0DDZp3BeI7vQG/Up0DrBYzBImmy
QI68+T853JLBtgvAQKlSS0CIvaPBOMHlQEEafUCzRJLBPWSrQKmTckAf263Bnq6WQGvUZcACtZXB
dbyGQBLKtT8/tqLBX1YHQeGtm0Cd5oPBth4IQZ1sUEC+DZPBOtGfQEXYHUB48pzBNgcbQbQtJ0AF
HIHBd5crQQlTjUBqYY3B4ra9QHPiSsCo75rB/ZcQQaCOub/DOJrBLhEZQTUabkAywojBfiTgQIhB
gb+P07nBFeAjQeLu2j99kLLBAee1QHI1gD+/47TBZNgXQRAFY0DekqbBk6DjQOPGPMBgd63BKEwg
QZqxKL/UvqzBq5iRQPw3Yb+iL5fBRygFQRVOJT+b0I7BmN6pQKvBb0DyjYnBzgfUQNjeKkBu8YTB
xmbuQJiTmEDNKKLByDa7QI7Mo0D8QJzBnBH9QHZCwEAIYpHBeUzSQEJTtEDnQYjBzVjMQMmPnz8y
xJTBWV2ZQDQLtz8JS47BuIHZQAivHkByJabBRa2cQCqBP0DkqrLB57SSQNCBkED8eavBnRnEQJGU
iUConrLBezWdQGQhj8B+tJDBCJKKQP+DMcAHqJDBiyR9QOAwdsCbyJvBSoFzQAiH7j8tFarBvG9Y
QC+yjD+nhp3BHFcPQem+tUALjYHBwJCKQOZxSkD4x5rB

>  <OMEGA_E>  (16) 
KNWFPuAgkT4=

>  <OMEGA_NBR>  (16) 
     78366

$$$$
50220682
     RDKit          3D

 59 62  0  0  1  0  0  0  0  0999 V2000
    6.5135   -0.9242  -22.2753 C   0  0  0  0  0  0  0  0  0  0  0  0
    9.1824   -0.2042  -19.5977 C   0  0  0  0  0  0  0  0  0  0  0  0
    5.7366    0.1944  -21.9273 C   0  0  0  0  0  0  0  0  0  0  0  0
    8.7465    0.8514  -18.7739 C   0  0  0  0  0  0  0  0  0  0  0  0
    6.5727   -2.0348  -21.4139 C   0  0  0  0  0  0  0  0  0  0  0  0
    9.7252    0.0730  -20.8684 C   0  0  0  0  0  0  0  0  0  0  0  0
    5.1064   -0.8902  -19.8370 C   0  0  0  0  0  0  0  0  0  0  0  0
    9.3671    2.4582  -20.5049 C   0  0  0  0  0  0  0  0  0  0  0  0
    5.0332    0.2139  -20.7043 C   0  0  0  0  0  0  0  0  0  0  0  0
    8.8246    2.1844  -19.2340 C   0  0  0  0  0  0  0  0  0  0  0  0
    5.8458   -2.0382  -20.2064 C   0  0  0  0  0  0  0  0  0  0  0  0
    9.8209    1.4053  -21.3194 C   0  0  0  0  0  0  0  0  0  0  0  0
    6.1388    3.1238  -17.5128 C   0  0  0  0  0  0  0  0  0  0  0  0
    6.6249    4.3316  -19.7070 C   0  0  0  0  0  0  0  0  0  0  0  0
    7.5025    5.2637  -17.5636 C   0  0  0  0  0  0  0  0  0  0  0  0
    5.5731    1.9637  -18.3411 C   0  0  0  0  0  0  0  0  0  0  0  0
    5.9715    3.1612  -20.4736 C   0  0  2  0  0  0  0  0  0  0  0  0
    7.1830    3.9570  -18.3103 C   0  0  1  0  0  0  0  0  0  0  0  0
    5.2960    3.7744  -21.7241 C   0  0  0  0  0  0  0  0  0  0  0  0
    5.0869   -4.4054  -17.5272 C   0  0  0  0  0  0  0  0  0  0  0  0
    4.1946    1.4104  -20.3061 C   0  0  0  0  0  0  0  0  0  0  0  0
    4.7099   -3.6177  -18.7816 C   0  0  0  0  0  0  0  0  0  0  0  0
    8.4804    4.9107  -16.5449 N   0  0  0  0  0  0  0  0  0  0  0  0
    8.5045    3.2455  -18.3937 N   0  0  0  0  0  0  0  0  0  0  0  0
    4.9769    2.4640  -19.6025 N   0  0  1  0  0  0  0  0  0  0  0  0
    9.6051    2.6220  -16.1013 O   0  0  0  0  0  0  0  0  0  0  0  0
   10.7521    4.3319  -17.6622 O   0  0  0  0  0  0  0  0  0  0  0  0
    5.9393   -3.1471  -19.3911 O   0  0  0  0  0  0  0  0  0  0  0  0
   10.3642    1.6774  -22.5270 F   0  0  0  0  0  0  0  0  0  0  0  0
    9.5520    3.7032  -17.0938 S   0  0  0  0  0  0  0  0  0  0  0  0
    7.0648   -0.9310  -23.2040 H   0  0  0  0  0  0  0  0  0  0  0  0
    9.1007   -1.2255  -19.2560 H   0  0  0  0  0  0  0  0  0  0  0  0
    5.6781    1.0399  -22.5968 H   0  0  0  0  0  0  0  0  0  0  0  0
    8.3526    0.6418  -17.7904 H   0  0  0  0  0  0  0  0  0  0  0  0
    7.1780   -2.8890  -21.6792 H   0  0  0  0  0  0  0  0  0  0  0  0
   10.0680   -0.7356  -21.4970 H   0  0  0  0  0  0  0  0  0  0  0  0
    4.5964   -0.8618  -18.8854 H   0  0  0  0  0  0  0  0  0  0  0  0
    9.4345    3.4779  -20.8542 H   0  0  0  0  0  0  0  0  0  0  0  0
    5.3108    3.7839  -17.2150 H   0  0  0  0  0  0  0  0  0  0  0  0
    6.6231    2.7147  -16.6138 H   0  0  0  0  0  0  0  0  0  0  0  0
    7.4552    4.7193  -20.3155 H   0  0  0  0  0  0  0  0  0  0  0  0
    5.8687    5.1194  -19.5742 H   0  0  0  0  0  0  0  0  0  0  0  0
    7.9228    6.0076  -18.2564 H   0  0  0  0  0  0  0  0  0  0  0  0
    6.5931    5.6701  -17.0969 H   0  0  0  0  0  0  0  0  0  0  0  0
    6.3846    1.2603  -18.5790 H   0  0  0  0  0  0  0  0  0  0  0  0
    4.7988    1.4459  -17.7559 H   0  0  0  0  0  0  0  0  0  0  0  0
    6.7520    2.4546  -20.7926 H   0  0  0  0  0  0  0  0  0  0  0  0
    4.8127    2.9775  -22.3084 H   0  0  0  0  0  0  0  0  0  0  0  0
    4.5394    4.5082  -21.4093 H   0  0  0  0  0  0  0  0  0  0  0  0
    6.0557    4.2737  -22.3434 H   0  0  0  0  0  0  0  0  0  0  0  0
    4.1741   -4.7777  -17.0392 H   0  0  0  0  0  0  0  0  0  0  0  0
    5.7260   -5.2559  -17.8067 H   0  0  0  0  0  0  0  0  0  0  0  0
    5.6324   -3.7495  -16.8327 H   0  0  0  0  0  0  0  0  0  0  0  0
    3.7558    1.8484  -21.2148 H   0  0  0  0  0  0  0  0  0  0  0  0
    3.3900    1.0675  -19.6390 H   0  0  0  0  0  0  0  0  0  0  0  0
    4.1682   -4.2682  -19.4841 H   0  0  0  0  0  0  0  0  0  0  0  0
    4.0746   -2.7618  -18.5100 H   0  0  0  0  0  0  0  0  0  0  0  0
    9.0066    5.7261  -16.3039 H   0  0  0  0  0  0  0  0  0  0  0  0
    4.3138    3.1628  -19.3340 H   0  0  0  0  0  0  0  0  0  0  0  0
  1  3  2  0
  1  5  1  0
  2  4  2  0
  2  6  1  0
  3  9  1  0
  4 10  1  0
  5 11  2  0
  6 12  2  0
  7  9  2  0
  7 11  1  0
  8 10  2  0
  8 12  1  0
  9 21  1  0
 10 24  1  0
 11 28  1  0
 12 29  1  0
 13 16  1  0
 13 18  1  0
 14 17  1  0
 14 18  1  0
 15 18  1  0
 15 23  1  0
 16 25  1  0
 17 19  1  0
 17 25  1  0
 18 24  1  6
 20 22  1  0
 21 25  1  0
 22 28  1  0
 23 30  1  0
 24 30  1  0
 26 30  2  0
 27 30  2  0
  1 31  1  0
  2 32  1  0
  3 33  1  0
  4 34  1  0
  5 35  1  0
  6 36  1  0
  7 37  1  0
  8 38  1  0
 13 39  1  0
 13 40  1  0
 14 41  1  0
 14 42  1  0
 15 43  1  0
 15 44  1  0
 16 45  1  0
 16 46  1  0
 17 47  1  6
 19 48  1  0
 19 49  1  0
 19 50  1  0
 20 51  1  0
 20 52  1  0
 20 53  1  0
 21 54  1  0
 21 55  1  0
 22 56  1  0
 22 57  1  0
 23 58  1  0
 25 59  1  1
M  CHG  1  25   1
M  END
>  <OMEGA_C>  (17) 
RW7QQJeXbL/oM7LB/OoSQZ0cUb4MyJzBjJK3QPIaRz4wa6/Bv/ELQZX4WT8BMZbBP1PSQA86AsC8
T6vBWZobQa6ClT2E8qbBtGejQCrlY78lsp7Bg98VQc1SHUAICqTBIBChQIYTWz5uoqXBlTENQajM
C0BE35nBsxC7QNxxAsC1pqHBeSIdQXvisz8djqrB23DEQMDrR0A3GozB+/7TQM+cikDep53BNxTw
QHRwqEBIgozBmVayQMZb+z96upLByBa/QFNQSkDqyaPBT9vlQAM/fUBle5LBkXipQO2PcUACy63B
AMiiQPD4jMC3N4zB5jmGQA6JtD/vcqLBz7eWQI+IZ8DAQJbB068HQREknUDhW4TBVBIIQe21T0Ay
JpPB3EKfQNqyHUDS0ZzBfK4ZQXjOJ0Bmz4DBzggsQSafikA2TI3BsQ6+QMxqScARIZvB49MlQaaz
1j9YN7TB0dQYQSQBbUAfwIjB+hLiQCxXbr+/obnBqJwRQQbcnL8wDJrBOrO1QGEbhT89xrTBL6QF
QRVMJD/QUo7BVrLlQI/kOMD5bq3BYhYhQUBNPL/j+avBehWTQJOfXL9dFZfByPMWQfGVXkBq1abB
PfKpQA0sckBpuInBM/DTQCy+LUAf6YTB4pDuQJsEl0AehqLB/8u7QMLRo0Dpl5zB2of9QCg+wEAg
DZLBivrSQK9xtUBfxojBWk7MQDJRoT/ioZTBnY+ZQFoUuT8sDI7BKhDYQNoYHUAzV6bB7wGaQBKP
PkCid7LB+UKRQI5DkEA1RqvBOcjBQEXCiEBOv7LB6pGFQKrimMBeUIjBrju3QGowqMAxdI7BZzy0
QHn4b8BeqYbBp15wQEuX7D/it6nBlvVYQGaliD+eHJ3BOmKFQOiUiMBm35vB82KCQHXBMMCSFJTB
KhsQQZU8t0BRboLBpAqKQNtqSkARrJrBMjHPQH4pbr+uZLLByuscQV/Tsz9Yt6rBCXK2QGbeQj6r
lq/BJNMVQWBYHUBKJqTB6qzRQMILAsCsa6vBNY4bQWUpmD1eFKfBKlSjQFbgYL9huZ7BjTQMQagl
Wj8YPpbB4negQPpCXz7uuqXBDVcNQcHRC0Cm7ZnB8Bm7QF2FAcAZqaHBECETQQtkT76Z25zB/5nE
QCWjRkCMIozBFxHUQJx9ikB4pJ3BtObvQPTyp0ChbIzBm3iyQBq8+T8j0pLB9hy/QMpOSkDS0aPB
zeflQBqPfECtepLBz3ipQLn0cUCiy63B/R+jQAkgjsD7fIzBOuuFQMahtT8HgqLBD2SXQM5dZ8Bl
WJbBLG4HQaFgnECIOITB8CoIQY6UT0BYLZPB8UefQJejHUBP25zBG4IZQaFLJkCly4DBzfMrQSKV
ikCSDY3BnsW+QDZoR8By/prBI9wRQZNsvb9gXpnBwLgYQeYhbECBpojBc0vgQIMIcr905rnBrGkj
Qermzj/dirLBSEG0QCXzgz9k/LTB+eAWQR6eXkBW8abBCfbkQJPMOMBqjq3BFPggQRD5O7+fIKzB
+U6TQJRvWL+yEpfBTgcGQT48JD/pWY7BUBuqQGWicEATr4nBWDbUQDX9K0BQ/ITB66fuQCHzlkDX
fqLBneW7QCa1o0DCjZzBEpf9QKTgv0B15ZHBIKvSQHnjtEC6vYjBjm7MQFILoD9Qy5TBNcKZQHa2
tj/yKI7BrQzYQHMaHUDYZabBb/uZQEQlP0BAf7LB8EeRQDVskEBgPqvBGsbBQDsKiUBLvLLBjs2F
QM+4msB0xojBZ9u3QKLoqMBh4o7Bqyy0QFSPc8BztYbBL+pvQIuL7j/FwqnBDDhYQEtCij9aLJ3B
5XOGQPfch8BeLpzBKMWCQP93McBvAZTBsMMPQfBttkDXKoLBEz2KQAd8SkB/pJrBBWPjQMRNBL+q
Oa7B2DQMQd5EQ0DxuWTBlXnEQORy8j4kVKzB9hkLQXT/XkCUHHrBpH7hQK8K3r9LpajBaukMQWxO
1j87EmDB1puiQPrlcL/I6J7BmSULQfSylD9/JoPBYKqkQOZtkj6KbKTBN1IKQamyIkA8goXBmPnA
QKGA+78PC6HBA4EMQerDOj+h03DBYqvBQB2+X0BxpY3BeNziQMW2VUASWqDBLQv5QHG7p0Dqr5PB
VHCpQAs1EUC/55HB/vWyQF1yWEB35KPBgYXrQIQrcEAtZ5TBL92hQJ1JmkChDKXBv3PHQBY9HMA/
WonBzdiDQHW9rz9b+6HB6JytQJQeUsBRdZHBhQEUQde7qEChFZXB//sIQTp8PkCjKpDBxnGWQCT2
JEB2nZzBCJgxQcx9akDDDo7B70AiQQrgVEAZ9aDBTfS/QHBaTcCbH5zBXGwNQbyCF783QGzBP70f
QQU2bkDNtJXBS5n8QA9vr77W97PBb4MMQfSHcUAg5FfBHf3EQEVzsT/d8bDBt9gKQZFRkUDzqH3B
lRj5QJP7H8AaMKrBEsQNQWipqz/6p0/BW9SJQLtdjb+1B5nBpr0KQQvB3z6jjYnBmM6sQMIkjEDZ
LI7B/4TKQBueVEBEPoXBaJnuQOvzE0AxeaHBpfv0QIG5gED5jKXBrl/pQPxdukDeCprB1T/wQFoA
tUCn1ovBt8C/QJk4tj8lrZLBB7qPQOExAEC2SIzBVmyxQKTwOkB536vBFSCAQJ9ZmUAxjKfBFnyk
QGzuqkCsUp3Bnsu0QLxyq0AcGqvBTqq4QABiIcCAZIHBeonoQEgaNMB1/ojBso/HQGC2sb+05ovB
IjRqQFN82D9QjqnBcFBWQBGBcj/ztpzBiYetQLGkisCB0o7BwY2MQEoKOsDAupHBjUYXQTxMuEBw
4ZvB+Ot6QOEIS0DpFZvB

>  <OMEGA_E>  (17) 
oKZ6PmAIiT6UR3o/

>  <OMEGA_NBR>  (17) 
     81572

$$$$
50220686
     RDKit          3D

 62 65  0  0  1  0  0  0  0  0999 V2000
    6.1811   -1.0302  -22.3964 C   0  0  0  0  0  0  0  0  0  0  0  0
    8.9136   -0.1463  -19.5901 C   0  0  0  0  0  0  0  0  0  0  0  0
    5.4564    0.1117  -22.0082 C   0  0  0  0  0  0  0  0  0  0  0  0
    8.5392    0.9472  -18.7853 C   0  0  0  0  0  0  0  0  0  0  0  0
    6.3380   -2.1048  -21.4974 C   0  0  0  0  0  0  0  0  0  0  0  0
    9.4947    0.0756  -20.8541 C   0  0  0  0  0  0  0  0  0  0  0  0
    5.0778   -0.8797  -19.8127 C   0  0  0  0  0  0  0  0  0  0  0  0
    9.3088    2.4852  -20.5188 C   0  0  0  0  0  0  0  0  0  0  0  0
    4.8942    0.1762  -20.7177 C   0  0  0  0  0  0  0  0  0  0  0  0
    8.7338    2.2687  -19.2506 C   0  0  0  0  0  0  0  0  0  0  0  0
    5.7697   -2.0387  -20.2081 C   0  0  0  0  0  0  0  0  0  0  0  0
    9.6910    1.3921  -21.3181 C   0  0  0  0  0  0  0  0  0  0  0  0
    6.1470    3.1558  -17.4496 C   0  0  0  0  0  0  0  0  0  0  0  0
    6.5418    4.4448  -19.6467 C   0  0  0  0  0  0  0  0  0  0  0  0
    7.4704    5.3380  -17.5096 C   0  0  0  0  0  0  0  0  0  0  0  0
    4.9113    2.7472  -18.2655 C   0  0  0  0  0  0  0  0  0  0  0  0
    5.9976    3.2469  -20.4628 C   0  0  2  0  0  0  0  0  0  0  0  0
    7.1428    4.0458  -18.2750 C   0  0  1  0  0  0  0  0  0  0  0  0
    5.0866    3.8356  -21.5656 C   0  0  0  0  0  0  0  0  0  0  0  0
    5.1507   -4.2471  -17.4161 C   0  0  0  0  0  0  0  0  0  0  0  0
    3.5017   -3.4232  -19.1181 C   0  0  0  0  0  0  0  0  0  0  0  0
    4.2618    1.4326  -20.2192 C   0  0  0  0  0  0  0  0  0  0  0  0
    4.9541   -3.9318  -18.9077 C   0  0  0  0  0  0  0  0  0  0  0  0
    8.4547    4.9538  -16.5077 N   0  0  0  0  0  0  0  0  0  0  0  0
    8.4749    3.3704  -18.4343 N   0  0  0  0  0  0  0  0  0  0  0  0
    5.3319    2.2218  -19.5737 N   0  0  2  0  0  0  0  0  0  0  0  0
    9.4877    2.6059  -16.1412 O   0  0  0  0  0  0  0  0  0  0  0  0
   10.7357    4.3441  -17.5888 O   0  0  0  0  0  0  0  0  0  0  0  0
    6.0394   -3.0261  -19.2868 O   0  0  0  0  0  0  0  0  0  0  0  0
   10.2650    1.6093  -22.5226 F   0  0  0  0  0  0  0  0  0  0  0  0
    9.4993    3.7315  -17.0846 S   0  0  0  0  0  0  0  0  0  0  0  0
    6.6170   -1.0835  -23.3831 H   0  0  0  0  0  0  0  0  0  0  0  0
    8.7551   -1.1550  -19.2383 H   0  0  0  0  0  0  0  0  0  0  0  0
    5.3317    0.9349  -22.6960 H   0  0  0  0  0  0  0  0  0  0  0  0
    8.1031    0.7766  -17.8121 H   0  0  0  0  0  0  0  0  0  0  0  0
    6.8946   -2.9807  -21.7965 H   0  0  0  0  0  0  0  0  0  0  0  0
    9.7898   -0.7629  -21.4676 H   0  0  0  0  0  0  0  0  0  0  0  0
    4.6865   -0.8026  -18.8090 H   0  0  0  0  0  0  0  0  0  0  0  0
    9.4564    3.4929  -20.8783 H   0  0  0  0  0  0  0  0  0  0  0  0
    5.8156    3.7224  -16.5669 H   0  0  0  0  0  0  0  0  0  0  0  0
    6.6726    2.2457  -17.1251 H   0  0  0  0  0  0  0  0  0  0  0  0
    7.3262    4.9397  -20.2382 H   0  0  0  0  0  0  0  0  0  0  0  0
    5.7153    5.1492  -19.4714 H   0  0  0  0  0  0  0  0  0  0  0  0
    7.8890    6.0935  -18.1908 H   0  0  0  0  0  0  0  0  0  0  0  0
    6.5669    5.7396  -17.0275 H   0  0  0  0  0  0  0  0  0  0  0  0
    4.3545    1.9701  -17.7213 H   0  0  0  0  0  0  0  0  0  0  0  0
    4.2651    3.6248  -18.4147 H   0  0  0  0  0  0  0  0  0  0  0  0
    6.8532    2.7650  -20.9586 H   0  0  0  0  0  0  0  0  0  0  0  0
    4.6737    3.0187  -22.1755 H   0  0  0  0  0  0  0  0  0  0  0  0
    4.2636    4.3975  -21.0999 H   0  0  0  0  0  0  0  0  0  0  0  0
    5.6747    4.5098  -22.2056 H   0  0  0  0  0  0  0  0  0  0  0  0
    6.1759   -4.6093  -17.2494 H   0  0  0  0  0  0  0  0  0  0  0  0
    4.9830   -3.3357  -16.8236 H   0  0  0  0  0  0  0  0  0  0  0  0
    4.4335   -5.0221  -17.1077 H   0  0  0  0  0  0  0  0  0  0  0  0
    3.3439   -3.1926  -20.1820 H   0  0  0  0  0  0  0  0  0  0  0  0
    2.7914   -4.2016  -18.8025 H   0  0  0  0  0  0  0  0  0  0  0  0
    3.3409   -2.5152  -18.5184 H   0  0  0  0  0  0  0  0  0  0  0  0
    3.8282    1.9971  -21.0579 H   0  0  0  0  0  0  0  0  0  0  0  0
    3.4731    1.1961  -19.4897 H   0  0  0  0  0  0  0  0  0  0  0  0
    5.0638   -4.8715  -19.4690 H   0  0  0  0  0  0  0  0  0  0  0  0
    8.9988    5.7565  -16.2635 H   0  0  0  0  0  0  0  0  0  0  0  0
    6.0526    1.5598  -19.3679 H   0  0  0  0  0  0  0  0  0  0  0  0
  1  3  2  0
  1  5  1  0
  2  4  2  0
  2  6  1  0
  3  9  1  0
  4 10  1  0
  5 11  2  0
  6 12  2  0
  7  9  2  0
  7 11  1  0
  8 10  2  0
  8 12  1  0
  9 22  1  0
 10 25  1  0
 11 29  1  0
 12 30  1  0
 13 16  1  0
 13 18  1  0
 14 17  1  0
 14 18  1  0
 15 18  1  0
 15 24  1  0
 16 26  1  0
 17 19  1  0
 17 26  1  0
 18 25  1  6
 20 23  1  0
 21 23  1  0
 22 26  1  0
 23 29  1  0
 24 31  1  0
 25 31  1  0
 27 31  2  0
 28 31  2  0
  1 32  1  0
  2 33  1  0
  3 34  1  0
  4 35  1  0
  5 36  1  0
  6 37  1  0
  7 38  1  0
  8 39  1  0
 13 40  1  0
 13 41  1  0
 14 42  1  0
 14 43  1  0
 15 44  1  0
 15 45  1  0
 16 46  1  0
 16 47  1  0
 17 48  1  6
 19 49  1  0
 19 50  1  0
 19 51  1  0
 20 52  1  0
 20 53  1  0
 20 54  1  0
 21 55  1  0
 21 56  1  0
 21 57  1  0
 22 58  1  0
 22 59  1  0
 23 60  1  0
 24 61  1  0
 26 62  1  1
M  CHG  1  26   1
M  END
>  <OMEGA_C>  (18) 
YcvFQDHeg7/nK7PB/Z0OQYPaFb6fuJzBLJuuQKq25D2zELDBa6AIQRl9cj9fSJbB8tDKQMK1BsCk
+qvBU+oXQUzOmj1D1abBDH2iQAk3Yb9ngJ7BpfAUQcQNH0CJJqTBSZ2cQHRiND7YvaXBl70LQSgy
EUBEAZrBVaG4QER5AsAgqqHBew4bQeAwsj9ui6rB07PEQFP5SUDOmIvBz1bRQKQ7jkBaLJ3Bhg3v
QCDRqkCTE4zB9iidQBDSL0DHH5LBi+y/QPHNT0DNs6PBNZLkQB93gUAjM5LBucWiQNV6dUBOhqzB
h9KkQKfoh8AvVIvBARxgQKwVW8DM8ZjBcWCIQLlftz/UwKHBEoieQEGje8AHQ5fBc0YHQYiFnkDS
D4TBFpkHQdS0V0BaeZPB356qQKYxDkD5lpzBhs0XQaXGJkAVIYHBb8UrQf0Ci0DTtYzBmULBQHWr
QcBZS5rBjT0kQbv+zT9gLrTBR/0XQW3RbkBbrYjBxb7TQC6wir+VELvBEhUMQVfYk7/y55nBqp2q
QIdWbz9okbXBTKYBQVjPRj89f47BmaDcQK3DPsBJX67B56IcQVxKQ7+pvavBxfeVQIB0Tb/keJbB
U00XQYiLX0CqBqfBwxm6QI07bkDpiITB4oXVQDe5D0A3AInBG3DqQNgRnkDG56HB1eO2QNrFpECD
xZvBB3P8QJv9wkC4hpHBxyPSQHSqt0BGOIjBzleLQMks/D9HxY3BTXuIQLL8Z0A1UZPBCU3bQCD2
MEA1q6fBpY6VQBUyQUCFZ7HBT2+IQDy4jECCzKjBXZe1QApQkEAkpbHBGqHFQBt/k8Cx/onBwnSf
QI57VcC2lobBkd+NQAu1oMB/3IjBLwJWQPhSTMCudKHByaYyQHdzhsB0a5bBK9FVQGT4IMCrJZTB
mgF1QMOf/z9/dqjBMEdeQN0ZmT/66pvB+QqiQGvjm8BswJvBIfsPQfk0uECMG4LBRq/BQOqoxz99
8ZrB/q7IQGWobr/9FrPBHMAaQcelsz8BtKrB0+yvQEbdPj4aSbDB+0QUQQFAH0C2TKTB7xbNQDI5
AMCB3KvB1aAYQSxtrz2636bBHfyfQJ8yVr+fA5/BFjgJQXqTbz+YRZbBBXmbQPY1Zz75QqbBPnML
QQO7EEDfE5rBInK4QNqF/L/01KHBruAPQbsKGL5iqJzBsh7FQG46RkBzcYvBe8jPQAErj0CKnJzB
wZXuQBtpqUBedovB5PeeQK52JkDJCpLBL1y/QA/5U0CNnKPBsA/kQAXHgECm5JHBtnWiQOB5e0CO
YKzBukhlQHgHbsAWypjBWkOsQIIMkMDuRIzB3KeHQJhwvj8fYKLBdhOdQAAQVcC/OJPB4lwHQWyU
nEDcr4PBnGUHQVUBV0Djd5PB5dKqQNrlDUBRBZ3BCjYYQfQtI0C3T4HBMqQrQVF5ikCiuYzBhIC+
QOMgQ8CYApvBvmsOQWLFtL8w35jBywoYQaZybEDFrIjBxFXYQKqFeL9tybrB7FohQaN9yj/1jrLB
YZqsQFyHgT87y7XBMw8WQVLiX0BUOqfBxXTgQETPNsCaBK7BvbUdQcjePr8hxavBlr6QQMVVSb8h
RZfB42cCQbRIQT/2do7BvNq4QCc7akDSh4TB0EjXQGZVDkBEnYjBcw7oQIrooEAmMKHBvKe0QMFq
pEDU0JrB1lT7QAhuwkDtxJDB+czRQE5qtUDKYYfBiQ+RQAzP3D/mAo7BW/mGQMneWUAJc5LBc0/b
QNkZOECqq6fBAgiWQJZYSEA7kbHBDpGHQFKsjkAQmKjBAj+1QC5qlEC+MrHBnhxPQDqDOMBMyp3B
j8hvQFJdk8By1p3By540QAKefMCKspLBf27KQJJmh8C4SIjB29OTQCJMl8ApM4bBvWixQHNarMAR
V5HB7Op1QGe1BEAiHanBW2ZbQNTboj/Mr5zBZoWXQArXHMBbHI7BdQsQQeYztkATqIHBm/rBQPCj
xD/KHZzBzALGQDh5gL9+9LLBw/QaQQZbsj/suqrBswOuQJNcED5JULDB+GAUQaIKHkA8RKTBB/PK
QN2yAsC2aavBgIwYQU6nkD0vD6fBQkmgQBPJSL/ZmJ7BaZsIQfM7Zj+wgZbBqL6aQOeLcT5gKKbB
5R0LQYWZDkDqKprBGd+3QEhm97+2N6HBq20PQU/kNL4q8ZzBlYDEQAAqR0BKe4vBdH3QQGQ5j0As
q5zBpZ7vQPTiqEDBeYvBHSaeQFYIKUCMJ5LBLou/QCyAVECNq6PBjjTkQL98gECr6ZHBH/CiQEma
fEAhcqzBhIiqQBV4ksABFI3BKppiQLV+WMDaWpfB+VSHQOPAwT9KgKLB4gugQC9yecDFy5fBWd8H
QZ9Em0CwyIPBRykHQfETVEBxdJPB62uqQN5HD0DmEp3B7sYaQWzZI0CU74HBdFQrQQlyjEBJ+I3B
vh7AQDsrN8DCX5nBJtENQScFub9GSpnBFdAYQawBbUBUQInBKaTUQPgki78UwbrB/9khQT5+yj/r
gbLBVmeqQEEOcT+fCrbB8m4WQdbzXkBXDafB8VTdQIruOsBnca3BJbIdQfU5Qb9NAKzBglySQFu3
L79zupbBVngBQb6LNT9WyY7BqXi4QBzRa0C+mITBoPjVQLWFDkCInIjBKzfpQPp0oEARN6HBobq1
QBsBpUBn7ZrBsqn8QBy/wUDAyJDBRTDTQMZbtUAgVIfBlU6PQN3j4z9iH47B2NqGQECkXUBUr5LB
OkzbQK+2N0CltqfBSjCWQM64SUAmoLHBbUKIQKidj0DMrKjB4Ae2QHSxlEBcRrHB3qXLQO5insBB
Po3BR/imQLJZdsCCiobBuHmUQItnrcCWx4vBFG1SQIcgOcAc+J7BeAI3QKpbh8BVApbBlv9bQPBB
KsBAxZDBVMN2QELtBUCQXKnB98VZQP8FqT8d55zBTnuiQD6vlMCoNp7BxVMQQYLAtEAmboHB61bB
QBbCxj+VC5zBSJ3JQD1jcb+ZDLPBJBQPQTJlFb7yopzBpEexQPajOT60JLDBTc8IQZpbcT+SNpbB
P4PNQObEAcCr7avBU3sYQdRaqj2JtqbBbtSgQP53XL/b+57BGA8VQSRkH0BSBqTBwM+cQP2rWz4r
HabBhL8LQQ0XEUCQ6ZnBK8e4QAxLAMDq56HBZ3MbQSFysz/OZ6rBBjTEQOkgSEDRpIvBPFHRQI6c
jkDWAp3BEkvuQKUiqkBHwovB8LScQG46L0CmR5LB/e6/QKHDUUBZvaPBMjjkQIQVgUBMD5LB8Raj
QAcBeUCYhqzBYwlkQBIsbsCNpZjBI+6rQHe6kMDkRozBCCOIQFKauz81LqLB1wGdQIN3VsCGQ5PB
nAgHQZHQnUCZ0oPBE3wHQYhRV0D1WJPBAEaqQGtZD0AR05zBXfgXQX4CJkDoE4HB+IwrQVpfi0B0
mIzBARW+QI1FRsCrNpvBK8MkQckN0D+wALTBGucXQfB7bkBHj4jBP1PZQButeb+QvbrBNa0MQbwI
lL8j1pnBo0quQKYFgj+mk7XBOMABQY43RD9CdI7BKIzgQOefOMBZKa7BTmodQXdoQL/Lm6vB8paR
QL79UL/QPJfBkksXQRP/X0Cl4qbBj4a5QGAoa0ASfoTBX/LUQEFiDUDjMYnBB5rqQN2snkDioaHB
Seq2QCgnpUB4jpvBj0b7QNDZwkBkHpHB1UTRQEFUtkCI0ofBFcmKQGGm+T99E47BahiIQP+pZ0Df
VpPBQVjbQPZAM0A8u6fB1OWVQGmQRUAujLHBJLqIQDlRjkAHw6jBPCO2QBxekkCQg7HBVVJOQGOZ
OMBcq53BO9ZsQF63k8CJpZ3BSNIzQEBce8A0c5LB3X3KQJt5iMDJbYjBHb6TQGVJl8DtGIbBF0Cw
QKNSrcBCS5HBvql1QM9nAkDj66jBw99cQHr6nD/cepzBBEqYQBqnHcDoM47BI6EPQSuYt0At04HB
qDfBQD8VyT8aQZvBzKXKQLHjlL99wbLBqi0SQfw2Aj6xpJ/BcIG0QMD1cLudvq/BpxEMQRDtjD9R
GpjBCQ3NQEArEMDqqKvBe64YQdo2BT9B+KnB4r6jQNovgr+5a57BAZ8SQRjINkANRqXBnc+gQOiE
ej0cp6XB0/wLQZ34HUBR+prBl0W5QMOyDMC2hqHBNu8YQRty8T/rwqzBdv/HQI5SPECs3orB1IzL
QOnNj0CsdJvBbLXrQDjzpkC934nBPB+2QPYH6D8FApLB5LelQPq/Z0CmR5/BreDiQFLPf0BAEZHB
7DR1QB7NgUBkN5rB8HKaQC47W8Cbd4nBdflbQIAyaMA3Y5rBJOaMQEcUrD+kR6LB73maQGqod8Co
OpXBEnQHQWmXmkCl4oLBtmEHQb9VXUDugZPBIkmuQB3/C0AgbZ3BSQ4cQVqGJUBMpILBOPoqQZuB
kkDbd43BO0e/QIr+UcANxJrBckYfQbllEUBCoLbBXhAZQTjAckBdLInBbdPZQFMsnL8tgbrBkeER
QdVga79HhJ3Bt5eyQMsGVj8oKLXBRnIHQVKyTT8GIJDBKETeQAoZScCdAK7BEXkdQZs0Zr4fv6/B
nKKVQNPjcL+qjpbBC9wSQZW3eUDibKfBVeqsQGs/XUB+CofBCXDcQEtgH0Cur4TBFEzjQIwFkUDC
8aHBG0a/QM80sEDW55nBtc/0QAbCwkAXxI7BjCnPQMvUrkABHoXBdyfNQLwkez+p5JHBoJGXQNlL
vT+XjI7B4r6iQJGGcUB/9qfBPpVBQI4HWkCQLp3B4l15QC0tfkA9dZHB/YFnQGAwo0BkapzBeTi6
QHSzZsD59YXB9tCSQAKcFsAb/4jBekeCQJYBgMDABIXBvVddQErvfMCey6LB1DIrQJOFhsDEBZbB
zEVMQPujI8AfAJrBE2B+QOxw7T+sR6nBPPlmQAsDkz9HZZzBMD6fQD60nsBDLZXBPTcPQWb1tEAb
i4DB9mXJQLJZ/T/yVaHBr0fIQIJyp78hALDBwO8PQdAXm72myJ7B1GW0QAAhVL2Qda/BZcUJQTzP
aj99aZfBku3EQJzKDMDaUKfBYOEWQThElD50GqnBBcKXQCixHL+t2Z3B5WcRQd0EKUAMtKTBTEWc
QNDukT56XKbB110KQUveEUCNX5rBX5+sQBwO7L9LIp7BLJQXQQgK0z8cEKzB3eTAQAvqS0Au14vB
wF3TQEbalECe5pvBg0LwQHQCp0DWyonBCnuuQI5JBkCvLpPB82WxQDvHdECfBaLBvvbjQLqIgUB7
OJHBLOKEQLaTj0AoAKHB5lSrQDATlsDtXIvBN+yAQIKOj8AaapzBVtWNQGap1j/T2KTBYd2pQPps
gcDOd5bBaWkIQQSulkD/lYLBH3IGQfMcUUCIwJLBtuqvQB8LGUAs9Z7BZo4cQSU9HUA7M4LBrc0q
QRJjjEDJ843BJPKpQJ9kJ8DuA5XBFYceQXNOAECp57XBDDEZQem4aEDX/YjBlBfaQMWYy78rDbfB
pFcPQWsMj7/ahpzBi5u3QNVvJj/v+bXBnZQEQZftIj+te4/BgeHUQMoNSsCIoqfBkaobQQif8b5T
vq7BChyEQNtqs77FDpfBZQ4SQRWta0BF96bBW56mQNBPdkCSWYnB8c3OQGzKLEAtwYTBzQ/vQFgM
mUDhOqHBWUPFQABItEBpF5rBfQn9QNHVwUCrgo7BOinUQF7TsUDNO4XB5abAQAIilj9HxJHBiNCM
QEGZ+D/D75DBKie6QJS2d0CciarBCDdaQArheEBwYqXBmpd3QERSkUCXgpjBvBGGQAMPsEDuYKTB
fZDIQFnei8BmLYfBCB2PQOgUjMDLu4bBVlyrQH4ducBMM4zBNBeAQPGbgMAAYaTB7t+AQLSVssBx
SJ3BQkFJQB6NhcDw0JfBxn+IQC3gCUCfqazB6N9fQFnN2D8cNKDBDwrGQJ+Xi8ApF5vBn+cQQXc5
r0CmZ3/BP3nLQJHX/z+ziqHBD0XLQOomtL8F6q7BJdAXQQKd6z+oxqzB3V25QPBO9r19GK/BlUsR
QbogMkC6FKXBjTHDQMTIEMAuMKbB5RYYQRSd8D7VNKrBDOCUQHL3FL8FPJ7BhjALQSi5ez8LPpjB
GUyeQBCtkD4xt6bBYssKQeDeFkCa0JrBZwGoQCiC67+Utp3BhscRQUBeKT3b8J/BVurBQDokREBW
xovBYlbRQByOlUDWR5vB757uQOLJpEAz/YjBaOCvQESJAUCmq5PBEVmuQL4XeEB1QqHBA1PjQKmK
gEBl45DBxCmBQGpajUCul57BgiKiQOJrkcDuuonBuCB+QKElksA215vB5ASRQORo2T8w0aXBKzyk
QIiff8CjI5XB7B8IQScqlEAzIYLBfpAGQdAcU0Bz35LBZQaxQNwiG0D4Rp/BTDIeQf7eHEAq9oLB
6iMqQQoTkEDsBI7BMq+gQOrpI8CrepTBhT0SQXUMo79Xc53Br3YZQTRXakDgLYnBUTDfQAjs3r/6
crXBbZocQVfKCkDxprTBWFTAQObkDT9jnbXBzkMRQRt2dUBWCKfBg7PRQG18T8DT7qXBsiMdQZmw
gb7vGrDB0XR9QHhCjL6AE5jBSW8GQR5yJz9NXZDBFTOnQCjaakC9tIjBSEHRQGX4IUDSGoXBu0Ls
QNFEmkBe06DBrb/DQM7RtECFFpnBWg/6QFcZwUAKXo3BpmnSQCx3rUBhMYTB6pbCQKWsjD8/x5LB
61eOQPRL6j/4fJHB+HyzQIthgUDN3KnBhvpRQONAdUCI86LB/dR2QMWWikAp8JXBTfZ9QGkmr0C4
/aDBBLi8QKA4hMDa/4TBu4eDQL4wiMC/C4bBraKkQLWFtMAP8YnBesWAQBhchcBCB6TBA4GBQLY/
tcBmFZzBIsxAQL/qiMAWMJjB2j+PQLaACUDD1a3Bv+piQEIA4T8E86HBoNXCQOEVicDJ0ZjBhCEQ
QVuqrEC6yn3BE67NQBqzCEDv/aHB

>  <OMEGA_E>  (18) 
WEiDPqjthT6g3JE+kCJuPogd0T4grwk/GAAVPw==

>  <OMEGA_NBR>  (18) 
     88873

$$$$
50220692
     RDKit          3D

 62 66  0  0  1  0  0  0  0  0999 V2000
    3.7790   -4.3651  -17.7102 C   0  0  0  0  0  0  0  0  0  0  0  0
    4.8780   -4.9499  -17.0554 C   0  0  0  0  0  0  0  0  0  0  0  0
    6.2643   -1.1552  -22.2385 C   0  0  0  0  0  0  0  0  0  0  0  0
    9.0796   -0.1054  -19.7119 C   0  0  0  0  0  0  0  0  0  0  0  0
    3.9940   -3.4337  -18.7358 C   0  0  0  0  0  0  0  0  0  0  0  0
    6.1985   -2.2056  -21.3013 C   0  0  0  0  0  0  0  0  0  0  0  0
    5.6162    0.0628  -21.9691 C   0  0  0  0  0  0  0  0  0  0  0  0
    8.6418    0.9042  -18.8374 C   0  0  0  0  0  0  0  0  0  0  0  0
    9.4864    0.2108  -21.0204 C   0  0  0  0  0  0  0  0  0  0  0  0
    6.1906   -4.6288  -17.4491 C   0  0  0  0  0  0  0  0  0  0  0  0
    4.8492   -0.8078  -19.8283 C   0  0  0  0  0  0  0  0  0  0  0  0
    9.0582    2.5673  -20.5726 C   0  0  0  0  0  0  0  0  0  0  0  0
    5.4805   -2.0271  -20.0979 C   0  0  0  0  0  0  0  0  0  0  0  0
    5.3086   -3.0991  -19.1259 C   0  0  0  0  0  0  0  0  0  0  0  0
    4.9070    0.2208  -20.7656 C   0  0  0  0  0  0  0  0  0  0  0  0
    8.6291    2.2469  -19.2658 C   0  0  0  0  0  0  0  0  0  0  0  0
    9.4760    1.5501  -21.4510 C   0  0  0  0  0  0  0  0  0  0  0  0
    6.4125   -3.7173  -18.4957 C   0  0  0  0  0  0  0  0  0  0  0  0
    6.0164    3.2462  -17.4374 C   0  0  0  0  0  0  0  0  0  0  0  0
    6.5672    4.5731  -19.5454 C   0  0  0  0  0  0  0  0  0  0  0  0
    7.5167    5.2771  -17.3441 C   0  0  0  0  0  0  0  0  0  0  0  0
    5.4038    2.1058  -18.2630 C   0  0  0  0  0  0  0  0  0  0  0  0
    5.5133    3.6875  -20.2537 C   0  0  2  0  0  0  0  0  0  0  0  0
    7.1068    4.0534  -18.1870 C   0  0  1  0  0  0  0  0  0  0  0  0
    4.1349    4.3873  -20.2206 C   0  0  0  0  0  0  0  0  0  0  0  0
    4.3543    1.5376  -20.4068 C   0  0  0  0  0  0  0  0  0  0  0  0
    8.5047    4.7972  -16.3935 N   0  0  0  0  0  0  0  0  0  0  0  0
    8.3805    3.2623  -18.3455 N   0  0  0  0  0  0  0  0  0  0  0  0
    5.4351    2.2892  -19.7468 N   0  0  2  0  0  0  0  0  0  0  0  0
    9.6856    2.5083  -16.2016 O   0  0  0  0  0  0  0  0  0  0  0  0
   10.6758    4.3357  -17.7364 O   0  0  0  0  0  0  0  0  0  0  0  0
    9.9055    1.8649  -22.6935 F   0  0  0  0  0  0  0  0  0  0  0  0
    9.5354    3.6507  -17.1119 S   0  0  0  0  0  0  0  0  0  0  0  0
    8.0552   -3.3620  -18.9607 Cl  0  0  0  0  0  0  0  0  0  0  0  0
    2.7727   -4.6327  -17.4237 H   0  0  0  0  0  0  0  0  0  0  0  0
    4.7140   -5.6479  -16.2478 H   0  0  0  0  0  0  0  0  0  0  0  0
    6.8109   -1.2856  -23.1608 H   0  0  0  0  0  0  0  0  0  0  0  0
    9.1038   -1.1317  -19.3765 H   0  0  0  0  0  0  0  0  0  0  0  0
    3.1516   -2.9711  -19.2286 H   0  0  0  0  0  0  0  0  0  0  0  0
    6.6951   -3.1434  -21.5023 H   0  0  0  0  0  0  0  0  0  0  0  0
    5.6628    0.8723  -22.6825 H   0  0  0  0  0  0  0  0  0  0  0  0
    8.3157    0.6516  -17.8392 H   0  0  0  0  0  0  0  0  0  0  0  0
    9.8056   -0.5719  -21.6925 H   0  0  0  0  0  0  0  0  0  0  0  0
    7.0302   -5.0843  -16.9452 H   0  0  0  0  0  0  0  0  0  0  0  0
    4.3196   -0.6650  -18.8979 H   0  0  0  0  0  0  0  0  0  0  0  0
    9.0658    3.5967  -20.8992 H   0  0  0  0  0  0  0  0  0  0  0  0
    5.2100    3.9374  -17.1511 H   0  0  0  0  0  0  0  0  0  0  0  0
    6.4674    2.8138  -16.5321 H   0  0  0  0  0  0  0  0  0  0  0  0
    7.4244    4.6818  -20.2261 H   0  0  0  0  0  0  0  0  0  0  0  0
    6.1116    5.5587  -19.3692 H   0  0  0  0  0  0  0  0  0  0  0  0
    7.9524    6.0556  -17.9876 H   0  0  0  0  0  0  0  0  0  0  0  0
    6.6437    5.6857  -16.8141 H   0  0  0  0  0  0  0  0  0  0  0  0
    5.9535    1.1833  -18.0250 H   0  0  0  0  0  0  0  0  0  0  0  0
    4.3526    1.9951  -17.9584 H   0  0  0  0  0  0  0  0  0  0  0  0
    5.8110    3.6332  -21.3113 H   0  0  0  0  0  0  0  0  0  0  0  0
    3.3897    3.7545  -20.7248 H   0  0  0  0  0  0  0  0  0  0  0  0
    3.8313    4.5495  -19.1758 H   0  0  0  0  0  0  0  0  0  0  0  0
    4.2030    5.3559  -20.7373 H   0  0  0  0  0  0  0  0  0  0  0  0
    4.0225    2.0679  -21.3116 H   0  0  0  0  0  0  0  0  0  0  0  0
    3.5036    1.4165  -19.7200 H   0  0  0  0  0  0  0  0  0  0  0  0
    9.0504    5.5705  -16.0706 H   0  0  0  0  0  0  0  0  0  0  0  0
    6.2836    1.8531  -20.0466 H   0  0  0  0  0  0  0  0  0  0  0  0
  1  2  2  0
  1  5  1  0
  2 10  1  0
  3  6  2  0
  3  7  1  0
  4  8  2  0
  4  9  1  0
  5 14  2  0
  6 13  1  0
  7 15  2  0
  8 16  1  0
  9 17  2  0
 10 18  2  0
 11 13  2  0
 11 15  1  0
 12 16  2  0
 12 17  1  0
 13 14  1  0
 14 18  1  0
 15 26  1  0
 16 28  1  0
 17 32  1  0
 18 34  1  0
 19 22  1  0
 19 24  1  0
 20 23  1  0
 20 24  1  0
 21 24  1  0
 21 27  1  0
 22 29  1  0
 23 25  1  0
 23 29  1  0
 24 28  1  6
 26 29  1  0
 27 33  1  0
 28 33  1  0
 30 33  2  0
 31 33  2  0
  1 35  1  0
  2 36  1  0
  3 37  1  0
  4 38  1  0
  5 39  1  0
  6 40  1  0
  7 41  1  0
  8 42  1  0
  9 43  1  0
 10 44  1  0
 11 45  1  0
 12 46  1  0
 19 47  1  0
 19 48  1  0
 20 49  1  0
 20 50  1  0
 21 51  1  0
 21 52  1  0
 22 53  1  0
 22 54  1  0
 23 55  1  6
 25 56  1  0
 25 57  1  0
 25 58  1  0
 26 59  1  0
 26 60  1  0
 27 61  1  0
 29 62  1  6
M  CHG  1  29   1
M  END
>  <OMEGA_C>  (19) 
xNtxQLGui8B+ro3BoBicQPhlnsCGcYjBynTIQILek79e6LHBJEYRQVTh170Jsp3B/Jx/QEzBW8Dr
4pXBGlrGQKQoDcAPaarBxLezQCiagD3JwK/BvEQKQcB4Zz/nspbBGsgXQTzeVz6yKajBMBnGQOke
lMDEl4vBcCybQH7KTr9XoJ7Bi+4QQcBOJEDDlKTBlmCvQPG7AcB+yKDBEuCpQNhWRsDJAZnBIAad
QCgYYj7vH6bB/RAKQZrMD0BEIJrB1p0XQeFqxj+Qm6vBSjPNQM7nbcA195PB+oXAQBjBT0Dbf4vB
dCbSQPFWkkASXZzB9ojwQDXeqECswIrBlOusQCLFBkCoGpLBKG2wQCgAbECiB6LBxmrjQKC1gUDo
fpHBBVGEQF9kjEC5w6HBjlaLQLLPxD8bQaPBTxMIQcGCmUD8JYPBWhYGQTbJUECGw5LBnOytQKKC
EkB9+Z3BCvgaQTSIIEDMnIHBLdAqQV2+ikAP5I3B03weQde17j8+jLXB9pAYQUqlaUAp5YjB9+EA
QdIrV8CLr5fB6XMxQA4/lMDSY4vBb9mWQN27tMBq+4HBlvLZQOSOpL85SbnBTakRQYrbkL/7ApvB
2rNJQD8mPsAs1JnB3j3WQCktScDCBKzBvTW1QEtQXz/EdbXBRQ0FQWbMJj+4to7By+McQVhpEr9L
iq3BPvfgQNmyosDBj4fBUjqKQHA7Kr/0LpfBYQ0RQd8wZkCBMafBiLimQAn/e0CGNYnBw/TOQNUV
NECvQYTB4ZTtQHDRlUAgz6HBdpLDQPzgsUAv9JrB9Xn+QKHHwUCj5o/BGJnUQFLxtUBHg4bBcYO+
QMp0lz8eM5DBRkiLQBFg/z/kqo/B2fO5QFeGaECDfarBNfBYQH1JcEBezKXBPzN1QN2VkUAcaJnB
U3+GQM1jq0D+5aXBDbiAQNFYBEAXfqrBuztgQGJPtT+Kwp3BXs4QQXtBskCikIDBkBPJQMgz7T90
X6DBzwx8QA6HiMANjYnBBlCiQIT6ncAOnYXBJaW/QBYgyL8qPrLBEhIfQU28yT9fTarBvACCQGgB
V8BFGZLBYQq9QHFZIcBr+anBESyxQAIier7fg7DBkwsaQa9OJkBy8KLBt+cVQR6omj7tGqnBNIDK
QD3nlsBFUorBaGecQNTTV791UZ7Bo8gDQcGGhj8t4pjBEyCsQCAbCsBT45/BMieqQHOZSMDi+pbB
qD6fQBAn9D3rkKbBnOMLQeQUFkD+W5rBIl0IQfymYj3RYKDBOsPOQD2fdcBbDZPBR2PDQOM3QkDL
UIvBpOnQQCyCkkCi35vBu5zuQDaqpUC8k4nBM9+qQJasAkDCo5LB0NqpQGpFdEBKlqDBhpbjQMEB
gECpHJHBk9x9QLpnjUCFhZzBR0qPQD8lxT8Cz6TBz7wGQb9klEAB6oHB6G0HQcUmVkCH8ZLBdY2t
QEnzFkBRSJ7BMIkaQaeTFkAcBoLB3RQrQZgAjECX0IvBtgUAQQATk78GCJ/Bbn8YQV1lZkCUKIjB
SfsAQUtdbMBPipjBqRc+QKBXjsDuAYbBZkefQGzhs8BJ8n3BYsPMQGew67/E67nB1u0pQR/a4j9i
1rDBaj5MQBYnNcCB9JTBkfbHQMb/YcAXWavBv9GzQGV8+j520rbBHQwhQS4QZUBY3aPBaj8ZQcTs
9L7C1q7B4FrmQOgnp8ALN4fBuR+OQET9Er8CwJbBahT0QIIrUz8v+5HBeZSrQFPXaUBgIofB3JHV
QNmDHECsb4XBzJ3qQAD6kUBm4qHB7A/HQPfHs0BTZZrBDtr8QG07wEAoH47BKLzRQBv8sECNaoXB
0jK4QCWchD/+X5HBwvOIQJE0A0DxSZDBnLCqQB3qfEBoUanBBgBIQCn8dkBu/p/BeEN7QLsvi0C9
vpPB+J15QE0sr0Dn8p7BSh6LQP+CAUDopKzBQJhgQJu2vz+GpqDBprkOQbeRrEAwCn3B//TKQBbN
BUBTmaDBhaaRQLrBp8C49pHB0v6oQHSso8DvYojBiorHQHIFsr+InbDBAbkWQeDV4T94kqzB//WP
QLFwhcCxKpnBbk/CQGnuFMBJV6jB6wa1QOAY8b0Loq/BvGgQQTAeLkB+8aTByEgXQVCMzD7G0KnB
D2m8QJPXeMCmsoXB6qGXQBS1Or/eMJ7Bfk4LQZjjcj+nw5fBJkyqQIfE/r+dKp/BiEWlQBgJPsCs
u5bB3kydQBD3Tj42aabBjHkKQVgqFECziZrBY4oRQQDRDrwgap/BwK65QNzuMsACvozBOh3BQA7O
Q0CueIvBNEvQQAlWk0A6UZvBNsntQKvxpECgO4nB+mqvQHTy/D8wBJPBa1+uQGLacEA1TaHBtIbi
QJpVf0CL1JDB8xCBQNb4ikB4cJ/BQpOOQLYRyz8et6TBQuEHQX6ClUCaUILBVDEGQfg/UUCespLB
aNevQO5lFECPtp7BlLYdQfjxHkDqi4LBkeMpQURsj0B4Jo7B7S4SQQLEqL8swZzBqx4ZQQK9akDo
GYnBHvbQQIwCor9EHYnBRBmBQAw9xcDvwJPBUwqsQLnBvsDWEoPBK6rZQIn90r91rbfBUSMbQQXv
BEC2irTBvrR8QNR8iMDpj6DBt67QQJ6RU8A7AKnBK/i4QEbRHD/n67XBzhkQQegicUBSDafBNx4c
QaBQq751rK/B/WbNQLxhcsB6b3zBXhOFQBXE875vMJfBmScHQf7rIj8iwo/BWDumQFJEa0A/p4jB
41jQQMcNJEAumoTBy0brQKeVmEBj0KDBEZ/BQABGskDGRpnBw9b4QGnLwEDX2Y3BoqfRQI74rUDp
coTBsLLCQMaCiD8f5pHBvRaOQN8c4z/zsJDBrCu1QI2Wd0AR5anBXcpSQM7jbkAzwKPBiX5zQMyU
ikAM1ZbB4rF/QJwVrEDCaKLB5C+JQKa6BEAHfazBDSNhQO5pyj9vHaDBXe8PQVaPrkBFx37BJuXL
QJ5P/j+/f6HBTBOOQId6psCiCpLB3r+nQOTGpMAay4jB6E7IQNWvrb+jr7DBpCwRQQCNJL2AEJ/B
RseNQBzdg8AJLZnB1pLDQKiAE8AIeajB0j61QDAqvr3rmq/BW+sKQb6Nbj99iZfB0mIXQQS1tD5F
b6nB5PS+QLrNfsAYUobBhnOYQG/oO79YKp7Bn80QQbTeK0BRxaTB4JarQJBO/r95QZ/B+oemQJi+
PsD18JbBpHedQBjSUz68WKbBQGwKQVzhEkC5aJrBjkAXQffT2z+gRKzB5Gi9QDz8N8A7Po3B2ebA
QJK4RUC8fovBwtzQQK0rk0C5gpvB0EbuQDmApUB2donB3AqvQENm/z8J6ZLBicGuQKB/cEDsbKHB
wLbiQB7ff0BJ75DB3KOBQJV6i0Asu5/BbjWOQFWpyj80jqTB9eMHQbjrlUAcbILBvS0GQXK4UEDI
qpLB2aGvQERSFEBUpJ7Bf4MdQcArH0AXbYLBFfYpQcHojkACLY7BC7MdQb6kBkCZHrbBQxUZQbqN
akAqFYnBgD3YQHg+s7+ow4nBTVl1QIJcwsAtopPBnqmpQHg+wMBMkoPBOXnaQHqrzL/TxrfB8TUR
QUHxir925JzBqjt1QCY5hcC0W6DBAU7SQNe+UcBaN6nBes64QB9TJT9e2LXB2HwGQQzYIT+ZiY/B
QT8cQXQOyL6TNa/BnO3RQALue8AyN37BywmGQGgV/b4ZHJfBkLwQQWS/bkAQ9KbBviWmQPcSbkD6
zIjBZNXPQG2lJkBuiYTB4fvrQN7Ol0C//6DBhHvCQLRgskC+mZnBqun5QNTkwEBdKY7BOyPSQJdA
r0B3xYTBxiLCQKrEij+GrZHBfqiNQBnt5j+/k5DBWtK1QMbcdUAvBarB1LJTQGPXb0AG/qPBPSl0
QETTi0AMI5fBNOmAQM1frECQ26LBHzWIQILCBEAeSazBHfFgQAlDyD932Z/BTAMQQYfgrkBx/H7B
HpXLQJc2/D+vX6HBwpTRQNmWksDGZIzB+JqpQHjsnsBeNYjB26PIQJG4k7/MBLLB5uMPQbCG+r0C
4p3BvKvTQLl0acA2x5TBiXvHQNmcDMBGc6rBdFqzQNhxYT0636/BEbAJQVjxZT9Iw5bB6tEWQRL6
Tz5kSqjBm5aDQO79jcCEg4zB4m+cQGLbTr+YlJ7BDl8RQVF3JEAid6TBtICwQEq4AcB+0qDBPbmt
QG3ERcDc5ZjBOEidQK7PWj66JqbBwDwKQezXD0AOEZrBQ4UXQfhrxj9YlavBlWiFQL8NYMDg35TB
SLTAQKZwTkAKfIvBZPvRQDr0kUDQXZzBxePvQFzaqEBAsorBewGuQEayBEAWI5LB5j+vQIxJbEBu
y6HB6E7jQL6HgUDkdJHBzv+CQBTqi0C4zqDByXuLQACbwz8mPaPBTScIQRYhmkCqOoPBUykGQWbr
UEACt5LB0QmuQF0pEkBI/p3BTlocQS59JEBK3IHB8oYqQT9rjUAUcY7Bm2geQXwm7z/mhLXBNPIY
QfjkbEDkJonBPacqQCWYOcB8UZrBQ6TuQNoWoMApKInBaByoQLV2tcBrq4HB2NHZQD0ypL/QcbnB
yFUPQVTSk79cXZvBk0nyQP35VsC0DZjBJh3YQKvoR8DZAazB4fKzQFR3Wz+Jp7XBg4EEQT/nJT9f
xI7B55cbQaJtFL8ivq3B5PhJQKsNmMBzYonBb2GMQJ//KL+FBZfBjRwSQeqPZkA696bB0nOmQNLP
eUAFQYnBZijPQFRkM0AsNYTB8DvtQHlMlEDD56HB9lbEQLH5sUDTDZvBKev8QDg2wkCJ24/B/eTT
QM0ltUAaVobBY9DAQD6VlT8cbJDB/7CMQKeU9T9ZlI/BIge3QGm+akD8X6rBEzZVQPC0b0BlsaTB
89R1QAr4j0CITZjBc/2DQE5sq0ACuaTB9aWAQP29A0AKdarBZ8ZgQP58sz92tp3BtKIQQSFAs0Bq
qoDB6EbJQAOC7z+ElqDBAzPSQIeOlMCaBY3BE5uqQPqen8B1bIjBJJrIQFzej7/qCLLBqGQXQTqR
xj8XwavBcdfTQC87bcB4Y5XBmJXHQEY9C8A/iqrB1xazQBBBoT3J0K/BwAMRQbSZJEArsKTBiFUX
QQRdVz4IVajBe32EQE1vjcAnVIzB3JucQDd9Tb9xjJ7Bpk4KQbPbaD95ypbBraSwQHtGAcBf4qDB
0u+tQEIjRsAXCJnBuRCdQJB1ZT45FKbB9kEKQbNEEECyNJrButkQQUgf371S2J3BNeGFQIVtXsCa
o5TBWyXBQCNhTUAmaovB9mHRQEb0kUBuT5zBr+bvQBCZqEC2rYrBFTmuQFL7A0C5E5LB9BeuQITV
bEDllaHBI0TjQLdjgUBOdpHB89+BQK/qi0AyOKDBuPOKQLQCxD9RGaPBexIIQZ2emUAxMYPBNzoG
QRh3UUBD25LBmoetQDF3EkDv6J3BogQcQf/VIkBI64HB/J0qQaX7jEBZQo7BzFkRQY4Wsr9feprB
dtwYQejwa0CtIYnBAuAqQHJgNcCok5nBelHvQBUYo8CYHYrBVXmpQLoktsBg4IHBWtvZQDfrnr8r
drnBllQcQX4A5j8xzLPBgCTyQCQrXcDABpnBl03YQCRORsBfLKzBBHqzQHbUYj/HjbXBMkkRQQeC
ZkC8SafBtUEcQUzLEr9Lvq3BSDdMQE27lsDu7YjBrN2MQF38KL8v8ZbBkFIFQTlRKT+Swo7BJ++m
QHJVeECUCInBPhzQQM7wMUDKOYTBOkvsQF8OlEBV9aHB6hfEQIAXskAt85rBxh/9QDbwwUCH0I/B
qubTQOX8tEBjVobBNUTBQFM/lD9/gZDB3xaNQJ0a8z9eaI/B2Oi0QKMwbED2N6rBCE9SQEXtb0Bk
AqTB42h1QGdyj0A6ppfBzEyCQGimq0C3BqTB34B/QH4EBEDkRqrBOSRgQPG3sj91hZ3Bb5EQQUCi
skBGk4DBy77IQMue8T9koqDBKcjEQIw5ecBn/IbBWrSzQGgfpcBkeonB2ebHQLKZob+3ObHBjhsX
Qek70D8gD6zBGUa/QETKNMDYIY7B0ZrDQBgQEcBrbanBak60QEAjg7ygma/BDcoQQQxAKECSz6TB
DlgXQUB/jj4k0qjBgu+aQEnPqsDcypLB14WYQLLDRr/YXZ7BrsgKQc7abj/0FpfB/JWrQDJHAcAT
D6DBjiepQNooQsC8zJfBaaqcQEhAWj7FMabByHsKQZhIEkDMT5rBCysRQeDvi73XVp7Bz+aUQKZ6
iMDV45nBbJbBQEwdSECvcYvBJR3RQJvTkkCqypvBc9DuQEf6pkDT6InB8H+vQOSaAEDBlZLB8o6u
QJ4lb0CGbaHBLyrjQN2sgEBBIZHBV8iBQBqgi0AGzJ/Bb6+MQCGQyD9K36PBMgwIQfAGmECfuILB
am0GQWJsUkAc0JLBpfuuQCRqE0CsWJ7BqiMcQTTuH0BsBYLBKK4qQconjUDH3I3BbaMRQTBArr+Q
MZvBNfAYQfa7akDw8ojBls5oQJ/5jsCTMaXBsxDWQMvHb8AFMn/B3525QHHuv8DNOoTB7SPaQEFz
ub9PabjBBMYbQTkz8j9NGrTBLOzLQOGZ7L+8OYzB1a3SQLOMTsCkmarBkVq3QC5XQz8EibXBCsMQ
QSh6akDGSKfBKEIcQZsR+77IXq7BLZuMQGeIycDoeJTBtdGGQFnHFL/QHJfBLxwGQR1iKj83DY/B
z+WmQBTocEBY0IjB9czQQKR4KkA0bYTBWhLsQIuQlkBgX6HBzRjDQPNgskDFE5rBg7H6QHjEwUDL
yI7BAKXSQHlosUBxUoXBOgTDQIXOjT/kUJHBSWSOQMQJ6D9KC5DBP2C1QIhsckAtDarB7ypTQLy8
b0Aw2qPBrwp1QIwqjUDkMZfBGGWBQGEdrECVLqPBC1SEQEsHBUB5YKvBCnlgQMD1wD81tp7BcG8Q
Qe0vsUC9GoDB+XPKQE6n9z86M6HB

>  <OMEGA_E>  (19) 
yN0XP1RRLT+Wfyw/NDInP1R5Fz9ArBk/qFUlPw==

>  <OMEGA_NBR>  (19) 
     96178

$$$$
50220690
     RDKit          3D

 66 70  0  0  1  0  0  0  0  0999 V2000
    6.1937   -0.9441  -22.4577 C   0  0  0  0  0  0  0  0  0  0  0  0
    8.8742   -0.2238  -19.4766 C   0  0  0  0  0  0  0  0  0  0  0  0
    5.4379    0.1793  -22.0736 C   0  0  0  0  0  0  0  0  0  0  0  0
    8.4920    0.8950  -18.7117 C   0  0  0  0  0  0  0  0  0  0  0  0
    6.3659   -2.0161  -21.5614 C   0  0  0  0  0  0  0  0  0  0  0  0
    9.4561   -0.0428  -20.7465 C   0  0  0  0  0  0  0  0  0  0  0  0
    5.0714   -0.8186  -19.8834 C   0  0  0  0  0  0  0  0  0  0  0  0
    9.2547    2.3759  -20.4966 C   0  0  0  0  0  0  0  0  0  0  0  0
    4.8648    0.2286  -20.7875 C   0  0  0  0  0  0  0  0  0  0  0  0
    8.6796    2.2012  -19.2226 C   0  0  0  0  0  0  0  0  0  0  0  0
    5.7877   -1.9584  -20.2798 C   0  0  0  0  0  0  0  0  0  0  0  0
    9.6446    1.2577  -21.2562 C   0  0  0  0  0  0  0  0  0  0  0  0
    3.9545   -3.1882  -17.2748 C   0  0  0  0  0  0  0  0  0  0  0  0
    5.0618   -4.2116  -16.9266 C   0  0  0  0  0  0  0  0  0  0  0  0
    3.6270   -3.4398  -18.7537 C   0  0  0  0  0  0  0  0  0  0  0  0
    5.3645   -4.9606  -18.2390 C   0  0  0  0  0  0  0  0  0  0  0  0
    6.1330    3.1335  -17.4296 C   0  0  0  0  0  0  0  0  0  0  0  0
    6.5096    4.4508  -19.6055 C   0  0  0  0  0  0  0  0  0  0  0  0
    7.4770    5.3071  -17.4802 C   0  0  0  0  0  0  0  0  0  0  0  0
    4.9261    2.6577  -18.2552 C   0  0  0  0  0  0  0  0  0  0  0  0
    4.9502   -3.9739  -19.3252 C   0  0  0  0  0  0  0  0  0  0  0  0
    5.9781    3.2783  -20.4545 C   0  0  2  0  0  0  0  0  0  0  0  0
    7.1270    4.0224  -18.2522 C   0  0  1  0  0  0  0  0  0  0  0  0
    5.0773    3.8899  -21.5552 C   0  0  0  0  0  0  0  0  0  0  0  0
    4.2316    1.4730  -20.2752 C   0  0  0  0  0  0  0  0  0  0  0  0
    8.4954    4.9251  -16.5150 N   0  0  0  0  0  0  0  0  0  0  0  0
    8.4497    3.3287  -18.4331 N   0  0  0  0  0  0  0  0  0  0  0  0
    5.3191    2.2164  -19.6057 N   0  0  2  0  0  0  0  0  0  0  0  0
    9.5047    2.5723  -16.1528 O   0  0  0  0  0  0  0  0  0  0  0  0
   10.7409    4.2773  -17.6482 O   0  0  0  0  0  0  0  0  0  0  0  0
    5.9999   -2.9716  -19.3875 O   0  0  0  0  0  0  0  0  0  0  0  0
   10.2224    1.4359  -22.4652 F   0  0  0  0  0  0  0  0  0  0  0  0
    9.5084    3.6876  -17.1086 S   0  0  0  0  0  0  0  0  0  0  0  0
    6.6415   -0.9838  -23.4397 H   0  0  0  0  0  0  0  0  0  0  0  0
    8.7212   -1.2205  -19.0897 H   0  0  0  0  0  0  0  0  0  0  0  0
    5.2978    0.9999  -22.7616 H   0  0  0  0  0  0  0  0  0  0  0  0
    8.0551    0.7560  -17.7338 H   0  0  0  0  0  0  0  0  0  0  0  0
    6.9408   -2.8813  -21.8570 H   0  0  0  0  0  0  0  0  0  0  0  0
    9.7579   -0.9004  -21.3295 H   0  0  0  0  0  0  0  0  0  0  0  0
    4.6794   -0.7499  -18.8794 H   0  0  0  0  0  0  0  0  0  0  0  0
    9.3966    3.3711  -20.8915 H   0  0  0  0  0  0  0  0  0  0  0  0
    3.0652   -3.3537  -16.6489 H   0  0  0  0  0  0  0  0  0  0  0  0
    4.3190   -2.1606  -17.1295 H   0  0  0  0  0  0  0  0  0  0  0  0
    5.9621   -3.6941  -16.5639 H   0  0  0  0  0  0  0  0  0  0  0  0
    4.7073   -4.9134  -16.1574 H   0  0  0  0  0  0  0  0  0  0  0  0
    2.8241   -4.1844  -18.8580 H   0  0  0  0  0  0  0  0  0  0  0  0
    3.3296   -2.5071  -19.2553 H   0  0  0  0  0  0  0  0  0  0  0  0
    6.4353   -5.2005  -18.3152 H   0  0  0  0  0  0  0  0  0  0  0  0
    4.7755   -5.8872  -18.3060 H   0  0  0  0  0  0  0  0  0  0  0  0
    5.7637    3.7198  -16.5753 H   0  0  0  0  0  0  0  0  0  0  0  0
    6.6755    2.2504  -17.0612 H   0  0  0  0  0  0  0  0  0  0  0  0
    7.2820    4.9759  -20.1867 H   0  0  0  0  0  0  0  0  0  0  0  0
    5.6740    5.1368  -19.4022 H   0  0  0  0  0  0  0  0  0  0  0  0
    7.8682    6.0721  -18.1671 H   0  0  0  0  0  0  0  0  0  0  0  0
    6.5877    5.6980  -16.9641 H   0  0  0  0  0  0  0  0  0  0  0  0
    4.4477    1.8165  -17.7321 H   0  0  0  0  0  0  0  0  0  0  0  0
    4.2097    3.4873  -18.3474 H   0  0  0  0  0  0  0  0  0  0  0  0
    4.7926   -4.4801  -20.2890 H   0  0  0  0  0  0  0  0  0  0  0  0
    6.8418    2.8181  -20.9566 H   0  0  0  0  0  0  0  0  0  0  0  0
    4.6739    3.0859  -22.1884 H   0  0  0  0  0  0  0  0  0  0  0  0
    4.2472    4.4388  -21.0865 H   0  0  0  0  0  0  0  0  0  0  0  0
    5.6707    4.5801  -22.1729 H   0  0  0  0  0  0  0  0  0  0  0  0
    3.8152    2.0632  -21.1048 H   0  0  0  0  0  0  0  0  0  0  0  0
    3.4320    1.2319  -19.5592 H   0  0  0  0  0  0  0  0  0  0  0  0
    9.0551    5.7261  -16.3024 H   0  0  0  0  0  0  0  0  0  0  0  0
    6.0370    1.5369  -19.4540 H   0  0  0  0  0  0  0  0  0  0  0  0
  1  3  2  0
  1  5  1  0
  2  4  2  0
  2  6  1  0
  3  9  1  0
  4 10  1  0
  5 11  2  0
  6 12  2  0
  7  9  2  0
  7 11  1  0
  8 10  2  0
  8 12  1  0
  9 25  1  0
 10 27  1  0
 11 31  1  0
 12 32  1  0
 13 14  1  0
 13 15  1  0
 14 16  1  0
 15 21  1  0
 16 21  1  0
 17 20  1  0
 17 23  1  0
 18 22  1  0
 18 23  1  0
 19 23  1  0
 19 26  1  0
 20 28  1  0
 21 31  1  0
 22 24  1  0
 22 28  1  0
 23 27  1  6
 25 28  1  0
 26 33  1  0
 27 33  1  0
 29 33  2  0
 30 33  2  0
  1 34  1  0
  2 35  1  0
  3 36  1  0
  4 37  1  0
  5 38  1  0
  6 39  1  0
  7 40  1  0
  8 41  1  0
 13 42  1  0
 13 43  1  0
 14 44  1  0
 14 45  1  0
 15 46  1  0
 15 47  1  0
 16 48  1  0
 16 49  1  0
 17 50  1  0
 17 51  1  0
 18 52  1  0
 18 53  1  0
 19 54  1  0
 19 55  1  0
 20 56  1  0
 20 57  1  0
 21 58  1  0
 22 59  1  6
 24 60  1  0
 24 61  1  0
 24 62  1  0
 25 63  1  0
 25 64  1  0
 26 65  1  0
 28 66  1  1
M  CHG  1  28   1
M  END
>  <OMEGA_C>  (20) 
yzLGQCivcb9PqbPBuvwNQRg3Zb4R0JvB7QKuQLamNz6qlrDBN98HQUweZT98sZXBbLXLQEwIAcC+
fazBXUwXQVBhL73L+KXBUUmiQLSQUb8qEZ/BHxMUQZ4OGEAa+aPBOaybQMQfaj7VTKbByd8KQRTh
DEDcx5nBgzS5QAat+r/3PKLBVlAaQUj7oD/EDKrBlRZ9QHALTMC/MorBCvqhQETFhsDFaYfBlCFo
QKclXMCYB5bBl6mrQKC9nsBn6ZHBT0HEQPeLSEDmb4vByU7QQEBtjkD/15zBjUPvQO7TqUBk14vB
eqKdQFEXKkCuCpLB+WeeQD9UfsD9mZrBdEy/QLTPUUDCoqPBRhDkQGi3gEBxBJLB9niiQJv0eEAf
cazBSGmHQD+KvD+PM6LBFO0HQX6anUClHoTBJjIHQf8IVUADd5PBJTaqQN/YDUBy2JzBERMYQQah
JEDmOIHBqtorQWffiEBuL43Bbv+/QG0uPsCOGZvBEo8jQVfKtz+1uLPBRiIYQTgCbEBk3ojBCIfU
QBXYe79whLvB6YkLQYk4nL+pt5jBuoepQMb7fz/OF7bBsOEAQfOHQT/X3o3B4RreQGNnOMAc267B
VCAcQYmAZr/MoqrBCb6VQMn2P7/7CJfBiVgWQWW/V0C8IafBQixEQEKjVsDpMIXBoDWKQPZGCsAs
CYnBpsm+QGRrbMD3goTBR6KWQJ06ncBHQoHBQr40QITmhcAv3ZbB3RdVQBV0IMDICprBvu3NQJZq
psCHhZLBkdCYQFdkvMDEcpLB92+4QMsQbkAnmoTBcZ3VQDoGEEBpfYjBzQXpQGU6n0BXfqHBvpG1
QGxgpEDDN5vBGcj7QGVOwkApVpHBfc7SQGBWtkB0tofBPFOOQJSE6D9o243BF7aGQIowX0Bmx5LB
XV2ZQNRcj8DlT6LBZvDaQINcNEAyp6fBl5CVQIZ/RUDDgbHBreiHQFEKjkAvsajBIHa1QCOQkkAo
YrHBqyx0QP0LBECQ1qjBoaZbQJWunT9JeZzBreEQQQM8t0Bha4LBJC/BQDK6xD/WoZvBX83MQDjW
aL87qrLBMhAQQUhyGL5qsZvB0kCzQNAtRj4h1q/BMn8JQfIbdj9Sk5XB/wvQQG7GAMCstavBD9AY
QSAAMz2b96XBn/+hQA60X79n7Z7BfisUQRATHUD9E6TB3eGdQMBWTD7b66XBJIMLQYw6EUC0yJnB
02+5QNIHAcAN+aHBa8waQTdOrD+JKarB3G65QB2OgMA2cIXB5FGrQNY9qcCZf4vBcqKdQDzHOMAN
4InBCbGKQM6LmsCm6ZPB63nFQIaRSUCjRovBDiLPQKowjkCR5ZzB0trtQIDLq0CcK4zBlXKfQKoc
JkDnqJHBfWqTQKBFVsA/QJXBNJu+QNQ8UED0gKPBnc/jQMPFgUBqF5LBbU+gQIKAdUBJJ6zB5IOI
QDs1tT9VwKHBzM4HQbynoUD2mYTB8FMHQeBhWUC8i5PBljOrQMpXC0CDlJzBfhkaQXQrMUBbdoHB
wogrQQqGj0CcNY7BGOu4QE/LSsCA/JvBwF8jQV/PxD92+LPBlKwYQe91dkCUXonBH+zdQO0Sab+c
K7rBxGMOQZXakr/GgZjBpg2wQKbogz/WPLXBd+wCQW9uUD8VrI3B6ePjQA+5NsCl2K3BtP4dQT5n
Tr8hoKrB6iyTQFsGVb8rIZfB0bkVQa3cXEBIUKfBZg20QOxbhMB6lnnBzX3bQIPUc8C36obBawHH
QDdZuMD6Z4/B6HOcQI4jwMCH8YXBBTKAQJtiMcDpI4XBP0qvQDXB97+x84nBLpePQHafq8B5gpvB
yZ1TQKX1n8BjFJHBGgG5QLydb0Bzj4TBLCjYQMdgE0B6J4jBkDLnQI5En0DJsaHBrv2zQEafo0DT
QZvBnsf4QBpYxEDZ2pHBt0jRQGRnt0CF7YfBFG+SQKHQ3D+mX43BHsaGQEohWEAVNZLBU29uQEyq
NMCmbZjBqDvaQJlGNECFsKfBgJyTQC4qQUABHLHByaiFQBCji0BUQKjBQSqyQOpDkUB5PLHBhVJ0
QKF1/z+NT6jBijBfQHI3kz8k6ZvBVD4QQWIxvEC+HoPBKs7CQF3IwT/tkZvBTBnFQGcnZL8MtrPB
X3waQYuRpT/0gKrBM6GrQFjVWz4O47DBk9MTQfYcGECZI6TBEVnMQKWu9b9UPKzBUmIYQTwRw7yB
qqbBqtegQHTjO7+/Ip/B95kIQecWUz/kI5bBYQiZQPjKjT6DoKbB38sKQUd9CUD/95nB31O6QI46
6r+57qHB9X0PQRlVhL7pepzByaFtQIR6X8Aqr43BxdCcQIuuh8BId4jBq1J1QBNTccBVtpnB4VO2
QFaSm8CQwpHB2dDDQPQoQ0AahovB14rQQJ6PjUCNppzBxwLvQJ/epkDFZYvBsy+dQCHwJkC2MpLB
t+SqQLuPf8BNXJvBFxy/QLolUkBFsaPB48XjQLz0fEA33pHBA36jQOGde0BMkqzB3TiFQO/4wz+Y
q6LBSMkHQdeomUD2yoPB1eUGQVGNT0CMVpPBDdeoQJIQDkDcLJ3Bl9QaQZJNIUDSz4HBABYrQc2i
ikCiGo7BCBrDQM0/McCYVZrB9i0OQTe7wr/nq5jB7a4YQcSjaUBjPYnBpw7TQKBsc7/EmbvBuTUh
QUJ3vD9DVbLBs1umQISXgT9Uj7bB3KMVQYjEWEB2DqfBlqffQN2CMcCCZK7BNpcdQUzPWr9niKvB
7jmTQEoTK79DNpfBXKYBQZzKJD8WXY7BL3cwQJj6d8DflYrBNBlyQJVfGsCIGYzBWQKxQKBqYsBj
84PBuQqRQDfZoMAkEIPBWb9QQDJflcAL9JvBfaNeQMRXOsCXa57BIOfYQARUmsCMI5DBHJisQIv3
vMCEG5PBLSi4QPc1Z0C/jITB3PbUQOOxCUC+yojB46vpQNBhnkCnJ6HBkiK2QGTNo0C075rBMIn7
QO75v0AntpDBoJXSQFDqskCnK4fBEwuOQGOu3z8sPY7BXEaGQB1KXEASmJLBaUGxQBaFkMDL76LB
urfaQGABNECapKfBoWeWQHNaSUDmyrHBZAuJQFHKj0A+5ajBs2a3QJ60k0D6VbHBtApyQHLDCEAG
WqnBm/RVQNJHqD8oEZ3B8D4QQfROs0D5joHBWxa/QBdgwT/uOpzBnHnMQBv5YL8Vq7LBTd0aQcpu
qj8KQ6rB6YyyQIyaXD4X16/BEvMTQTAGHED6OKTBYEjQQMQM/b+XsavBmYgZQXCICj0D8KXB/BWi
QHGOWb93357BrQkKQWWAcj+VkJXBkledQNT6YD4W5qXB0nULQWojEEAI4ZnBctq5QFI1/r8076HB
IiARQRTOIr6+l5vBlYy6QEGngMBHhIXBWOGrQI06qcDziIvBaaCeQEu/OMDV1onBg6GLQCE1msDL
ApTBiFjFQNUrSUAVUIvB5yTPQPowjkAm7JzBfA/uQPZIq0A1KIzB1NqeQKBuJ0BwppHBA1OUQNNp
VcDmO5XB9XC+QLdfUEDRgqPB88DjQHp8gUAEIpLBVu2gQNe8dUA7UKzBMquHQBiitz9JvqHBIaoH
Qf9QoEABioTB/ToHQWkkWEDKnJPB81uqQM1fDECMkJzBvkAcQfaIMkA1EoLB/toqQQiskkCcCY/B
E8e5QDb3SMBa9ZvBA2cQQfKGs7/vWZfB2xkZQbkleEAKz4nBUnXdQCxJYL9tMbrBpzEhQesnvT89
N7LBTe2uQCAthj8ZRLXBoCYVQVC3W0BNhqfBcWzkQGEGNMAR1a3Bo/UeQcReUL9HjarBLIKTQM48
T7+3C5fBXYUDQWhqTD/apo3BSq+1QK55hMAVtXnBSYrcQDtMdMDJH4fBxGLHQG7fuMDFY4/BhYuc
QMjAv8DZ9oXBVzyBQHHaMcDoEoXBBDewQAeI97/K2onBReSQQCMEq8BPoZvBGEFVQB3An8BwSJHB
uWu5QEXmbkDygYTB5MnXQF0vEkCrUojBGkrnQPQon0AQuKHB1h+0QJbDo0CbRZvB6JT5QBzKw0Cd
x5HB4H/RQIM7t0Ay+IfB2EyRQLp64D+DXY3BbLOGQMt3WkCpLZLBNSRwQH2jM8A3WpjByB7aQIhy
M0AokqfBUSuUQFhaQUCDQLHBlkeGQKNDjEBZjajB7mGzQFvwkEBDYrHBxKtyQFPrAEDBTqjB821d
QJBllT/T6pvBja8PQaLXukDyjYLBjbrBQL3swj/BhJvBkRfTQFiulr8Gd7HBjMEVQVBbGD6XZ5/B
s/u8QADfdjybWK/BSHgOQUTBiz8+3pfB/ZnOQAYrEcDrcqrBr2QaQZhkDT/F86nBuB2fQGVSdb9e
GJ/BPEwQQSLENUCjdqXBjlujQGCl3T3PIabBcpsLQcY6HED+45rBsoazQPYMCsBWXKHB15sXQfT+
8j9h+6zBaqDmQBr8s8CNjIvBH54DQZ/vjsD4UYzBm+m8QIi9osDCMpDB957wQIwkVsD8bpLBQvfE
QKLkPUD374rB+A/MQGoCkUArIZvBpuzqQHJqpkCdfonBkLS0QDBI6j++MJLB7BvMQBsRgsDRQZjB
AFyqQCBbZ0B7TqDBL/nhQLJuf0CB05DBNBF5QHeqgkDUfZ3Bm66PQA4MsT9tMaPBqa4HQS/UmkCY
7ILBRLwGQZreWUDOL5PBRH6wQAHRC0D1z53Bj9IfQXLsL0AmQIPBeTQpQWzOmEDhL4/BIripQJOh
TMBEwJrBqkocQVjSEkARD7fBa58ZQUSJeUAJ3InBvGXnQODZoL9sbbjB/skXQaRZYr+6GJ3BMqG/
QAmdWj9Ov7TBHhELQe1jSD8mxI/Bba/fQGIDTMBv96vBiBQgQT/jLb6dtq/BMhuMQOrzWr9I7ZfB
NUQOQVDVd0B2yqfBpsrxQIWxz8ATNJDBvwviQBl9vcBSJ4PBBywIQX7yg8CuRoTBAP8RQZpemcBs
rJDBwn2qQJ1VvMDIG5TBtDKpQL6rk8Dz9InBLgrkQPyOJcBZ5YzBekADQR+cN8BeLJjB0R2pQCor
YEAfrofBJGbXQCN1IUAtVoTBB0DlQE3ulkCNGKHBYEa8QFpjr0CSFZnBwmvyQLTbwkAaVI7BV+zO
QCUOrUBObYTBujLLQAgAfT/DhpHBZwmVQIt3wj94Q4/Bs4HYQDMyksBJcJ/BVtStQDTDbkC+A6nB
ezJKQHJuWkDeR6HBEmxwQPH0gUCKwpTBw2pvQPV9o0A2bqDBMGGEQNDA8z/JaKrBahppQMLmmj+D
wp3BN+YOQeqJtUB2ZYDB0ljMQBez9j+FK6HBEWjHQByQsb/CrbPBNNkQQX/roD0A65/BEn61QLAz
Ar7ETbHBu7sLQWLJhj/gL5jBBlTIQJRhGcBUzqvBQZ8VQVf07j5tfKrBcLykQM7iZL8HPp/B1j0Q
QYmqM0ChlaXBju+jQJ999T3GFqfBHzYLQUQTG0AIAJvBcUa3QPRRCcA3i6HB31kVQRlr6j/DUa3B
wtgOQYFLjMAzSo7BP/EAQZ1ThcD6NITB2Z8AQYGygMCe6ZfBY4vVQKoUb8DjRIjB4aHFQBXCOUCZ
AIvBxv/LQCtEk0BwnprB15LsQD5wo0Buh4jBYQayQOwv7j+XvJLBNUHeQDqRR8CeQJPBV5qmQOxg
cUC1ap/BfoTiQM5afkAtipDBs1h1QFSIhkCdr5rBM/WQQGkSvT+5iKTB2/IGQU9zkkDRi4HB2CIH
QabBWUAQPZPBPQGvQGLyE0DWIZ7B30kdQVjFGUAjF4PBb0kqQRSjkUCvdIzBUgC4QPOxR8BGxpnB
xyEaQU4tDUAYcrfB+RQZQSueakBrtojBfG3UQI8fyr+QiLvBCRwRQUFod7+LvZ3BQzW1QHZGJj+b
TrfBFTIIQZ6yQD8TFJDBaxLWQCcbV8BQoK3B4HwZQQrBj75NarDB3hWXQGfINb9IcZfBSSwQQTeP
dkB0wqfBCAMdQRvabsC7DI7ByPgTQYPnrcAr0I7BWWX/QN80o8CgMX/BtusHQQ5RWMCbR37BLOwJ
QSMAX8D/BZ7BPinzQIGpncBcdpvBYyPAQPJVk8B//IjBaSfHQD2sP8BK2YLBiUqrQOwgW0BA64bB
ICjZQKpuF0CqEYXBEVrkQINgl0Cp46DBW0W/QKG/skBFTZjBnCL4QBIFwEBxxozBfOPPQHCuq0AS
3YPB2/TFQJJqdD8tepLBLZGRQDuHzz/464/BJrrqQJg0BsAsRZLB356lQBRhf0CdCajBBCBCQO4l
ZkDWQp7BG9N1QErNgUBO95HBcvppQIuEqED0e5zBc7WJQPfE/z+5EazBT4JmQFTmqj9i85/B1XoO
QebBqkAq6XvBBP3LQFLhCUDiR6HBIj3QQIa5oL8xg7DBBpASQYiL4r0jCZzBCEi8QICwnryJna7B
sMILQYvQdj/6l5XBvFrHQBRjFsDNzKnB3mcZQZCv/D3BmqbBSjSWQK3HeL/6Xp/Bm8QSQXiFIEDZ
TaTBWsefQOgH8T2y96XBFcALQcbLEUC1vJnB+KupQNl3DcCDXaHB9XgZQQyDtz84varBlnmeQMAl
X8AfhYPB+vK3QPNPC8DxQYXB2sSyQO/CkMB8E4vBgkzZQDaFIMBz343BHmnDQAonT0CG2YvBtBXT
QPH8kEA+Lp3BbpnvQLjBq0CUqovBIJqxQE/5AkBIVpLBQvPEQKpJa8BEHZTBthWvQCrwaUAI7qHB
LL7kQPvmgkCCDpLBzLuCQBVviUAC6J/BhFyOQArruT/8SqPBqkQIQRPGn0AfB4TBeGgHQXIsV0Ah
EpPBEHywQP3OD0DRNZ7BDQEcQSLqL0DteYHBKYIrQRimkEAdXY7BtgihQEI2UMC4o5rBiV0gQRJA
1T8s0rTBD2AZQVTAdUAOOonBFFLmQEHJrr+5GbfBiocSQYzBjr+J3ZjBqsnCQDOhUj85xrPBLo0G
QSCHSD/Ke43BKzrXQE/mUsBhGavB8ZkeQdeaM7/fiavBtQeAQGcyXL/qzZjB6P0SQYnZYECGdqfB
/jOhQGBZdMAJUHbBDBh5QBWQVcD4iIXBwZaiQB3Er7+BA4jByMjHQGQU778ZmHvBO0jMQAayosC3
/obBB4eaQJ87p8DsGY7B9MXeQF5v0r+6JJPBesX3QNIjNMCzNorBJIKoQB/LeECglonBYsvSQHP9
NUAeloTBVfHtQOzckEBn3qLBVp/GQAS/sUCFXZzBepb7QLXQxEA0EpHBLAjTQDyBt0BHcofBA7PF
QDeGlT/+p5DBvLiQQOMj7T/Lmo/BvCzdQAZQh8BruZjBEtizQMRcaUASpqrBtEtTQMDlaUBuWqPB
pvJ6QAm1jEBfPpfBjouBQDE1qUB+rqPBkXiDQOc2+j8VoqrBipBmQJUgrD+xvJ3BZpEQQTTkuUDq
/YHBHRDMQKrN7z+D9KDB/MfGQKzGsr+dvLPBTmcRQe5Q+z1L8Z/B3Zu1QIKPA758U7HBWSUMQU61
iz83OJjBctXGQDxTGsCX66vByCwWQbRkAD8we6rB/GKjQPVVZ794Yp/BkKAQQXC2NUAHk6XBHImj
QMSq7z0wK6fBaYULQdwNHUBXAJvBakC2QPLiCcBbnaHB6doVQRts7j9STa3BQQYKQb7pAMDb1ojB
KBYVQdTVPsB6xJDBPqzlQCnC7b9+wIzBXqoDQZQPXcDVpJjBOsbFQIU6OUCICIvB9UHMQHpHk0Am
mJrBgFTsQGxYo0A1cIjBakSyQIp17T8Yz5LB1MDcQH51SsAm35LBNwSnQHlVcUDRdJ/BeJ7iQBZh
fkBogJDB8QJ2QNeChkBhx5rBGQqRQKJ9vT95mqTBPLgGQVFQkkB7Y4HBd0gHQUrMWkC7KpPBTEiv
QPzHE0ADMp7B8a0cQfyCGEBx2oLBEG8qQS7jkECl/YvB5hy3QJGySMDP1pnBGsIaQUvODkDhabfB
juoYQY7WaUCUc4jBbubTQK+Sy78SlLvBIsURQUffa7+dvZ3BCEm2QKT9Jz+eQrfBEpMIQWK+ST9C
H5DB3pLTQCLFWMDSz63B9REaQf2Jfb5lZLDB6cSUQAUbOr8lr5fBwocQQeWZeEBfwKfBwUUKQeTV
G8CKtYDBdi4SQb8Phb9J2YjBZOwhQVV2HcCwG5XBWNYbQeLfdcAJcYzByJrPQI2t37/s84XBkZni
QAqYfL/VEpLBlKEEQfcgOcAnMqDBRVAFQW/zkMB8SprBQF2rQO8/WkD07obB5lLZQBu/FkCNHoXB
P7rkQMp+l0Dv1KDB7Wi/QLy2skAwR5jByQD4QDoAwEBGoozBY3bPQIl7q0D/1IPBwz3GQKgtcz9J
kJLBss2RQJB3zj86A5DBEBvYQG4xfcDh4YzBfTemQCt/f0D3EqjBt+tCQBgiZkBBY57BsiR2QJDD
gUAqD5LBtLtqQFWAqEB5lJzBp/OJQEo5AEChI6zBEpVmQHJrrD+RBaDBpD4OQS2fqkATl3vB7jnM
QI+HCUB/W6HB

>  <OMEGA_E>  (20) 
ADXcPhBl5T7Efug+jI/rPvB7Lj+waTE/yv4fPxD6ND8=

>  <OMEGA_NBR>  (20) 
    104876

$$$$
50220696
     RDKit          3D

 68 71  0  0  1  0  0  0  0  0999 V2000
    6.5427   -0.8321  -22.2740 C   0  0  0  0  0  0  0  0  0  0  0  0
    9.8596    1.3679  -21.3287 C   0  0  0  0  0  0  0  0  0  0  0  0
    5.7360    0.2687  -21.9417 C   0  0  0  0  0  0  0  0  0  0  0  0
    9.3888    2.4283  -20.5327 C   0  0  0  0  0  0  0  0  0  0  0  0
    6.6142   -1.9392  -21.4080 C   0  0  0  0  0  0  0  0  0  0  0  0
    9.7794    0.0431  -20.8558 C   0  0  0  0  0  0  0  0  0  0  0  0
    5.0948   -0.8286  -19.8629 C   0  0  0  0  0  0  0  0  0  0  0  0
    8.7735    0.8404  -18.7816 C   0  0  0  0  0  0  0  0  0  0  0  0
    5.0064    0.2667  -20.7352 C   0  0  0  0  0  0  0  0  0  0  0  0
    8.8373    2.1665  -19.2625 C   0  0  0  0  0  0  0  0  0  0  0  0
    5.8834   -1.9544  -20.2019 C   0  0  0  0  0  0  0  0  0  0  0  0
    9.2298   -0.2212  -19.5849 C   0  0  0  0  0  0  0  0  0  0  0  0
    6.1606    3.0056  -17.5057 C   0  0  0  0  0  0  0  0  0  0  0  0
    6.5919    4.2985  -19.6816 C   0  0  0  0  0  0  0  0  0  0  0  0
    7.4193    5.1747  -17.5671 C   0  0  0  0  0  0  0  0  0  0  0  0
    5.5721    1.8963  -18.3677 C   0  0  0  0  0  0  0  0  0  0  0  0
    5.9509    3.1618  -20.4651 C   0  0  2  0  0  0  0  0  0  0  0  0
    7.1598    3.8826  -18.3109 C   0  0  1  0  0  0  0  0  0  0  0  0
    5.2884    3.8172  -21.7005 C   0  0  0  0  0  0  0  0  0  0  0  0
    9.9399    5.9026  -14.8596 C   0  0  0  0  0  0  0  0  0  0  0  0
    3.5956   -3.6259  -19.0540 C   0  0  0  0  0  0  0  0  0  0  0  0
    5.3912   -4.4815  -17.5204 C   0  0  0  0  0  0  0  0  0  0  0  0
    4.1605    1.4500  -20.3279 C   0  0  0  0  0  0  0  0  0  0  0  0
    9.1044    6.1654  -16.1054 C   0  0  0  0  0  0  0  0  0  0  0  0
    4.9568   -3.2981  -18.3935 C   0  0  0  0  0  0  0  0  0  0  0  0
    8.5063    3.2363  -18.4387 N   0  0  0  0  0  0  0  0  0  0  0  0
    8.4687    4.9301  -16.6024 N   0  0  0  0  0  0  0  0  0  0  0  0
    4.9591    2.4609  -19.5983 N   0  0  1  0  0  0  0  0  0  0  0  0
    9.4536    2.5542  -16.1161 O   0  0  0  0  0  0  0  0  0  0  0  0
   10.7687    4.1823  -17.6272 O   0  0  0  0  0  0  0  0  0  0  0  0
    5.9897   -3.0796  -19.3965 O   0  0  0  0  0  0  0  0  0  0  0  0
    9.1412   -1.4936  -19.1363 F   0  0  0  0  0  0  0  0  0  0  0  0
    9.5065    3.6411  -17.1039 S   0  0  0  0  0  0  0  0  0  0  0  0
    7.1082   -0.8289  -23.1941 H   0  0  0  0  0  0  0  0  0  0  0  0
   10.2823    1.5694  -22.3019 H   0  0  0  0  0  0  0  0  0  0  0  0
    5.6746    1.1153  -22.6095 H   0  0  0  0  0  0  0  0  0  0  0  0
    9.4502    3.4437  -20.8954 H   0  0  0  0  0  0  0  0  0  0  0  0
    7.2340   -2.7842  -21.6693 H   0  0  0  0  0  0  0  0  0  0  0  0
   10.1394   -0.7708  -21.4676 H   0  0  0  0  0  0  0  0  0  0  0  0
    4.5574   -0.8128  -18.9262 H   0  0  0  0  0  0  0  0  0  0  0  0
    8.3748    0.6410  -17.7979 H   0  0  0  0  0  0  0  0  0  0  0  0
    5.3436    3.6425  -17.1358 H   0  0  0  0  0  0  0  0  0  0  0  0
    6.6882    2.5539  -16.6528 H   0  0  0  0  0  0  0  0  0  0  0  0
    7.4142    4.7115  -20.2843 H   0  0  0  0  0  0  0  0  0  0  0  0
    5.8311    5.0759  -19.5178 H   0  0  0  0  0  0  0  0  0  0  0  0
    7.7364    5.9555  -18.2740 H   0  0  0  0  0  0  0  0  0  0  0  0
    6.5041    5.4983  -17.0497 H   0  0  0  0  0  0  0  0  0  0  0  0
    6.3713    1.1955  -18.6505 H   0  0  0  0  0  0  0  0  0  0  0  0
    4.8019    1.3615  -17.7926 H   0  0  0  0  0  0  0  0  0  0  0  0
    6.7271    2.4571  -20.7982 H   0  0  0  0  0  0  0  0  0  0  0  0
    4.8040    3.0417  -22.3120 H   0  0  0  0  0  0  0  0  0  0  0  0
    4.5345    4.5463  -21.3686 H   0  0  0  0  0  0  0  0  0  0  0  0
    6.0557    4.3299  -22.2991 H   0  0  0  0  0  0  0  0  0  0  0  0
   10.3970    6.8433  -14.5188 H   0  0  0  0  0  0  0  0  0  0  0  0
    9.2956    5.4991  -14.0645 H   0  0  0  0  0  0  0  0  0  0  0  0
   10.7307    5.1752  -15.0953 H   0  0  0  0  0  0  0  0  0  0  0  0
    3.2789   -2.7800  -19.6818 H   0  0  0  0  0  0  0  0  0  0  0  0
    3.6979   -4.5266  -19.6770 H   0  0  0  0  0  0  0  0  0  0  0  0
    2.8424   -3.8043  -18.2724 H   0  0  0  0  0  0  0  0  0  0  0  0
    6.3584   -4.2540  -17.0484 H   0  0  0  0  0  0  0  0  0  0  0  0
    4.6356   -4.6587  -16.7409 H   0  0  0  0  0  0  0  0  0  0  0  0
    5.4910   -5.3810  -18.1456 H   0  0  0  0  0  0  0  0  0  0  0  0
    3.7354    1.9134  -21.2305 H   0  0  0  0  0  0  0  0  0  0  0  0
    3.3457    1.1000  -19.6770 H   0  0  0  0  0  0  0  0  0  0  0  0
    8.3204    6.8975  -15.8618 H   0  0  0  0  0  0  0  0  0  0  0  0
    9.7555    6.5736  -16.8925 H   0  0  0  0  0  0  0  0  0  0  0  0
    4.8433   -2.4046  -17.7621 H   0  0  0  0  0  0  0  0  0  0  0  0
    4.3134    3.1607  -19.2927 H   0  0  0  0  0  0  0  0  0  0  0  0
  1  3  2  0
  1  5  1  0
  2  4  2  0
  2  6  1  0
  3  9  1  0
  4 10  1  0
  5 11  2  0
  6 12  2  0
  7  9  2  0
  7 11  1  0
  8 10  2  0
  8 12  1  0
  9 23  1  0
 10 26  1  0
 11 31  1  0
 12 32  1  0
 13 16  1  0
 13 18  1  0
 14 17  1  0
 14 18  1  0
 15 18  1  0
 15 27  1  0
 16 28  1  0
 17 19  1  0
 17 28  1  0
 18 26  1  6
 20 24  1  0
 21 25  1  0
 22 25  1  0
 23 28  1  0
 24 27  1  0
 25 31  1  0
 26 33  1  0
 27 33  1  0
 29 33  2  0
 30 33  2  0
  1 34  1  0
  2 35  1  0
  3 36  1  0
  4 37  1  0
  5 38  1  0
  6 39  1  0
  7 40  1  0
  8 41  1  0
 13 42  1  0
 13 43  1  0
 14 44  1  0
 14 45  1  0
 15 46  1  0
 15 47  1  0
 16 48  1  0
 16 49  1  0
 17 50  1  6
 19 51  1  0
 19 52  1  0
 19 53  1  0
 20 54  1  0
 20 55  1  0
 20 56  1  0
 21 57  1  0
 21 58  1  0
 21 59  1  0
 22 60  1  0
 22 61  1  0
 22 62  1  0
 23 63  1  0
 23 64  1  0
 24 65  1  0
 24 66  1  0
 25 67  1  0
 28 68  1  1
M  CHG  1  28   1
M  END
>  <OMEGA_C>  (21) 
6F3RQK4DVb8lMbLBzcAdQZ0Xrz8doarB8Iy3QJmQiT6uiK/BrzgWQeVoG0AAQ6TBuqfTQI42+L+a
Q6vBV3gcQQCVMD2d2KbBfgijQAAhVL8q557BMWAMQYonVz/GQJbBwDSgQIeMiD7H4aXBeWUNQS6o
CkCnGZrBLkW8QAcp+r+MnaHBTa0TQdSAYr72rZzBjyPFQItcQEDCC4zBxfDSQLiNiUDqc53BJWvt
QEOXpUBpiYzBWk6yQIK78j8D8ZLB622+QC9bSkCLuKPBIR3lQBV9eECkfJLBRjqpQAVNdECemq3B
4gkfQULivEC7wG3Bth1mQJcOaMCWbpjBuYSsQGdoj8DaKYzBgiKFQCyauT+Kn6LBv6sRQSBLxUDU
14DBKp6eQNkUU8DnJZPBwRkIQbYfT0BsgpPBqX8HQTjDnUCm0YTBm7CeQLR/HUA9yZzB70EXQSF4
I0DS7YDBakwsQbzVhUB2BI3B7Ku/QLkYRcAhLJvBhEISQXMtv78vF5nB0xoYQQAHaUDS1IjBZnbj
QJ0yVL+KjbnBJ4QkQajhyD8/arLB65W1QH3Cjj8r4LTBKTQXQXdlXEDXKafBjHznQD4wMsCuWq3B
6zoiQRJRRb+/vavBSdaRQMoWUL/WaJfB/P4FQVAZJD8vYo7Bi/6qQGgfaUAlFonBIwbWQF9yI0D+
OIXBXkHtQO/ElkApRqLBJZi6QP9tokBlJJzBfZD3QM+TvkA/MZLB0yHQQL3xr0C6ZYjBruHLQFUF
mT9INJXBGamZQKRErj81V47BA0TXQK1AHUC5YqbBDbqZQK+rQkAUf7LBsRqRQOp6kUDO8qrB98fB
QMuOikCfZLLBClomQbH82kD0TGjB1LoUQYn4r0BfCGHB2LArQTibpUAnhnHBBtpRQCHrMcBjdJ3B
MKpsQDzakMCTap3BKOo1QOR5c8DSLZLBzHfLQK4giMAeY4jBn1aUQEMUlcBx7YXBo7avQI0xrMAx
KpHB+hBvQJXq9D/316nB6R9WQBTOjD9+ap3BaSAFQXe43EDLyX3BbBYcQSZb0kDJI4fBLfyaQEXl
GcC2GI7BbweKQHZJSkBcV5rBuITOQHrgaL9+Q7LBxlMTQeV/kr5XKZ3BHhO1QKZsVz6Cya/Be7QL
QbsJQT/mnZbBD3LSQF2x+7/Y26rBjwAcQR44DTyjS6fBVdGkQPcKQr8jYp7BLzcVQVB9GEA5YqTB
q86fQK2ejj592aXBJ3QMQcKoBUAJRprB4yy9QB7F8r8K7KDBFPUcQYf6qz+p5arBwG3DQOTTRECc
NYzBvwXUQCFcikDJjZ3Bbt3wQMmCpEA6VIzBQamwQIya+j8U+pLBna6+QP/6S0BC26PBkG3lQJ2c
eEBvjJLB2w2qQEkxdUAh2K3BKy0cQbgB10D0JYDB7VCrQPi/kMBJ0IzBClxnQEdFTsCzuJbBZuuE
QJ0rvT/x2aLBFKQNQdqbs0AQVnfBZVGhQAG+dMCaepfBYYoHQX1YSEBpYZPBAaIGQbwhlUD0+4PB
bC6eQIIOIEApBJ3BLhAaQWBqGECRroHBkEErQVBthkAbl43BrsvDQAtcN8A2RJnBepMlQdPJ0D9S
i7TBP4AYQeywYUACAInBxArfQBejdb9217nBRYgSQTiWp794bJrBXtmxQNYFgj+FfLXBC0gFQSEe
CD+xy47BYb3lQPMONcC8y6zBee0hQaT7Sb+eT6zB19WVQEojLr9Sn5bBmvwVQW3zWUBmIafBCoip
QAw1cEBKvInB55XSQE/mKEBLE4XBlNDuQKbmlkC3UqLBmUS8QKnXo0A0S5zB2qAAQUXRu0D2fpHB
wxXUQGlPs0AH3ojBIxDKQEB+nj8f+JTBW16XQCFyuT95aI7BYz3XQA/kHUC9aqbBskGaQJ5nQ0DR
prLBgEGSQDB9kkBVUqvBK/jCQNdGikAqq7LBLukgQa677ECZSHPBLI0qQZB/yECGs4PBqHgTQVgf
6UC2T4bBSZvLQAeznsCnJY3Bvr6pQLuWcsCFQ4bBor2TQGJEqsCcZYvBdXtXQF7OLcAFRp7BvOg4
QE7qgMDwPZXB8+pkQJPiH8DZG5DByutvQL/s9j+pMarBFsZUQGqEkj84uJ3BAH0WQczuoUCm82rB
+ND+QJOOwkAGLHDBjYOhQCeCksBK4p3BBl6JQAtSTUDbzJrBTeHRQIwNUb9ZGrLBfocTQbXWdb6i
iJzBPfe3QIKNkD64dq/BFC8MQcF8Uj9JHpbBncbTQDz/9r9AO6vBdoEcQUBE0zxtqKbBb0qiQK5w
Vb/Q/p7ByGIWQexcGkCmC6TBPf6fQGaRij5U6KXB0VMNQa2KCUAv9JnBwdi7QHo7+r8Rq6HBDwge
QdpBrT8WYarBVvLEQGyzQEDiEYzBg1XTQJeAiUAVfJ3BrIvtQBWUpUDKiozBsh2yQAZo8z86+ZLB
rl6+QGO0SkBqwKPBVSzlQPBdeEBCepLBIwKpQFtGdUBLk63BTMMfQXY8vEAfBG7BwVtmQFe+asAc
V5jB726tQEnjjsBQC4zB/PmEQCJtuj9cqaLBMxIRQeM0xUALeoDBI52eQOZ8U8BBKJPBSQkIQbgn
TkCnZpPBG28HQayfnUCjxoTBJZSeQKvkHUDT0ZzBLQMZQeQrJkAWHIHBewksQZ6biECcpo3Bd0y/
QD5hRcCbQ5vBaiUnQcgMzz+09LPBjI4YQSdxa0ApD4nBwVnkQMq1Tr+0Z7nBpUkSQbvzoL+Is5nB
f2a2QJlVkT9iv7TBt64FQX90Hz8LRo7B7L3nQABvMcD0TK3B7DciQSu5Sb9lkavBDHaQQIwQVL8U
mJfBeXYXQWJjW0Db7KbBkdKqQNbAaUCXKYnBF5vVQOnHI0BYNoXB6OntQGdAlkAtS6LB5lS7QGbA
okCHOZzByvf3QDhzvkCvMpLBbDfQQOgisEBKdIjBC6/LQCWcmT+IOpXBQ26ZQIcErz+2YY7B3PnW
QFtfHUD9fKbBZy+ZQE0FREBzdrLBdCGRQGcXkkC02arBbIfBQGTzikAbZbLBeJAmQbCA2kDKJGjB
nIwWQVnhrECbImHB18csQX7WpkAaGXPBOdxQQG+dNcBWc53Bi85tQDdtksBROJ3BG6M2QOVRdsDU
CJLBO1DMQDrAhsCnV4jB94KVQCOmlMBYwIXBrxixQGfqq8DV75DBYN9uQG3C9T9646nBurdVQEPl
jT+mdZ3BzC8EQUXI2kCruHvBCGsaQWq91ECV14bBo5GaQMjJGcDDN47Bge+JQBi7SkAuYZrBUL/N
QDzRcr/lDLLBf7AdQQNUsz99G6vBFIe0QEy7Qz5e/6/BCqMVQXWaGkD+baTBCoLRQJrt+r/EPqrB
FK4cQVgNYT2XzqfBJ1miQEsiNL9EdJ7BeI0LQfm4PD/OJ5fBp3SeQHRJnD7AMqbBrW4MQVxRBUDt
eprBJfO7QKcU6r+zY6DBDpITQaR1jb4g1p3BudvCQOVNQUDOPYzBOTrUQFyPikAhPZ3BAZzwQEhL
okCuuYvBLY2vQNAA+T+JVJPBEYi/QGyXTUA25KPBhTblQNQddkBCTpLB0IOsQLz9d0DS/K3B37AY
Qen92ECHYoDBAICuQGx7kcBF5IzB3x9qQGJ/V8DVOpfB142EQC+YxD/tiKPBCLEOQc2nsECLx3bB
7oCkQLUzdMDjaJfBhG0HQcX/RUB2UJPBzuIGQTJHkkAYkYPB2A+eQBK6IUAVXp3B8UgaQX53EkCB
4oHBiT4rQSAJhUBNYI3B9LvCQAcXLsDvNJjBVLISQfhuyL8doZrBvZEYQXpTXUDY8IjBrjXeQJEM
hr8im7nBXqMkQRel0z9+wbLBlxuyQOGUeT8t6bXBPoEWQZyxXEAM7KbBD9nkQNxbNcAB0KvBzOQi
QQlQOb9f7KzBYH2RQOzEHL+A8pbB8bgEQTRK+D7deo/BuUWpQM2bbEC+jYnBYtDRQAm8IkBkQIXB
+iDvQPH4l0BU0aHBUy+8QHWmo0AS1pvBojUAQZaOukBVupDB49PTQKswsECzCYjBJXjIQMUHmz9N
XZXBR4+VQFjRuD8H9Y7BKkLYQAdWH0B/TKbBPEmdQHXfRkApA7PB3ICUQMHpk0AwnKvBxDXGQJPA
i0BeiLLBnTseQY6B7kBZ/XPBglYmQerDz0DDcIXB+aUMQUCI6UDjSoXB6SDQQM3hm8Db5ozBavyo
QLVvd8A2HYbBpoiZQBCXrcAMIIzBwdVaQBneNcCKuJ7Bj55AQGX/h8CybJbBFoZfQF9ALMDdaZDB
aVZzQHctAEAXBqvBoD5RQJdZnj8gvp7BE9gaQSmNoEAa62zBiicBQX9RukBan2zBCB2pQAF0kMAB
HJ7BUIWJQMheT0BCHZvB623XQLRkar/kgbDBl+AXQZ7zor0xpJ3BuF6+QBzNYj5TVa7BKEQPQfVE
ZT+kvJbBmBzTQL80BMCpGqrB9tsfQUotmD7RwKfB9LmdQI3NbL9ZMZ/BkW4WQb2RJ0A5HaTB76eh
QNzzXD6NlqXBjU8OQbWtD0ANC5rBPZa1QIiSBMBekaHBdC0fQZz60j9q9qrBD2XEQDd+QUCyE4zB
fjHTQAMsiUAwj53B7jTsQPKnpkA2oYzBAIKzQPKJ8D8q+JLBMr+/QGlFSEDqyqPBOKTkQEt+eUDj
bJLBSr2qQJqWb0BE4K3BR8YbQTNOvkD2vWvBN3/FQFOvIMC2F4rBv63CQFSFncByoo/BuNKGQDQX
tT9Sv6LBIlwPQaAxx0DYHoDBjFPLQPGYX8Cvf5PBxtcHQUBdT0D2/ZLBY3UGQV9hn0BWrITBWgmg
QLhbG0AN5pzBovMZQa3tLUAJxoDBPzArQVRGjUAZv43B7mWtQCrXTcDq8pvB0TgnQStqAUBKi7TB
N18YQS+wcUD34ojBxOjtQKvtZ7/CEbfBJF0YQcewjr/cMJvBvQ/BQEqEjD+hVrPBc2gJQbWgHD+V
7o7BOVTmQBwuPMCDuKvBPX8mQW8O5r6YCq3ByEWIQIbaa79Ma5jBnO8VQRPJaUBplKbBR16pQCOa
aUB1f4nBRIrUQK27JkA+AoXBS7rtQOB5lkARSqLBR2S6QBPFoUA6eZzBM+72QL83v0C1VZLB2nrO
QNdIsUDOvIjBBxLOQDucmj8rF5XB+i6bQEWsqD8ld47BHynZQHaxG0A7P6bBFxycQI11PEDEsbLB
s/CRQPjNjkDqcavBIj7DQFZUiEBXp7LB2i8iQRyB3EDOXWXBYgsRQRe1r0Bc2l/Buw4pQQJGqECh
M2/B87LLQEcIvr8B3IzBUIukQDouJcDYDIfBzRbcQHIGMcAtqYPBhtPGQBP3s8B3VZbBgEXZQF+s
pcCXM4nBA7qhQEPAn8BCl4zBSad0QF+s7j8qJarBGe9XQHV5iz8ksJ3B4SgCQQFa3UC/qnzBOiwa
Qezq1UACAobB3GXsQC80W8BCdpbBvDGLQEIOSEBwhprBWXPYQEf6b78mlbDBnsAeQY5Q4j8Hr6vB
UlC/QKQwTT42bq7BGl0VQQDbLEAFtKTBHpDUQN44BcD2FKrBrAUhQUJd2T4XfqjBeEafQA/Wb79A
Kp/BMmgQQSkQcj+qV5fBlcmiQOjnSj5IpqXBH/kNQRVsEkBDk5rB1ku3QCI/BcBmeaHBK98ZQWAg
YDz+UJ7BilzEQLQ+QUBx94vBqMfRQBpdikBJN53Bx4jtQEskpkDOHYzBRWKzQGJf8D+/75LBDDi/
QNIKSkB6paPBZ4DkQD0lekDKP5LBWCqqQCmWcECOwq3Ba1oBQXD54ECaBXXBgPPcQK/zEsDMTIzB
q6TIQFsal8C/kY3B54qHQDhUsj9D4qLBieERQbrFwUCiOn7Bk4fUQI1WXsAfDZTB3aoHQW+gT0Cw
NJPB+4wHQUeLnECaUITBYtSfQN/rGkBa45zBF9oZQWgqJkDaNYHBWZMrQcR/ikBzuY3B9m2xQFcL
TMBQL5vBS3EcQXmDor81LZvB/JUYQd9WbEDUAInBU6juQCq9br/oM7fBtzgkQWQyBUDDfLPBBdPB
QLZfiT/YerPBG9ATQfX4bkCVGafBeeHnQFsaPcCCrKvB2kAoQQFzlb4z2q3BsfmJQDnhbb+AXJjB
DAMLQVkrIj/1hY/BgE6pQB38aEBXUYnBr6DUQB0DJkCv8YTBD2/rQFo8mUAo9aHB/ia4QAvaoUBi
1ZvBVXX4QEU/v0CtpZHBjGnQQJfzsEA6+ofB0ffNQJSXmj9rEJXB6xKbQF9QqD+RcI7BIEfZQBXh
HkCuEqbBs1mcQIjmPECtorLB/LiQQM6qjkCpX6vBU3TCQHZ6iUBMdrLBbqUJQTIX/EAUdm3B1w7u
QKPV7EDl/YDBnwfvQABk0EBWA2nB0n3lQBkDs7/N6pDBfuy/QDwvBsDClYfBMmz3QLKWI8Ch4obB
yKDCQGj7scB1DJPBCCPjQDVWn8A+J4jBVKOrQHqikMBf2ojBmuR2QJKW6z83VarBSNpYQIR7hz/4
853BQ7EbQYiz0kDNEYXBpy0cQeZBtkAmK3HBI97xQAVKa8DtopjBG1WKQGdcRkDIg5rB

>  <OMEGA_E>  (21) 
4CcVPYCuXD0AM0s88K/xPWzwqz6IW7s+

>  <OMEGA_NBR>  (21) 
    111642

$$$$
50220698
     RDKit          3D

 62 65  0  0  1  0  0  0  0  0999 V2000
    6.5435   -0.9026  -22.3022 C   0  0  0  0  0  0  0  0  0  0  0  0
    9.1960   -0.2310  -19.5375 C   0  0  0  0  0  0  0  0  0  0  0  0
    5.7429    0.2096  -21.9773 C   0  0  0  0  0  0  0  0  0  0  0  0
    8.7592    0.8408  -18.7349 C   0  0  0  0  0  0  0  0  0  0  0  0
    6.6340   -1.9893  -21.4120 C   0  0  0  0  0  0  0  0  0  0  0  0
    9.7093    0.0182  -20.8260 C   0  0  0  0  0  0  0  0  0  0  0  0
    5.1631   -0.8242  -19.8558 C   0  0  0  0  0  0  0  0  0  0  0  0
    9.3197    2.4075  -20.5218 C   0  0  0  0  0  0  0  0  0  0  0  0
    5.0532    0.2464  -20.7460 C   0  0  0  0  0  0  0  0  0  0  0  0
    8.8087    2.1621  -19.2315 C   0  0  0  0  0  0  0  0  0  0  0  0
    5.9161   -1.9649  -20.2007 C   0  0  0  0  0  0  0  0  0  0  0  0
    9.7727    1.3383  -21.3166 C   0  0  0  0  0  0  0  0  0  0  0  0
    6.1407    3.0768  -17.5045 C   0  0  0  0  0  0  0  0  0  0  0  0
    6.5977    4.3300  -19.6816 C   0  0  0  0  0  0  0  0  0  0  0  0
    7.4714    5.2381  -17.5322 C   0  0  0  0  0  0  0  0  0  0  0  0
    5.5680    1.9333  -18.3517 C   0  0  0  0  0  0  0  0  0  0  0  0
    5.9658    3.1634  -20.4635 C   0  0  2  0  0  0  0  0  0  0  0  0
    7.1681    3.9372  -18.2970 C   0  0  1  0  0  0  0  0  0  0  0  0
    5.2992    3.7761  -21.7182 C   0  0  0  0  0  0  0  0  0  0  0  0
    5.6787   -4.7746  -17.0326 C   0  0  0  0  0  0  0  0  0  0  0  0
    4.1954    1.4219  -20.3404 C   0  0  0  0  0  0  0  0  0  0  0  0
    4.6491   -4.7568  -18.1718 C   0  0  0  0  0  0  0  0  0  0  0  0
    4.6140   -3.3791  -18.8112 C   0  0  0  0  0  0  0  0  0  0  0  0
    8.4859    4.8953  -16.5502 N   0  0  0  0  0  0  0  0  0  0  0  0
    8.4978    3.2405  -18.4073 N   0  0  0  0  0  0  0  0  0  0  0  0
    4.9707    2.4573  -19.6074 N   0  0  1  0  0  0  0  0  0  0  0  0
    9.7791    2.6855  -16.1942 O   0  0  0  0  0  0  0  0  0  0  0  0
   10.7119    4.4684  -17.8158 O   0  0  0  0  0  0  0  0  0  0  0  0
    5.9037   -3.0848  -19.4075 O   0  0  0  0  0  0  0  0  0  0  0  0
   10.2829    1.5826  -22.5445 F   0  0  0  0  0  0  0  0  0  0  0  0
    9.5939    3.7630  -17.1746 S   0  0  0  0  0  0  0  0  0  0  0  0
    7.0881   -0.9217  -23.2346 H   0  0  0  0  0  0  0  0  0  0  0  0
    9.1376   -1.2432  -19.1656 H   0  0  0  0  0  0  0  0  0  0  0  0
    5.6566    1.0340  -22.6697 H   0  0  0  0  0  0  0  0  0  0  0  0
    8.3862    0.6522  -17.7390 H   0  0  0  0  0  0  0  0  0  0  0  0
    7.2527   -2.8398  -21.6574 H   0  0  0  0  0  0  0  0  0  0  0  0
   10.0540   -0.8023  -21.4378 H   0  0  0  0  0  0  0  0  0  0  0  0
    4.6681   -0.7778  -18.8971 H   0  0  0  0  0  0  0  0  0  0  0  0
    9.3635    3.4177  -20.9013 H   0  0  0  0  0  0  0  0  0  0  0  0
    5.3137    3.7243  -17.1776 H   0  0  0  0  0  0  0  0  0  0  0  0
    6.6416    2.6489  -16.6236 H   0  0  0  0  0  0  0  0  0  0  0  0
    7.4175    4.7453  -20.2862 H   0  0  0  0  0  0  0  0  0  0  0  0
    5.8271    5.1002  -19.5303 H   0  0  0  0  0  0  0  0  0  0  0  0
    7.8501    6.0075  -18.2211 H   0  0  0  0  0  0  0  0  0  0  0  0
    6.5643    5.6082  -17.0320 H   0  0  0  0  0  0  0  0  0  0  0  0
    6.3759    1.2301  -18.6022 H   0  0  0  0  0  0  0  0  0  0  0  0
    4.7922    1.4096  -17.7739 H   0  0  0  0  0  0  0  0  0  0  0  0
    6.7555    2.4649  -20.7771 H   0  0  0  0  0  0  0  0  0  0  0  0
    4.8313    2.9774  -22.3124 H   0  0  0  0  0  0  0  0  0  0  0  0
    4.5314    4.5004  -21.4087 H   0  0  0  0  0  0  0  0  0  0  0  0
    6.0610    4.2865  -22.3258 H   0  0  0  0  0  0  0  0  0  0  0  0
    5.7006   -5.7737  -16.5729 H   0  0  0  0  0  0  0  0  0  0  0  0
    6.6741   -4.5342  -17.4344 H   0  0  0  0  0  0  0  0  0  0  0  0
    5.3994   -4.0283  -16.2744 H   0  0  0  0  0  0  0  0  0  0  0  0
    3.7659    1.8760  -21.2456 H   0  0  0  0  0  0  0  0  0  0  0  0
    3.3842    1.0611  -19.6910 H   0  0  0  0  0  0  0  0  0  0  0  0
    4.9291   -5.5040  -18.9290 H   0  0  0  0  0  0  0  0  0  0  0  0
    3.6543   -4.9981  -17.7690 H   0  0  0  0  0  0  0  0  0  0  0  0
    3.8373   -3.3568  -19.5898 H   0  0  0  0  0  0  0  0  0  0  0  0
    4.3853   -2.6253  -18.0435 H   0  0  0  0  0  0  0  0  0  0  0  0
    8.9799    5.7246  -16.2891 H   0  0  0  0  0  0  0  0  0  0  0  0
    4.3073    3.1514  -19.3280 H   0  0  0  0  0  0  0  0  0  0  0  0
  1  3  2  0
  1  5  1  0
  2  4  2  0
  2  6  1  0
  3  9  1  0
  4 10  1  0
  5 11  2  0
  6 12  2  0
  7  9  2  0
  7 11  1  0
  8 10  2  0
  8 12  1  0
  9 21  1  0
 10 25  1  0
 11 29  1  0
 12 30  1  0
 13 16  1  0
 13 18  1  0
 14 17  1  0
 14 18  1  0
 15 18  1  0
 15 24  1  0
 16 26  1  0
 17 19  1  0
 17 26  1  0
 18 25  1  6
 20 22  1  0
 21 26  1  0
 22 23  1  0
 23 29  1  0
 24 31  1  0
 25 31  1  0
 27 31  2  0
 28 31  2  0
  1 32  1  0
  2 33  1  0
  3 34  1  0
  4 35  1  0
  5 36  1  0
  6 37  1  0
  7 38  1  0
  8 39  1  0
 13 40  1  0
 13 41  1  0
 14 42  1  0
 14 43  1  0
 15 44  1  0
 15 45  1  0
 16 46  1  0
 16 47  1  0
 17 48  1  6
 19 49  1  0
 19 50  1  0
 19 51  1  0
 20 52  1  0
 20 53  1  0
 20 54  1  0
 21 55  1  0
 21 56  1  0
 22 57  1  0
 22 58  1  0
 23 59  1  0
 23 60  1  0
 24 61  1  0
 26 62  1  1
M  CHG  1  26   1
M  END
>  <OMEGA_C>  (22) 
DGTRQJQPZ7/WarLBzCITQeh/bL65TJzBdMW3QNyrVj5p0a/BrSUMQUM/Vz/64JXB8knUQOSf/r+1
S6vBIlkbQcDmlDyzm6bBQjilQIb8Ur+q2J7BSx0VQWwUGkC/LKTBorOhQKhPfD7X96XBiPAMQb1f
CkAW2pnB01C9QJiB+7/+mqHBGV0cQfpMqz9miKrB5IDEQPDqREA4CYzBhCDTQESPikDyc53BUBXv
QHiep0D9QYzBVS2yQKd29z800JLBwue+QOB1SkBLtaPB+2DlQHT6e0BLYJLBDZOpQHarcUDzvq3B
SLi1QHnJmMDHQojB2UCGQCgCtj8yuaLBKsWUQBU4mMDeX5HB66WTQJRDWMBOfZbBO8YHQSymnEDN
ZoTBBvcHQc5kT0AtQpPB2w+fQPZDHUDj25zBYHccQfjeK0ChjYHB4GMrQVn9jkDJho7BHeu8QOts
RcCTQpvBooYkQbCTyj8rW7TBmIAZQTjUcEChZYnBi9HiQG/3a7904LnBpzMSQQYin78XU5nBwwK1
QDlZhD94W7XBsC0GQYP3Jj+G6Y3BNBboQA+/NcBOQq3BXN0gQfFlTb+kgKvB2GCVQB0bR78sLZfB
7tAVQa67WkDKNafB9gmqQFJabkCqa4nBC4jUQMSGKUAt/YTBKFztQHfZl0AQSqLBh3e6QOw0o0AX
PpzBHzT7QIw9wEDJxJHBcQ7SQK92s0CdQYjBoAfMQLdznT9m0ZTBaVmZQKNutD/+MI7BVy3YQInA
HUBsN6bBpZmaQB+NPkDaf7LBMAGRQFQDkEDtRKvBFfTBQPMqiUAnm7LBA2u2QBzCuMBSlYTBS5LV
QAoYkcCyeYvBoMesQIrngMDiMYLBTAVxQIgf8D8W96nBOJdYQIPQhz8zh53B5rqdQMEgsMChbpfB
dOBpQELwn8DSJo7BcpZ1QELWVsDqt5zBk1SMQDIEKMAGWZDB0a0PQfgvt0AnUILBRNWJQOGwSUC0
n5rBwJ7MQLgRb7/teLLBSz4cQepvqz8UqqrBxxu0QDImMz7bXq/B9noVQQ2YGkCXPqTBu5zRQKNF
AcDGdavB0aAaQfBgnzymz6bBN5akQF4uZ7/9Q57BSLQLQWZRWj8VDZbBzeyfQBbtRj47SaXBUhAN
QVQqC0A99ZnBuzi+QNktAcCtRqHBvkwSQf5wZb4rhJzBLefEQKgrSkAfF4zBqd/TQENvikAP153B
5+zwQAA9qUCK4YzBcU+yQGZC/j/AfZLBq0u+QNphSUA3waPBgzPmQMY8fkCEq5LB0DeoQGsIcECr
u63B4QRaQNC2d8Bay5bBRkKFQD9Asj+v8aHB2UKSQP0vh8BjRI/BCcG2QDOnTMCPA5DBrCQIQaQZ
nkAZu4TBuDAIQR07UEDIXZPBqbyeQNmnHUAolZzBwlUaQeY3KkAlFoHB+kEsQUZVi0Ak3Y3BwODG
QENkSMAX6prBqOQQQTrEvr9Ly5jBDjcZQSSobkAvH4nB6qbbQCTdc784QLrB2asiQdxCwz9/i7LB
jK+wQDsSgj+NuLTBJb0WQbJYW0BnM6fB05fkQNueN8DN563BacYfQZNtTr+0v6vBdquUQPheZb/A
mJbBHZsFQQXmKj+gGo7BVp6qQAkNdUAcvYnBpaDUQILjMEAY4YTBZ03uQGtBlkBj2KLBpPK7QA/t
o0Dh0JzBuXz+QFiPwECWiJLBTwjUQATCtkAgKYnBpBrMQGRVoz/1YJTB572ZQMKyvT+Hpo3BcvrW
QBOiG0DeVabB/T+YQHLZPEC+RLLBFl6QQHrTj0A1MavBVFnAQGqLh0Bq1LLBkEUnQCwPlMBnBpbB
x1RAQEV5OMDto5TB/ytxQDNSdsBeGp/B+0xsQHbT6D+FH6nBAqVYQBRdhj8nX5zBBFOGQA3+h8C0
/YbBoL6eQITqpsAldJHBNrKqQOxNDcAeo43B2NfQQD3VX8BZnYrBlpcQQdI1uEAO2YLB9aOJQFu2
SkBSeJrBdzHRQKqUar8xgbLBkiMcQTO9sD9C+6rB7cm3QJouUT6B+6/B8fkUQcv+G0BDdKTBRjLU
QLdl/r/ZPqvBYVgbQQgdYT0+MafBQ9qkQA8JT79x657BcTEMQa5lVz+IVpbB54uhQIHcgj5CJqbB
w+4MQen0CkDiH5rBWYK9QPR/97/sh6HBlE4TQT0pXL4S4pzBOrrEQN2vQUAXA4zBccPSQAj1ikDD
KZ3Bgx/vQOEfpkAbzYvBDgmyQNec9D9mBJPB6ke/QEvOS0DmqaPBCV7lQCWAekCuNZLBaOKqQL2J
c0Dlx63BtoyyQPounsBjv4rBd2KGQGnFuD96EqPBF0mLQPWIh8A6jY/BUNiUQIopbsA90JrB64oH
QdwGmkDt5oPBTxAIQdIST0BBV5PBFyGfQOKtHUA4AJ3BpL4ZQS38IECNNIHB9uorQbSciUAdD43B
AS29QC52QMCr2JrBjckSQa8zvr/SMpnBFsYYQWzjaEDawYjBoVbiQCj2c78xALrBID4iQWwbyz8O
5bLB51C1QOEjgz+ckbXBB6QVQd0IXUAmXKfB7MrnQLsgNsAaHq3BEuYgQaw6Qb+SMKzB0GeUQOph
Q79dVJfB6ikGQVhnIj+FaY7B42WqQOBsakDdJonBSRLVQBB0JEDAIIXBK6fsQORimUAK6aHBdJy5
QN/rokAOv5vBacb7QCctv0DSHJHBtv7RQCnYsUCl0ofBtqrLQII2mj/aIJXB5f2YQK8UsT9kf47B
YOjYQIWTH0DmE6bBKYKcQM6jQEA0r7LB0feRQGy/kEAWaKvBwKrDQMRiikAUc7LB/c+qQPKvqcCt
qILBMnW7QMZ+ucA21Y/ByXbNQAiQh8BoUYrBeG9zQF8q9D9DZarBX09XQJAgjD96Ep7BHu9gQNlI
nsCT7Y/BJ3mCQDW0WMDFaYrBQMSWQE1PksCjXqDBbyt2QLfDQsDWXp3BauAPQYUItEAR0IHBG+eJ
QCrTSUDtrZrBxDDLQG5VcL8pmrLBxLERQcHvhb44jpzBprGyQIJnMj54lq/BvycLQblNUD+8DpbB
5IbQQFCzAMCGdqvBpmQaQWDZTbyow6bBG9WjQPp4X7/tUZ7BspAVQfyeGECkE6TBrOCeQLJWWD5p
dqXBV90MQXDmCED93ZnBR3G9QEEJ/7+0PaHB/WMcQaPmpz+NgKrBVnnEQP21SUCJJozBKIvUQAIt
ikDq153BfnnxQIZgqEBvy4zBGpWxQA3B/j+lnZLBx7W+QE5+SUD71KPBt1fmQLD/fEBso5LBkV+p
QP/CcEDk3q3B/cVVQE9vdMAqiZjBhLKEQHsCtj+IKqLBnyOOQJ+Kh8BGoZDBnNGyQF11TcAPO5DB
uRQIQc+hnEDfh4TB6BwIQXrvTUDzP5PBno+eQI2oHkAzvZzBz/8YQScJJUDCwIDBIWYsQaDwh0AE
MY3BXRHHQNwJRcCFqZrBfRYlQfI3xz9sNbTBJ9AYQSXjaUB/wIjBG/PZQGvCeL8GabrBVAsQQU9i
o7+qt5nBhwGvQL+VgD/6CLXBDtUEQf32Hz/xKI7BFIrjQOQyN8AK163B2ocfQVQdVr/GuavB2CWU
QCc0Wr9xn5bBDf8WQed8WUBA+abBcGmqQOdCdUA/1onBqcfTQB7SL0C+6oTB7knvQHa6lUBByKLB
N+W8QDryo0Bp2pzBX8j/QJ17v0AlY5LBppzUQDVktkDoLInBnR7LQJx6oj8Yd5TB4KCYQEJcvz+m
1o3BLjHXQJgRG0C4V6bBpESZQCIIPkCFdLLBQ7yRQKCDkEC8ZavB9fPBQIqUh0AN5bLBV9AiQN6A
ksAYkJjBjO86QGJdNsC9FpbB7R9xQJXXbsBDnaDBBhpsQHCt7T9JX6nB0M1WQCmdiz9lppzBshOA
QEZyisBwmIjB4iubQF+vpsD2HpPBB+ylQI7wDsBryY3BWdDKQEjAYsA4XorBlsoQQZtetkAOoILB
18KJQC5aTEAcqJrBHcvBQJffib/BtbTBxUz5QKCgEUHCspDB7nmsQFRguz3iYbHBDhYBQdZK+UB8
PI3BfCbJQOjTB8DYX63BH5XYQPxeFUHmMZjB36ulQAKuVL9fY5/B0fbIQLdg3kC8oJjBhhSeQM4I
Vz4gvKbB2VfqQJn61UAuNJHBHcC7QIlBAMDin6LBlnDAQIkcBEEnJ5zBYx3mQOoIdEAdYJ3BYLCs
QFMthEB6pI7BQfnyQKcNP0DzUorBLpvPQLgHIkAuM6HBWquQQBoJY0DBzpfBzgveQIAHg0BTN5HB
UL5FQBr0U0Cna5PB5j9uQN/mP8DHWI3B6DiIQP/jvT+DC6PBpAqkQCP3XsD5CIrBkEbIQCDjMsB7
YpDBiDwQQUbEUkCiRIrBL8P0QLHOq0DL2I3BTQGlQFSXEkAPBZzB4rwjQUWGq0BEC5LBDBkXQb0a
rECWyXzBr0/EQE5sRMC7zZvBVfKgQAaKB0FTYaPBnnsUQQ1Sn0C3oYnBHIPMQMEXlr9q47zBm9UF
QYTgHkGNlo3BpCenQLSTZT/Z+7bBJrUNQTzk80DZfYfB6ivZQEhfQcCy/q/BoQXSQPdyJUEr55rB
DaCaQCBsPL+PPJfBDdW1QKsvxEBdnJvBQl8EQa0tbUBSs57BYgTaQJ9AlUAND6LB6yijQBWepUAb
Ro3B3+SmQAXKYkCjV4fB3hDmQLo9QEBsI4LBHEntQLJx/z/+5I3BOr7KQJm7JkBM5anBDYLkQP1i
1j/mbJ/BzvCOQC1JiUDASJ7BzBQdQOCEOUCVzJnBqWVIQNqSJkBws4zBgcQqQI2JiEBfpZDBypA9
QN5wYcCTkYjBkCppQBkn9b8D9IvBiOtjQJ2BTcBC4pXBJOZ+QF9PBUAJF6rBA05WQO01nD8ljZ7B
XJ2oQL53UcBseYHB2P2lQOcyksCrZ4vBRorGQOK52r8YEo/BMVLnQAz/SsAGiY3BRgYXQQ3tNkAW
6oPB2OiqQK1Z3D/am5XBMQHCQFiCir+6qLTBIpPBQNVNBEGjKpzBX9esQED8uj0TYbHB18fJQKqY
3kDxsJjBCfzIQBUgCMBlTK3B1PTZQBxsFUEsLZjBS2+lQKlXU7++YZ/BGIMBQfr0+EBaOY3BzDWe
QAjxWz5nwabBMgTrQJ/d1UDGO5HB9Vy7QHg7AMDYkaLBKYn6QAiDEUG8qZDB7YrmQFLKc0ACW53B
2tusQAh6hECPt47BYc7yQILJPkCcRorB8PbPQMboIUDqL6HB/vWQQPaxY0A+6JfBkkHeQJP+gkAO
N5HBmRZGQMIkVUCukpPBVgFsQCDYPsDTZI3B53eIQPoPvz8IH6PBHL2iQNBrXsDBAYrBbEXHQPDS
MsAcTZDB9i0QQazuUUBFJ4rBTR71QPCkq0BQ143B3TOlQMn7EkAGEZzB2f4jQTXTqkDK35HBnRAX
QS+mq0DYi3zBe4/DQHBqRMBRuZvBF+UIQSD8IUE5uozB7ZIUQSDankCGhInBCOXMQEE6l78B0rzB
O3moQEtIB0Fr6qHBPdGnQJF+ZT+9/7bB8o22QIGUxEBIu5vByeLYQOfnQcAV4q/BFLPTQCSKJUH/
3prB8TiaQBAOOr9YP5fBbBEOQaFO80BgdYfBypcEQS6sbEDBop7Bq6LaQJAklUCPEKLBBn+jQFf+
pUDiZI3BOcamQHWtY0CPaIfB2rPlQFw7QEA8HILBmALtQBj4/j/p143BNFTLQKZ0JkBZ5KnBbrPk
QHLc1T9RXJ/B2nmPQE6OiUC1Zp7BTI8dQDbBOkDD95nBC0JIQK/nJ0D31YzB4UkrQAg6iUBK1pDB
Y+A6QNQPYMDhpojBkkNnQCv28r/OAozB/QhiQABxTMAP8JXBOPB/QOjdBUCLMKrBOX1WQJYgnj8o
q57BOiGnQH7sUMCucIHB74OkQDTxkcDvXYvBWLTFQL2J2r/d/47BFivmQGVFS8CFZY3BMNkWQWL7
NUCUxoPBX9yqQLA73T8po5XBlnvCQEukjL9wN7TBMkj+QKO0EUFQO5HBm7WtQH/nxD0MSrHBOMcC
QTV5+UCFho3BEZbHQH1+CMD+qKzB6breQHegFUFAA5nBdC2jQFidRb/bO5/B4A/NQAlT30D/PpnB
k9GdQJICgz4Sz6bBi0LtQBCM1kBMh5HB/Ru4QKuB/b+YHKLBkyTGQISQBEFLA53BxgPoQDffc0Ar
V53B4BStQPmqhkA5HY/BU7zxQATOQEDYF4rB6tvQQMajIkA6K6HBJrSRQOd/aECBbZjBl63eQC39
g0CNSpHBwFxGQD2VXEC8YJTBT1uhQCtyq8D8Vo7B18yIQIKQxz+Mg6PBbpC3QOrOg8CvjYnBtC6u
QMwdN8DoNpDBFrsPQUIGUkBxuInBLhX2QDVarECn6Y3BYl6lQNZpFkAwVJzBMp0kQRuBqUDPdpHB
cMoWQQ8mrECJDHzBJ2S+QO34QcA+BJvBbManQGspCEHtg6TB/q8UQda7nkA0PonBcYLOQFWKnL9e
QbzByH0IQRDPHkEZF47BB/OpQEXdYz8NErfBh/UOQcrL80BVkIfBmnPXQEQZQ8DF867BEGfZQJOw
JUHx55vB0E6XQEcYJL/xL5fB0pa5QKJ0xUBVRJzBfFcFQdDvakBKYJ7BRkbdQHIqlUBnOqLBtlak
QKVwqEC78I3B7NilQG7+aEAszIfBRtfjQE/UQ0A/BILB+5vrQKRTAUCXk43BNELNQL5IJkAt6anB
BrPkQM/V1T/4Fp/BpXmRQBCni0A6AJ/BFpAeQFWHQkBz3ZrBUgVGQK78L0CekY3Bhn0sQJ9kjUDU
0pHBQ6eoQMasx8DUaInBCBl9QLg9psDKfY7BMwGtQI64sMDkiZbBAsaBQBqtCUAfuKrB+pVVQHwh
qz9JRZ/Brt6rQFypfcDcWIHBXVPaQIRPicD2ZInBuGmLQCRlLMBGgpDBYNa9QEYl/7/Ze4zBvewV
QSlZNkCyNIPBitWpQJTB5D/7z5XBj5LCQFFgjL8oOLTBlMrFQG3ABEEN45zB5MGtQLgnxz31SLHB
KcTMQMmK30ANNpnBorTHQPJlCMBKq6zB4oLeQHu6FUFo4JjBTECjQGjaRb8APJ/BrLgCQb9i+UBJ
f43B7tqdQG69gj7TzabBXxXtQFOR1kDPhZHBBTi4QK6B/b+uHqLBmzD+QDq0EUEPJJHB4NrnQOkQ
dEBSVp3BmPysQJamhkBVGY/BpqvxQGLIQEAXGYrBa8vQQLa8IkDwKaHB05qRQFxZaECNZ5jBTZHe
QC4AhEBBSZHB1jxGQEk8XEDaVpTB04ShQA2Hq8BQYI7Bq8iIQNlVxz8qgKPBMLS3QCjmg8AKlInB
2EyuQEFBN8CrOpDB1rEPQUgHUkDbuonBkPL1QNlarEBQ6o3BgFSlQN9XFkD/UJzBYJMkQVKQqUDc
b5HBm7UWQQUUrECvAnzB34W+QAMCQsAVCJvBh+EKQcYLIkHbL43B9aAUQb27nkAHO4nBrZvOQFQf
nL8sQrzBGmCtQMXRB0FlzqLBXfmpQJ5EZD+lD7fBFUq5QPzAxUDqRZzB55nXQP30QsBm967BODTZ
QBTTJUHQuZvBE2KXQGeYJL/HL5fByO4OQWGP80Bjj4fB00MFQSlYa0BkY57BfADdQBFAlUCwNqLB
RDikQIZrqEBn7o3B5cmlQE8AaUDixofB1svjQFS8Q0DTBILBoIzrQCNTAUBwlo3B+CvNQF9dJkDE
56nBT7PkQIY01j9UFp/BWEqRQOiUi0D4+Z7Bn2weQLAYQkDd0ZrBShBGQKOjL0C4h43By0IsQBsx
jUDZx5HBItSoQEvGx8AgdInBsGp9QCRXpsD0ho7BNSytQIDCsMCGk5bB67aBQOySCUDQs6rBiJdV
QL+wqj8kQZ/BCQGsQCjtfcDwXoHB5nfaQPBhicCCa4nBBYeLQMCTLMAvhpDB++69QOtw/7+cfYzB
9+YVQW1GNkBAOYPB/tepQHqS5D/NzZXB6NPEQHb1V79OJrPB5vTuQO0w/0DTBZLBIlCrQMxLgT4l
NrDBaqbxQNHy0kBWppPBD9zMQP7h779ow6vBaI77QFpkCEGgL4jBQ/6hQGCYNL/uZJ7BbOYHQeK/
yUCjzIHBWkCZQNQeoD5H7KXBJygBQY7Gt0AjmovBUra7QOOT6L+eW6HBNtIFQeMQ9kCeDIDBrE/l
QHxMZEDf6p7BJa+2QGjid0DCC47BbwzxQHlzBEBVzY7Bi0i5QMaIUkBE6aPBbqiSQLBqP0Ai35LB
FyjkQIKmX0CcUJLB3TmFQCBH9T/+rorBxBwzQASGgMCuKJDBftOBQARbxz8ykaLBAsh3QNpJbcCl
f5jBxh6lQAJdT8AEzpLBsqkPQU8JBECNM5DBMKwCQeKii0CkK43Bu++hQNSxFkAP55zBDCIrQVxf
gEBROpHBpOsbQUSxT0BJ9n3BnKDFQBruNsAQdJrB6lwLQfCFA0FHAm3BetsZQWAQXkA1jIrBok3S
QN8rZb9VGLvBjjbjQADdCUFLUpjBKZClQB1fhj8l3LXB1OTmQAZlxUD8IJvBelvgQH3hLcDnF67B
N+v4QAJqGUFf2obB7SGVQG2DI79+ZJbBA6QOQQWJtUBoT3fBAzf8QC53NEC/5qHBwdrvQHxSkkBd
U6HBmjSwQA6QnUCOFpDBvG62QJs4cEBnTIXB7mDoQKvU8T9eZYbBQcPhQL7Fpz9I5pPB00GnQNhc
h0A/oqTBTmC9QJTdNUAR4qvBEr5tQJdLaEDwn5TBTGZXQCBkpT/hHY7Bb/igQKaFpD9NuIjB8t1y
QA/nGUDtXoPB4K/wP10vi8B3NJTBaAtKQF33mcCvy4rBeoAlQIsQR8CGd4vBSXVrQKBuBkDgmKnB
3PFNQHuBpz/CPJ3BFrWCQLWhk8DoMJ3BP99gQDplOsC/3J3Bw5KdQBoFGMAZtI3BvGixQFf1gcDu
0Y3BVuUVQRjUoD8QpYzBA/23QHnV2D//hJrBVDHOQHLrvL+Qn6vBp0cTQZyvjL6SoZvBvBC+QJDG
H748u6vBn18MQZoMUT8hZpXBFSy8QAnwG8CspaTBXWYbQcBma72zAabBY8SMQLr8PL+bZZ3B5ZwV
QevTFUDK8aPBmTedQOhTSj64gKTBYVYNQXgUCEDyl5nBvPiZQCfuA8D0xp3B2IkcQY0ooD9IKarB
SS/EQE3/R0ADrYzBPIDWQL0mi0DwC57BFQvwQIRyqEDAp4zBXQKyQPoO/z9GnJPB6tTDQDgUS0Da
aaTBhpbmQNNRfUBXwJLBzUOyQG7WbkDnE6/BfUTBQLwMnsC9CYXB06CIQPM1xj8zLqTBvyy0QOs8
bcC7b4vB+RiTQGB0g8Dc6pPBKHMIQYoRnkCA3oTBtE4IQd8mTkBhL5PBcM6hQCQHIkBc+p3BgIUe
QS9+MkAf3IHBx2YrQTA1kUBLqY/Bgsx/QE70O8AyTJjB/oUkQfiTuz/5ELTBkVkaQf3EdEAD7InB
8jzoQC4c4L/027DBiVoSQXSNo7/ddZjBpLDKQBO0Ej/rRLHBFFcGQRrPJj85aY3B5U7IQHamXMBo
iqTBGsAgQePLZL9VxqrBs+BqQHhG3b7cgpfBD6MWQasFVkBCG6fBrdupQPO2ckCtTorBqeDSQCIG
LEDve4XBGZHxQNJ8mEAhlKLBboC9QMiuo0CYK53BH6P7QNAuwUB1NJLBlQLTQMjws0DWl4jB11/L
QIvQoD+4M5XB8IyXQL2nwD/vT4/B42TdQPKsHEDxIabBu5+kQH1EOkCx1bPBOkCZQHRDj0CpZ63B
D2zMQOWXhkDrlLPBT/3YQDnplMAE533BAO+kQJe6q8CdF4HBnFHPQDv3tcCtdIrBJS2FQJt/9T+d
bKzBOKFRQH7GuT/MfqDBsBymQINkPcC+BYbBTH/QQMvdUcDOYo/BHgajQCCOlcBCVJrBxIZ0QGGC
l8BcNZDBmS4QQc/duEC304LB+GKNQGTQUEB2C5zB

>  <OMEGA_E>  (22) 
bPyiPvx6qD6Uya0+gCigPqMxiT/jIok/hNaIPy7ViD/h1YA/9LUQPw==

>  <OMEGA_NBR>  (22) 
    121927

$$$$
50220701
     RDKit          3D

 65 68  0  0  1  0  0  0  0  0999 V2000
    6.4409   -0.7967  -22.4422 C   0  0  0  0  0  0  0  0  0  0  0  0
    9.7676    1.3139  -21.3019 C   0  0  0  0  0  0  0  0  0  0  0  0
    5.6539    0.3096  -22.0776 C   0  0  0  0  0  0  0  0  0  0  0  0
    9.3516    2.3932  -20.5002 C   0  0  0  0  0  0  0  0  0  0  0  0
    6.5753   -1.8842  -21.5620 C   0  0  0  0  0  0  0  0  0  0  0  0
    9.6523   -0.0054  -20.8216 C   0  0  0  0  0  0  0  0  0  0  0  0
    5.0793   -0.7875  -19.9821 C   0  0  0  0  0  0  0  0  0  0  0  0
    8.7064    0.8337  -18.7347 C   0  0  0  0  0  0  0  0  0  0  0  0
    4.9755    0.3168  -20.8399 C   0  0  0  0  0  0  0  0  0  0  0  0
    8.8135    2.1555  -19.2188 C   0  0  0  0  0  0  0  0  0  0  0  0
    5.9172   -1.8817  -20.3167 C   0  0  0  0  0  0  0  0  0  0  0  0
    9.1186   -0.2457  -19.5395 C   0  0  0  0  0  0  0  0  0  0  0  0
    6.1466    3.0808  -17.5137 C   0  0  0  0  0  0  0  0  0  0  0  0
    6.6411    4.3523  -19.6733 C   0  0  0  0  0  0  0  0  0  0  0  0
    7.5052    5.2329  -17.5103 C   0  0  0  0  0  0  0  0  0  0  0  0
    5.5431    1.9623  -18.3822 C   0  0  0  0  0  0  0  0  0  0  0  0
    5.9912    3.2072  -20.4745 C   0  0  2  0  0  0  0  0  0  0  0  0
    7.1931    3.9400  -18.2875 C   0  0  1  0  0  0  0  0  0  0  0  0
    5.3578    3.8578  -21.7278 C   0  0  0  0  0  0  0  0  0  0  0  0
    5.2001   -5.2106  -17.4996 C   0  0  0  0  0  0  0  0  0  0  0  0
    3.5426   -3.8549  -18.8467 C   0  0  0  0  0  0  0  0  0  0  0  0
    4.1583    1.5105  -20.3883 C   0  0  0  0  0  0  0  0  0  0  0  0
    5.7854   -2.8526  -18.0800 C   0  0  0  0  0  0  0  0  0  0  0  0
    4.6216   -3.8050  -17.7356 C   0  0  0  0  0  0  0  0  0  0  0  0
    8.5093    4.8773  -16.5211 N   0  0  0  0  0  0  0  0  0  0  0  0
    8.5180    3.2370  -18.3947 N   0  0  0  0  0  0  0  0  0  0  0  0
    4.9680    2.5163  -19.6361 N   0  0  1  0  0  0  0  0  0  0  0  0
    9.6789    2.6058  -16.1327 O   0  0  0  0  0  0  0  0  0  0  0  0
   10.7638    4.3522  -17.6976 O   0  0  0  0  0  0  0  0  0  0  0  0
    6.1537   -2.9640  -19.4833 O   0  0  0  0  0  0  0  0  0  0  0  0
    9.0215   -1.5113  -19.0743 F   0  0  0  0  0  0  0  0  0  0  0  0
    9.5865    3.6969  -17.1113 S   0  0  0  0  0  0  0  0  0  0  0  0
    6.9422   -0.8109  -23.3987 H   0  0  0  0  0  0  0  0  0  0  0  0
   10.1751    1.4970  -22.2851 H   0  0  0  0  0  0  0  0  0  0  0  0
    5.5685    1.1545  -22.7448 H   0  0  0  0  0  0  0  0  0  0  0  0
    9.4447    3.4047  -20.8669 H   0  0  0  0  0  0  0  0  0  0  0  0
    7.1878   -2.7282  -21.8427 H   0  0  0  0  0  0  0  0  0  0  0  0
    9.9731   -0.8334  -21.4364 H   0  0  0  0  0  0  0  0  0  0  0  0
    4.5173   -0.8049  -19.0601 H   0  0  0  0  0  0  0  0  0  0  0  0
    8.3086    0.6505  -17.7475 H   0  0  0  0  0  0  0  0  0  0  0  0
    5.3342    3.7386  -17.1714 H   0  0  0  0  0  0  0  0  0  0  0  0
    6.6400    2.6239  -16.6432 H   0  0  0  0  0  0  0  0  0  0  0  0
    7.4739    4.7564  -20.2675 H   0  0  0  0  0  0  0  0  0  0  0  0
    5.8847    5.1364  -19.5213 H   0  0  0  0  0  0  0  0  0  0  0  0
    7.8966    6.0027  -18.1917 H   0  0  0  0  0  0  0  0  0  0  0  0
    6.5978    5.6088  -17.0150 H   0  0  0  0  0  0  0  0  0  0  0  0
    6.3315    1.2386  -18.6365 H   0  0  0  0  0  0  0  0  0  0  0  0
    4.7488    1.4549  -17.8150 H   0  0  0  0  0  0  0  0  0  0  0  0
    6.7674    2.4935  -20.7875 H   0  0  0  0  0  0  0  0  0  0  0  0
    4.8763    3.0816  -22.3407 H   0  0  0  0  0  0  0  0  0  0  0  0
    4.6059    4.5978  -21.4163 H   0  0  0  0  0  0  0  0  0  0  0  0
    6.1411    4.3568  -22.3172 H   0  0  0  0  0  0  0  0  0  0  0  0
    5.9645   -5.1652  -16.7099 H   0  0  0  0  0  0  0  0  0  0  0  0
    4.3936   -5.8917  -17.1903 H   0  0  0  0  0  0  0  0  0  0  0  0
    5.6558   -5.5804  -18.4299 H   0  0  0  0  0  0  0  0  0  0  0  0
    3.1350   -2.8461  -19.0083 H   0  0  0  0  0  0  0  0  0  0  0  0
    3.9944   -4.2216  -19.7802 H   0  0  0  0  0  0  0  0  0  0  0  0
    2.7323   -4.5329  -18.5405 H   0  0  0  0  0  0  0  0  0  0  0  0
    3.7286    1.9981  -21.2757 H   0  0  0  0  0  0  0  0  0  0  0  0
    3.3469    1.1544  -19.7365 H   0  0  0  0  0  0  0  0  0  0  0  0
    5.4772   -1.8177  -17.8702 H   0  0  0  0  0  0  0  0  0  0  0  0
    6.6559   -3.1091  -17.4584 H   0  0  0  0  0  0  0  0  0  0  0  0
    4.1486   -3.4585  -16.8049 H   0  0  0  0  0  0  0  0  0  0  0  0
    9.0284    5.6966  -16.2774 H   0  0  0  0  0  0  0  0  0  0  0  0
    4.3240    3.2264  -19.3515 H   0  0  0  0  0  0  0  0  0  0  0  0
  1  3  2  0
  1  5  1  0
  2  4  2  0
  2  6  1  0
  3  9  1  0
  4 10  1  0
  5 11  2  0
  6 12  2  0
  7  9  2  0
  7 11  1  0
  8 10  2  0
  8 12  1  0
  9 22  1  0
 10 26  1  0
 11 30  1  0
 12 31  1  0
 13 16  1  0
 13 18  1  0
 14 17  1  0
 14 18  1  0
 15 18  1  0
 15 25  1  0
 16 27  1  0
 17 19  1  0
 17 27  1  0
 18 26  1  6
 20 24  1  0
 21 24  1  0
 22 27  1  0
 23 24  1  0
 23 30  1  0
 25 32  1  0
 26 32  1  0
 28 32  2  0
 29 32  2  0
  1 33  1  0
  2 34  1  0
  3 35  1  0
  4 36  1  0
  5 37  1  0
  6 38  1  0
  7 39  1  0
  8 40  1  0
 13 41  1  0
 13 42  1  0
 14 43  1  0
 14 44  1  0
 15 45  1  0
 15 46  1  0
 16 47  1  0
 16 48  1  0
 17 49  1  6
 19 50  1  0
 19 51  1  0
 19 52  1  0
 20 53  1  0
 20 54  1  0
 20 55  1  0
 21 56  1  0
 21 57  1  0
 21 58  1  0
 22 59  1  0
 22 60  1  0
 23 61  1  0
 23 62  1  0
 24 63  1  0
 25 64  1  0
 27 65  1  1
M  CHG  1  27   1
M  END
>  <OMEGA_C>  (23) 
nBvOQBbyS7+YibPBGUgcQYcsqD9KaqrBDu20QESCnj7VnrDBTKAVQXYpGUBlAKTBpGjSQG0s8b8A
f6zBxW8aQYBSsLuzkqbBCYqiQNyaSb9u25/BgE0LQYRsVT+V4JXB6TafQIYuoj4suKbB/gMNQXDz
CUAKwJnB6lm9QGHc8L+FiKLBtuURQWCTe77nUJzBVbHEQL4rRUAiHIzBk4PUQOFFi0DvYp3Bhirw
QAp0p0AyFYzB/2CxQJcs+z+xDpPBsLe/QHRDTUCxy6PBBi7mQLgpfEDaTJLBLHOrQOrldkB/0q3B
NmemQEK9psAe/4vBELpiQNq2dsAHxpbBFRGFQI9XwT8jG6PBGiK5QIaQNsDZo5DB++OTQGCFc8CQ
4o3BRiYIQeASnEAfK4TBxUkIQbwrT0BUKJPB1/meQEoKIUC+Fp3BrdwaQfrFJkCrD4HBbTgsQS9F
i0C7lI3B4+rEQHSxPcDJ3ZvBL1gQQV1ywb8emJjBSWIZQTyZbEAF5IjBfCbeQP+ZT797MLvBYs0i
Qfedvz/5R7LBzTCyQLHGkz9Z9bXBqR0XQb7mWUB276bBuALmQKSaLsDova7B2ZEfQQtXVb+5favB
jI2QQMEPTr8Te5jB+O8EQfWDJj/P+o3B4LGqQHZFb0DwXonBFnvUQBDuJ0BHJYXBPyrvQLE0mEDH
I6LBZU+8QDpdpEC4K5zBFrH8QOkVwEChiJHBYSHTQHB7s0CyHojB7ZvKQM6Lnj+JF5XB//WXQNI6
uj81hY7B447YQP6VH0DjTKbBcgqcQEE5RUDMubLBYWOTQPogk0CaVKvB/IPEQLBqi0CuibLBVt2+
QD1JpcDYrYXBdpiMQPiIvMC0hYnB7fu0QOeSssCJcJPBn6RIQOIlNsAHEZjBoaR/QDsXh8DTPZ7B
s90uQE0NkcD+UpTBHKJuQM3C/z+iNKrBNDNWQPnDkz9m5J3BU0WvQM+p6L8r9o7BRP3UQEP7RsDA
qovBFcGEQEBYXcB/cIbBWnQQQV9KtkAhOILBLF6KQMN8TkDdz5rB+qHPQBgXRr9kV7PB9aQRQbvb
g77x15vB9CS2QHd0qD7qf7DByA8LQSRuWD9Jq5XBf1nTQH4f779OV6zBxH8aQQjcV70AFKbBKQei
QE5nSr8p9Z/BuZwVQcDCFkA+FaTBYlqfQDGUpD57wKbBaeMMQYDsCUDn0JnB51m9QLow8L8/gaLB
f4QcQQSRoD/uLqrBTIDFQKykQkAfF4zBzI3TQH7Bi0B5OJ3Bb9DvQC/fpkDR3ovBs6uxQNSB+D9+
JJPBHCC/QMlsTkBuuqPBQiDmQLLTe0D7RpLBTn6qQJo7eEDTsa3BNHWmQGb8psDW/ovBVJdiQIB7
ecDQBJfBhAGFQCx1wT/4J6PBDPu3QOluNsChopDBCTOTQLLJdMAa/o3BWwUIQVMTm0B3BYTBLHgI
QanNUECcb5PBgsOeQJ7VIEAwDZ3BKW0aQWC4I0B1UYHB/FQsQQUKi0D/QI3B83rEQIBvPcBe0pvB
m2wlQURSuj8Q6LPBMkgZQTRfa0CC5ojBllvgQKPAR7/t5rrBwegPQSg5ob8wvZjBiwG0QENDlz9X
xrXBF5sEQW7GMD9IwI3BUjjnQIBbLcB4ha7BNb4fQeW2Zb/4x6rBIyGPQGAFUr9RupjBiAAXQaK/
VkB7RqfBcqKrQJyea0DHBonBayfWQLMWJEDrV4XB2abtQFKemUB7AKLBeO+6QHY/pEA2yJvBTif8
QJ8BwEAKNJHB+bTSQBVkskCa2IfBZbjKQOcdnD/xWZXBrXCYQC21tj+alo7BkjbYQDyNIUAbTqbB
n1ybQOSCRkD9pLLBNCaSQN1jk0DXIqvBdk3DQNyTjECMY7LBI3i+QFb9pMCDlIXBkuuMQBRBvcBX
nInBa8C1QNqcssCFXpPBfXFHQK50OcD8YpjBR3aAQCtEiMA/a57B3EIvQGXoksARqZTBPvJuQCEu
AEDgQ6rB78JVQBZukz/3AZ7BrV2tQLQe6b8dBo/Bg7PTQKCZRcDWjYvBTWGDQMoEX8AInobBi00Q
QZQ1tUDw+oHBkgaKQAGXTUBso5rBwPnEQLBmhL/LrrTB/1r/QCs1EUEDGJDBFFGwQM7GJz7Sx7HB
6+sCQaUv+ECjgYzBBHLIQAqSBcCBO63BjrHgQMeFFUH7CpjBeMShQBVGQL9sD6DB5VbOQIpQ30Dg
r5jB3H+eQIucmj6UeafBUKPtQAzA1UC9zJDBBom3QAsz+b8M0KLBbTXIQPW0BEFBVZzBDcLoQDHe
c0BfAZ3BxXysQK5RhkAUH4/BtkDwQPw6PkA/zonBE6vRQOyFI0A1I6HBeeiRQOSNaUCer5jB1UTe
QFpSg0DU+5DBUuJFQB/3XUCp9JTBcwfGQIpwpsCA3ovBle17QJfngMDf24vBr4qJQM5/zT++KaTB
BHjBQIotL8B3kJDB7HmuQIvQd8BmqonBNwAPQXmLTkCSGonBzK71QElAq0A/S43BqI2lQBWcF0AJ
pZzB15EkQerXp0C/UZDB5cEVQRqJqUDyHHrBDsC6QC2HQcAv5JvBKbGqQIavCEF5/6PB0ywUQa3c
nECKWYjBPinSQDvFkr9cnrzBxvwIQZgeHkFUu4zBrx+uQIz1eT8UcrfBMcMOQfvm8UC4aYbBsSHY
QElqQMBhga/B2/fbQL6yJUHV15rBJJyTQCf3Jb+yOJjB9PG6QL7TxUD/7pvB570FQex1akAX1p3B
17/eQJ6NlUB02qHBCe6jQBQXqEAG3Y3BBVSkQPx4Z0Bt7ofBj4nhQFyDQEAO0YHB1zTqQH+e/j+w
c43BpyDPQBAqKEA45anBo/zkQExk1j+8AZ/Bmo2SQFugjEAEKJ/BAy4fQCMnRUC9npvB48RDQJV4
MEDHPo7BqA4sQEAHjkArWpLBemjoQEJfosDQRorB2Bq5QE6Sv8Btn4bB1VjBQPCvr8BpR5TBclBb
QOjARMA1QYrBVAJyQOsBisDERJTBWoZhQEnkmcDInIbBTaODQCDTDUAuVavBYOFVQDBesT+CL6DB
e6qxQEro5L/Wgo7B3PzjQN/kKcAm+Y7BwdWyQN8mZ8B2L4HBqcoUQZ/TMUAkkYLBlAupQFzt5D9W
MJbBeAXFQA1ihL8yrbTB9CTIQHXkBEHOPpzBbV6wQBQfKD7bxrHB10bOQFWJ30D4rpjBRnXIQHWS
BcAEOq3BrMjgQJucFUHL8ZfBBMShQMsuQL81D6DBF/kCQeAO+EAPgIzBb4aeQPzSmj5jeafB1qjt
QIfA1UBW0ZDBm4W3QCwx+b8zz6LByIj/QEovEUEkCJDBIbjoQF39c0DZA53BFH6sQOpghkCtIY/B
fjfwQJQuPkCq0YnBo63RQKOVI0BuJKHBdeiRQF2YaUCosJjBVELeQGNVg0Ct/pDBDehFQPD5XUA+
9JTBmuLFQEB1psBn3YvBT7J7QJ7ggMC43YvBpI+JQMSOzT+LKqTBG2LBQAQ0L8BOj5DBRluuQCnS
d8AqqonB6vsOQaNnTkDGHInByrD1QNU6q0B/UI3BwZClQOamF0AAppzB4pokQRrBp0CrSpDBDrgV
QZFmqUCSFnrBdbK6QEmJQcBw45vBuYILQeRGIUHIzIvBjisUQRXHnECzV4jBQDrSQKPBkr80nLzB
AXCwQPFECEEYTaLBeTOuQCYSej8IcbfBx9y6QBUmxkCe+JvBbCPYQG9tQMByf6/BNiDcQIrRJUHe
tJrBcpiTQDvUJb/iOJjBXNQOQc+c8UDLbIbBh7kFQaSzakDe2p3BJaXeQL+alUCi26HBSPWjQK4p
qEDE4o3Ba1KkQOGvZ0BD74fBnX7hQH90QECp1IHB0SXqQNGS/j9GeI3BcSTPQCgrKECV5qnBfwTl
QAma1j9bAZ/B4IaSQGSijEDVKZ/BfDEfQIUbRUBGnZvBktZDQE6EMEBcPY7BFA4sQKsIjkC8WpLB
S0PoQCdqosBGRIrBC+64QPaUv8DxnobB7zfBQG2zr8CJRpTBoRxbQOqtRMCwQ4rBvc9xQN/5icDZ
RpTB9jthQGfbmcBAn4bBVamDQMPWDUBdVqvB/elVQFdvsT+QMKDBLZaxQBDv5L9Wgo7B++XjQNLy
KcBL9o7BwbKyQMMqZ8AEL4HBVcQUQUOcMUA9lILBHxCpQLQF5T87MZbBlhi2QCDZZ79voLTBB1gU
QfDnfD3NHZ3BgMifQCboaj6x87DBHwIRQUg7dj8WlpTB9ha+QGzO/b8Uoq3BxNseQVFTAD/OcqbB
Ij+aQJ6URb/0UZ/Bkw4lQdWQK0DRLp7BH/CRQETllD71O6bB+n8YQbQtE0CBUpXB8emvQOp69r9z
76LBiDsnQd6m5z9S8KbB9cPLQGPvNEDXQo3BknznQJZMTkANwaDB8NDlQDCUo0DtFpPB+L6zQORN
4j8glJPBJMu5QIYsQUDN0KTBlEHsQPdMZkARdJTByPClQFGYiUC7PKnB6ILSQHk8ncCDkIzBq5mE
QC09psBa2ZHB06B5QAROwz9Kr6HBwnilQCkxO8APnpHBpoSlQChAicDzOYzBZij9QNEwrkC0YonB
MocMQfiKU0CxZpDBwOycQNGOGkBBqZzB410dQVTsikD7yn3BxMkkQe2Mr0CdCpHB8uO2QCLuQMDA
YpzBmtcvQQedEUABIbDBdQkXQX6hlkAI04nB0hXBQOxJc797z7zB+9wOQdKldb8qf5zB70+ZQO9f
hj9EVbbBWbsIQUPvIT9UeY3BZxnPQEmdNsBbebDBt4AgQX54Jr68Nq3BOviPQJQxNr/CFZfBPv0s
QZv4aEC1PZ7B0pa0QK68YkBP7onBokfdQODEFUBcsobB70P5QAqQEkB8JKLBqvn1QE8bgUB/d6XB
tPbyQLkNtUA7/JnBqKXDQCdBq0DCM5LB04vKQB9Fgz8zsJbB12ucQCtkoj8eVo7BEcW7QJHOE0DP
hqvBmTmFQHvygkDzBqzBNPWkQGwFokDU56LBwli5QFZdlUCy9q/BdlTpQKfrh8CmgIjBdPrRQC1x
vMDEfojB3GLcQIGkocBh8JTBaphJQEw4l8BpfZHBGvSNQJq0qsBFQprBsouDQEaBxcCp0I3BgS1Z
QNR1BEBzK6jByVlKQA6rnD/CoJvBp22EQNApI8C5CZLBOxm5QKWuDsAz4ozBQPCbQEdYhcCk0IPB
M04AQTnvzUBS3IjBdHeMQPU7S0C8fZnB

>  <OMEGA_E>  (23) 
MC5/PgDPZT44+oY//PSGP4j/Hz8=

>  <OMEGA_NBR>  (23) 
    127433

$$$$
