50168791
     RDKit          3D

 49 52  0  0  1  0  0  0  0  0999 V2000
    6.6007   -0.5119  -22.7014 C   0  0  0  0  0  0  0  0  0  0  0  0
    3.2735   -3.0249  -18.2237 C   0  0  0  0  0  0  0  0  0  0  0  0
    6.1383   -1.5237  -21.8421 C   0  0  0  0  0  0  0  0  0  0  0  0
    3.6753   -2.1111  -19.2052 C   0  0  0  0  0  0  0  0  0  0  0  0
    6.4042    0.8391  -22.3647 C   0  0  0  0  0  0  0  0  0  0  0  0
    7.2768    4.0133  -21.9371 C   0  0  0  0  0  0  0  0  0  0  0  0
    4.9898    3.8884  -22.8020 C   0  0  0  0  0  0  0  0  0  0  0  0
    7.6608    4.7482  -23.0637 C   0  0  0  0  0  0  0  0  0  0  0  0
    5.3785    4.6158  -23.9262 C   0  0  0  0  0  0  0  0  0  0  0  0
    5.2407    0.1670  -20.3340 C   0  0  0  0  0  0  0  0  0  0  0  0
    4.1953   -3.9871  -17.7651 C   0  0  0  0  0  0  0  0  0  0  0  0
    5.4548   -1.1780  -20.6567 C   0  0  0  0  0  0  0  0  0  0  0  0
    4.9881   -2.1913  -19.7093 C   0  0  0  0  0  0  0  0  0  0  0  0
    5.9306    3.5954  -21.7890 C   0  0  0  0  0  0  0  0  0  0  0  0
    5.7215    1.1869  -21.1655 C   0  0  0  0  0  0  0  0  0  0  0  0
    6.7079    5.0600  -24.0490 C   0  0  0  0  0  0  0  0  0  0  0  0
    5.8681   -3.1770  -19.2017 C   0  0  0  0  0  0  0  0  0  0  0  0
    6.2768    2.8732  -19.3892 C   0  0  0  0  0  0  0  0  0  0  0  0
    4.0644    3.4084  -19.1385 C   0  0  0  0  0  0  0  0  0  0  0  0
    5.5371    2.6260  -20.6967 C   0  0  1  0  0  0  0  0  0  0  0  0
    5.5948    3.8328  -17.1618 C   0  0  0  0  0  0  0  0  0  0  0  0
    6.6265    7.2389  -24.9383 C   0  0  0  0  0  0  0  0  0  0  0  0
    5.4600   -4.0491  -18.2496 N   0  0  0  0  0  0  0  0  0  0  0  0
    5.3088    3.3088  -18.5018 N   0  0  0  0  0  0  0  0  0  0  0  0
    4.1287    2.8547  -20.3245 N   0  0  0  0  0  0  0  0  0  0  0  0
    2.9102    3.9529  -18.5974 N   0  0  0  0  0  0  0  0  0  0  0  0
    7.4451    2.6117  -19.1231 O   0  0  0  0  0  0  0  0  0  0  0  0
    7.0629    5.8657  -25.0966 O   0  0  0  0  0  0  0  0  0  0  0  0
    7.1626   -3.2105  -19.6022 F   0  0  0  0  0  0  0  0  0  0  0  0
    5.2658    7.3256  -24.9313 F   0  0  0  0  0  0  0  0  0  0  0  0
    7.1127    7.7554  -23.7737 F   0  0  0  0  0  0  0  0  0  0  0  0
    7.1065   -0.7719  -23.6195 H   0  0  0  0  0  0  0  0  0  0  0  0
    2.2709   -2.9928  -17.8235 H   0  0  0  0  0  0  0  0  0  0  0  0
    6.3054   -2.5619  -22.0881 H   0  0  0  0  0  0  0  0  0  0  0  0
    2.9914   -1.3586  -19.5690 H   0  0  0  0  0  0  0  0  0  0  0  0
    6.7727    1.6156  -23.0186 H   0  0  0  0  0  0  0  0  0  0  0  0
    8.0060    3.7644  -21.1803 H   0  0  0  0  0  0  0  0  0  0  0  0
    3.9693    3.5486  -22.7053 H   0  0  0  0  0  0  0  0  0  0  0  0
    8.6842    5.0743  -23.1761 H   0  0  0  0  0  0  0  0  0  0  0  0
    4.6602    4.8379  -24.7015 H   0  0  0  0  0  0  0  0  0  0  0  0
    4.6993    0.4212  -19.4348 H   0  0  0  0  0  0  0  0  0  0  0  0
    3.8863   -4.6931  -17.0085 H   0  0  0  0  0  0  0  0  0  0  0  0
    4.6520    4.1070  -16.6659 H   0  0  0  0  0  0  0  0  0  0  0  0
    6.1101    3.0625  -16.5693 H   0  0  0  0  0  0  0  0  0  0  0  0
    6.2372    4.7219  -17.2453 H   0  0  0  0  0  0  0  0  0  0  0  0
    7.0213    7.8207  -25.7842 H   0  0  0  0  0  0  0  0  0  0  0  0
    3.3396    2.6218  -20.8929 H   0  0  0  0  0  0  0  0  0  0  0  0
    2.0576    3.9376  -19.1197 H   0  0  0  0  0  0  0  0  0  0  0  0
    2.9301    4.3610  -17.6847 H   0  0  0  0  0  0  0  0  0  0  0  0
  1  3  2  0
  1  5  1  0
  2  4  2  0
  2 11  1  0
  3 12  1  0
  4 13  1  0
  5 15  2  0
  6  8  2  0
  6 14  1  0
  7  9  1  0
  7 14  2  0
  8 16  1  0
  9 16  2  0
 10 12  2  0
 10 15  1  0
 11 23  2  0
 12 13  1  0
 13 17  2  0
 20 14  1  6
 15 20  1  0
 16 28  1  0
 17 23  1  0
 17 29  1  0
 18 20  1  0
 18 24  1  0
 18 27  2  0
 19 24  1  0
 19 25  2  0
 19 26  1  0
 20 25  1  0
 21 24  1  0
 22 28  1  0
 22 30  1  0
 22 31  1  0
  1 32  1  0
  2 33  1  0
  3 34  1  0
  4 35  1  0
  5 36  1  0
  6 37  1  0
  7 38  1  0
  8 39  1  0
  9 40  1  0
 10 41  1  0
 11 42  1  0
 21 43  1  0
 21 44  1  0
 21 45  1  0
 22 46  1  0
 25 47  1  0
 26 48  1  0
 26 49  1  0
M  CHG  1  25   1
M  END
>  <OMEGA_C>  (1) 
CjnTQGAJA7+KnLXBR4FRQI6XQcAkypHBuWzEQBMJw7+UvK7BGzhrQPYbB8AopJnB9e7MQAHOVj/e
6rLBedvoQO1sgEA0f6/B06yfQM3aeEB9arbBASX1QOHwl0CPgrjBmhysQFu0k0DCaL/B/bOnQOD2
Kj4JrKLBqT+GQK0sf8ABH47BwY2uQFTIlr/UQKXB1Z6fQMY9DMCzrJ3BnMe9QEsbZkDVT67BzRa3
QGbslz/pUqnBTafWQHnroUBAZMDBnMe7QKxUS8AnnZnBdtvIQFziN0ACHZvBUg+CQN0jWkCcG5nB
BTCxQAERKEC/kqXBwwizQKxMdUBqS4nBRgzUQFql50CTgcfBe7iuQIeSgcAb/5HBEuKpQH7DU0Cx
A5TBKB6EQKyzNkCCmKLBVkA6QMT8fEB2x5TBqz7uQAQmJ0An/JjBLwPiQO+zu0DbxcjBrjPlQOJ4
TcBB0ZzBSIGoQIBr6kBac8fBYJvjQGUs+EB9ML7BtGjjQLacRb/R9LzBw1YRQMOKP8B8lo7B7cXJ
QPn2I8B2tLDB2HI/QPflrb9djZzBmbnYQEjNzj8KJrjBfRgAQUXscEBHcanBSQh+QNcbY0CHpLXB
g/IKQX9gokCPaLnBnSCVQDjQmkCnnMXBjGCWQMqk1z5oepvBvbl4QCoulsBxEYjBft2UQNRsg0C4
U4XBAobDQMX/Q0DsjYTB2ZbHQH8Zl0Bm9onBxa7gQIJD+kANRs7BurtVQCXLJ0CPJKfBga8DQNoB
fEA/9ZjB04Y7QLeNi0A7eo3BG3vVQKQ3Ab8TZ7XBnaesQD1cgMCNtpHBxkbGQM7hwb/SjK7BvYG7
QLCtScApwJnBK6vOQN40WT+D1LLBQFLoQHFBgUAap6/BYxyfQLwKeUBMjLbB+3b0QIM6mEAuvrjB
e1KrQEnQk0DWlb/Bci6pQAODOz7Bn6LBZEGCQP85eMB3/o3BMnyvQBXvlL+/OaXBSH6fQJcbC8BZ
xJ3BPXK9QIfbZkAzdq7BLV24QCuHmT/PUKnBR/fVQLykoUDnqMDB1expQFzCBsAqz5nBjHfJQC0e
OkCGS5vBY4qCQJweWkDCH5nBn5+xQMnQKEB9q6XBDmazQOAVcUCbOonBEcvXQMBA50C/yMfB25FO
QAq6PMCxEpLBXoerQLXxXkCbkpTB+5+EQJsvNkBxlqLB4qE5QEr1dUBCcZTBanPuQProJkCrC5nB
tqzhQBNgukDuMsnBlNAxQButmb931Z3BT6SsQLZW7UDfuMfBla3oQN8q9kCDbb7BCWLmQNGmRL9j
o7zBL3bBQISRmMDdZo7BaAfMQPJuI8C7a7DBK77bQIo7T8B9yZzBU2faQDawzz+pF7jBrKH/QGUV
dEDBiKnBRA99QHPsYkBMvLXB2ZYKQf23okAIr7nBhCKUQGotm0DKuMXBQWOYQCbn4T5IXJvBYgRu
QIYdkcAlvIfBCLGWQHQhh0CyrIXBud+6QHsXNUBMBYXBcovOQFTAjkCOe4jBrNzlQOgD+UC5hM7B
yKxWQCEuJkAzEKfB9RICQJ4Wb0DRUZjBvMI6QKJ0iEAVMI3B6/zWQAJWEb8jHbXBAPenQEo6gMDv
UZHBvn7GQF26yL/5WK7Be6u4QBoAS8A2S5nBXFDRQEdjSj+TgLLB1efnQHgrgkBH5a/BaayeQFKS
ckCYVbbBTBjxQIMynEDku7jBnc+nQLwYk0DnEb/BuOeqQE8yFz4KYKLB0vl5QBpGdsA1HI7B8Mev
QLObmb9GDqXBKOGdQKxGDMD7vp3BwBi+QFZQY0BTga7Bu/m6QASdkz+qBqnBQvnQQCKZpUBjRsDB
8nplQLDnBcDyRJrBw+rKQKTyOkAtQpvBY5ODQCAUWUD2WJnBsZyzQA7wJUDMkaXBWGyzQIz1dEBM
bonBm8S4QKnQ0UCSDs/BaXtGQAx/OsAEmpLB81CsQJ4jYECruZTBjEuGQFJWMUAZi6LBe/g6QMo9
dkBJ+5TB2F/wQKYFLEAmApnB8o7bQMbbwED8msjBMRkwQC0Elr+0pJ7BvAenQP9WskCHLdXBgWea
QNfp5EAPzcjBeP7nQP2LV7/rTrzBYsq7QEx6mMBLq43BmzXLQL0aJ8DiQrDBsF/ZQCzjUcCB85vB
yPDdQDZfxz+as7fBzFQAQWd3dUAyKarBQ7d+QPYGVkDbirXBRHMIQYcTqUA6w7nB7maPQJQlmUAd
/8TB1YWaQIL11D6aE5vBspJgQDaYj8Cj6YfB/UWWQEToiEDdEIbBsji7QA8rOkD5/4TB6R7OQPBB
kUCpv4jB94DGQDos6kDXZtTBXJ1aQB+SHUAu46bB6uYDQNJSbUAL55jBDRg7QK4YikBn6Y3B

>  <OMEGA_E>  (1) 
WJrUPhC22T4M+N0+

>  <OMEGA_NBR>  (1) 
     55047

$$$$
50157417
     RDKit          3D

 49 52  0  0  1  0  0  0  0  0999 V2000
    6.8339   -0.5663  -22.4556 C   0  0  0  0  0  0  0  0  0  0  0  0
    5.2746   -4.0959  -18.1377 C   0  0  0  0  0  0  0  0  0  0  0  0
    6.3241   -1.5447  -21.5824 C   0  0  0  0  0  0  0  0  0  0  0  0
    5.8141   -3.1830  -19.0542 C   0  0  0  0  0  0  0  0  0  0  0  0
    6.5799    0.7974  -22.2148 C   0  0  0  0  0  0  0  0  0  0  0  0
    4.9169    3.7387  -22.9429 C   0  0  0  0  0  0  0  0  0  0  0  0
    7.1293    4.2159  -22.0192 C   0  0  0  0  0  0  0  0  0  0  0  0
    5.2087    4.5408  -24.0537 C   0  0  0  0  0  0  0  0  0  0  0  0
    7.4185    5.0173  -23.1340 C   0  0  0  0  0  0  0  0  0  0  0  0
    5.3065    0.2015  -20.2263 C   0  0  0  0  0  0  0  0  0  0  0  0
    3.9264   -3.9667  -17.7471 C   0  0  0  0  0  0  0  0  0  0  0  0
    5.5434   -1.1581  -20.4727 C   0  0  0  0  0  0  0  0  0  0  0  0
    4.9896   -2.1566  -19.5486 C   0  0  0  0  0  0  0  0  0  0  0  0
    5.8620    3.5914  -21.8992 C   0  0  0  0  0  0  0  0  0  0  0  0
    5.8013    1.1896  -21.0952 C   0  0  0  0  0  0  0  0  0  0  0  0
    6.4520    5.1913  -24.1431 C   0  0  0  0  0  0  0  0  0  0  0  0
    3.6358   -2.0883  -19.1221 C   0  0  0  0  0  0  0  0  0  0  0  0
    6.2705    2.9988  -19.4471 C   0  0  0  0  0  0  0  0  0  0  0  0
    4.0165    3.2873  -19.1475 C   0  0  0  0  0  0  0  0  0  0  0  0
    5.5421    2.6507  -20.7391 C   0  0  1  0  0  0  0  0  0  0  0  0
    5.5246    3.8385  -17.1905 C   0  0  0  0  0  0  0  0  0  0  0  0
    6.4582    7.4048  -24.9900 C   0  0  0  0  0  0  0  0  0  0  0  0
    3.1358   -2.9838  -18.2395 N   0  0  0  0  0  0  0  0  0  0  0  0
    5.2749    3.3006  -18.5329 N   0  0  0  0  0  0  0  0  0  0  0  0
    4.1227    2.8250  -20.3701 N   0  0  0  0  0  0  0  0  0  0  0  0
    2.8201    3.6537  -18.5496 N   0  0  0  0  0  0  0  0  0  0  0  0
    7.4615    2.8487  -19.1957 O   0  0  0  0  0  0  0  0  0  0  0  0
    6.7093    5.9983  -25.2228 O   0  0  0  0  0  0  0  0  0  0  0  0
    2.7961   -1.1542  -19.6334 F   0  0  0  0  0  0  0  0  0  0  0  0
    5.2216    7.6093  -24.4534 F   0  0  0  0  0  0  0  0  0  0  0  0
    6.5202    8.0434  -26.1834 F   0  0  0  0  0  0  0  0  0  0  0  0
    7.4033    7.9257  -24.1623 F   0  0  0  0  0  0  0  0  0  0  0  0
    7.4213   -0.8620  -23.3123 H   0  0  0  0  0  0  0  0  0  0  0  0
    5.8856   -4.8902  -17.7348 H   0  0  0  0  0  0  0  0  0  0  0  0
    6.5300   -2.5897  -21.7612 H   0  0  0  0  0  0  0  0  0  0  0  0
    6.8422   -3.2662  -19.3744 H   0  0  0  0  0  0  0  0  0  0  0  0
    6.9783    1.5462  -22.8834 H   0  0  0  0  0  0  0  0  0  0  0  0
    3.9661    3.2302  -22.8824 H   0  0  0  0  0  0  0  0  0  0  0  0
    7.8742    4.0742  -21.2501 H   0  0  0  0  0  0  0  0  0  0  0  0
    4.4791    4.6594  -24.8411 H   0  0  0  0  0  0  0  0  0  0  0  0
    8.3810    5.4999  -23.2180 H   0  0  0  0  0  0  0  0  0  0  0  0
    4.7361    0.4937  -19.3570 H   0  0  0  0  0  0  0  0  0  0  0  0
    3.5138   -4.6689  -17.0378 H   0  0  0  0  0  0  0  0  0  0  0  0
    4.5667    3.9884  -16.6710 H   0  0  0  0  0  0  0  0  0  0  0  0
    6.1435    3.1297  -16.6209 H   0  0  0  0  0  0  0  0  0  0  0  0
    6.0511    4.8008  -17.2733 H   0  0  0  0  0  0  0  0  0  0  0  0
    3.3494    2.6190  -20.9698 H   0  0  0  0  0  0  0  0  0  0  0  0
    1.9622    3.5725  -19.0569 H   0  0  0  0  0  0  0  0  0  0  0  0
    2.8153    3.9990  -17.6111 H   0  0  0  0  0  0  0  0  0  0  0  0
  1  3  2  0
  1  5  1  0
  2  4  2  0
  2 11  1  0
  3 12  1  0
  4 13  1  0
  5 15  2  0
  6  8  2  0
  6 14  1  0
  7  9  1  0
  7 14  2  0
  8 16  1  0
  9 16  2  0
 10 12  2  0
 10 15  1  0
 11 23  2  0
 12 13  1  0
 13 17  2  0
 20 14  1  6
 15 20  1  0
 16 28  1  0
 17 23  1  0
 17 29  1  0
 18 20  1  0
 18 24  1  0
 18 27  2  0
 19 24  1  0
 19 25  2  0
 19 26  1  0
 20 25  1  0
 21 24  1  0
 22 28  1  0
 22 30  1  0
 22 31  1  0
 22 32  1  0
  1 33  1  0
  2 34  1  0
  3 35  1  0
  4 36  1  0
  5 37  1  0
  6 38  1  0
  7 39  1  0
  8 40  1  0
  9 41  1  0
 10 42  1  0
 11 43  1  0
 21 44  1  0
 21 45  1  0
 21 46  1  0
 25 47  1  0
 26 48  1  0
 26 49  1  0
M  CHG  1  25   1
M  END
>  <OMEGA_C>  (2) 
Lq/aQHj3EL8RpbPBo8moQOURg8DpGZHBpV7KQEW6xb+rqKzB3wy6QLy2S8AGb5jBbo7SQE8hTD/u
t7HBjFedQE1Hb0AFi7fBPyPkQFXohkBAJ7DB+q2mQOxNkUD/bcDBoWTtQHyNoEB0ErnB3M6pQIdR
Tj5gz6HBkEl7QGDefcAg+o3BfGOxQFY8lL8syKPBzKqfQPcECsB4Y5zBuZW7QOHZZUCTMa/BWKS5
QFdEmD/gwqjBLXfOQFYfpkAeJcHBIbFoQD6nBcAa+pjBmqfIQKTsP0CZk5vBaYeAQIBiUkAGLpnB
QVmxQMKlKUCn6aXBicmwQImqdUAehonBa6nOQL/z7ECW68fBw7BIQGf2PsCJ6pHBUcyoQLo9U0Bs
Q5TBHe2DQD/NNEAI9qLB3Hw0QGrVaUCSZZTBdsTuQMNQNkDgkJnBvLLWQK7xv0BZyMnBx/IyQG68
k78sEZ3BXxenQMp/80CpoMPBdaXQQOWxAEGYd9HBAujsQKSf/UBPTMHB53rtQCOpXL+if7rB0la8
QC98nMDV4I3BiPXQQDu+JcAAF67BDfPaQF4JUcCy/prB5k3fQF/qxT8bEbfBl9R9QNS6TkATD7fB
rvn7QBhggkBAAKrBlVSPQGwZlUCAusbBtxgGQUL/r0B2vrnBDo6XQEDK/D4e25rBEuJgQFJnlcBp
TYjBJiKSQJZBf0AfXoXB7pfEQP5MSECM94TB06LBQACgmUCiL4rBrlxWQBieJ0AhwqfBHin7P2Wj
ZECNdJjBCi40QC7wf0Cg44zBpN3ZQGx7Dr/ur7PBP22pQEuTgsACA5HBqPnJQOlMxL/JoqzBnKG6
QDvpScAiP5jBq73RQMp3Tj8GwbHB6z2dQA/lb0DgebfBD1/kQLOLhkDKM7DBubimQLY1kUCka8DB
ar3tQGzkn0A6LLnBasepQC7wWT7otaHBpuR7QLjUfsBAHY7Bx1mxQBiwkr9RtKPBZNyfQE1WCcDG
UJzBcJG7QL9FZkCNJq/B/Vu5QIqfmT9ltKjBxbDOQPidpUAMNsHB4aBoQImCBsCSFJnBkKTIQI2s
QECXhZvBBoiAQNOAU0AQG5nBYD6xQIlcKkC72KXBNAKxQHVjeEBPionBAnDOQIo77ECjJMjBBKhI
QOHHQMAXJJLB196oQEDgVEAwOJTB592DQPC9NUD74KLBc2U0QAatakAwU5TBULruQPefNkACg5nB
LuXWQNc1v0B25MnBYqoyQATklb8NLZ3B11DOQOT+/0BIy9HBUKDtQNa0/UBe8cHBhKSnQPOw8kDE
asPBk1TsQGhMWr+CmLrB30S9QFOPm8DdsI3B3J3QQF0FJcDdDq7BGMbbQMXHTcDApZrBdRXeQM3+
xj/lKrfBGER9QIwaUEBT7bbB4E78QPPPgUBmFarBaFWPQOwDlUC9tcbBNlkGQdr4rkB96LnBlsKX
QIo7AT+4t5rBQHlhQARNlsCui4jBjGiSQBxEgUA/YYXBitHEQOprS0BM7ITBJOnBQFzqmkBBUIrB
2SpWQJKQKEAFqqfBgP36P6EaZUCCYJjBtAM0QIV6gEBZ04zBRKvaQLDrEL9WjbPBIrunQOPCgsAP
DpHB3h/KQBJDxb+Hk6zBGWy5QMvYSsDjSZjBPPPSQPCNTD8smbHBJH6dQDvfbkDkg7fBqs3kQHhA
hkB0ZLDBBZymQPO3kEAufMDBjdjtQL97n0AFZbnBvkGqQFD8WD5KqKHBh7V4QAWUfcDDH47BCFax
QL4Wk7/2rqPBfDWfQJRVCcDxWZzBng68QMmqZUAvO6/Br1W6QOxOmT/bmajBEoLOQNw2pUACXMHB
LVVnQKkpBcD7H5nBpibJQLQSQkD1gZvBzNqAQNtdUEAsA5nBH/6xQNZnKkDd1aXBbdiwQIxFdECV
VInBJiHPQLZ57EA30cfBsnxGQAO5PsCrJ5LBQiapQKVdUkAyHZTBOYeEQERMNUCX5qLBm500QHnk
ZEDqJpTBz4XvQHehPEDtkZnBqSrWQMdzv0DM88nB+DIyQMcvkr9gRp3Bi7LuQMVA/EApc8HBy3Ko
QHpJ80C3EMPBsb/PQFjRAEHIRtHBzlPtQD+HXb9ea7rBYSC7QAYmnMCUwo3BUGPQQAucJcCuBq7B
h4XaQDnZT8CqsZrBjsnfQHPGxT889bbBePp9QLa8TkA26rbBQfb8QHuZgUARU6rBfACPQLh2lECv
ucbB1GYGQQx+rkD2NrrBxzmYQJXNAT/IrJrBwp9dQCddlcC3hojBNCqSQIdEe0AtG4XBHZPFQLPi
R0Bx4YTBZ5PAQDOJmUBs7InB+8ZXQAudKUC0yqfBVLH7P09mX0DHO5jBeMozQN0veUDKkIzBykjb
QAHHEL/KSrPBJAKoQH9qgsAT2JDBI5LKQPmIxL8oTazBZKK5QAK3ScB2CJjBYynTQKO1TD+GeLHB
beLkQDhkhkCsdbDB2rSdQOkTb0CXqLfBu/LtQDHen0Cxa7nBQuCmQGb7kED6mMDBZIKpQG5NZD7l
p6HBF+54QA/7fcBLCI7BGTKxQP3bkb8ghqPBZzefQF+4CMCtJ5zBVCO8QInhZUA6WK/Bidi5QNgk
mj+snajBba3OQNWxpUBfZ8HBthlnQH6LBcDaBZnBmiDJQEF2QkA7nZvB6NCAQJfaUEAzC5nBNcqx
QMoVK0Cr66XBrg6xQHZWdUAXbonB5XLQQE4l7UDgw8fBcFdGQDejP8BXHZLBMj2pQJm2U0CKOJTB
D2iEQEZWN0CL/6LB4nw0QMgrY0DxDpTBQF/vQE2EOkBIppnB01jWQI8FwECV+8nBl5gxQJQUlL9K
OJ3BecfwQMos/EB4hsHB30KqQIet9EDi1cLB5tvQQIo1AUEyNtHBTGPuQJhvXr8kErrB6pS7QPSM
m8CMfo3BnifRQMtBJcCwpq3Bv9jaQOP6TcCvXJrBgjvgQGFhxT/z07bBwgT9QGqVgUCrZKrBl4N+
QCmvTkATG7fBDm8GQSz+rkAsMrrBDWGPQDeulECX3cbB4NOWQBS1BT/yyprBeOFdQAfIlcCjfIjB
H2KSQG0yfUADOoXBJmrFQClWSEAw+ITBzz7BQCHXmUDOAYrBxHpXQASALUCm8afBoRz7PyYuXUAz
GJjBvcozQLxedkBkbYzBw3nXQHKfCr/+7rPBtgxLQPtPQMDcRpHBSTnHQDhuw79dBa3BrqFoQPRB
BMBEvJjBDibQQPTLUT+ex7HBTgWdQC47ckAac7fBAlzkQBUohkBUJLDBeUunQOnckUBZcsDBy4zu
QC/YnkDIKrnBrnmnQEH1VT6Z36HBO6GBQLYmgMBZlI3BOmKvQNRUk7/n6aPBeeGeQAwlCsCCYZzB
rB+7QP5FZ0DAF6/BpaK3QJF/mj+gvKjBwd3PQGwRpUAGRMHBSoW5QI4OTMBiUJjBR83HQKHKQECP
eJvBZKZ/QEToVEBeApnB8DiwQGkyK0C2zaXBzZWwQHuIeEAidInBZTbTQIJ660BlScjBT5eqQC2e
gsALE5HBcDOoQCh2VUDIJZTB7vSCQIvvN0Dx06LB3VEzQNcSbED4JJTBOfLtQEcvN0ANgJnBuCTZ
QFYHvkCsAcrBaUPjQBWKUMANMJvBMl/xQGTs+kCZdMHBBIKrQHwF9EACT8TBTWrXQBGQ/0Ci1tHB
paDpQN2MVL/a6brBhPAJQMGTPcCiZY7BFfrMQNqRJMB8ra7BQOQ+QMacpL8FpJvBsDvdQLRnyT/C
B7fBI+l7QO1GVECn47bBDwX8QHI7gUA396nB8QyQQJ4tlkC0v8bB6/QGQd8PrUBb5rnBtcyUQMUx
/D5895rBR39sQCZEl8Au0ofBCBCSQFiZgUApR4XBKjDEQM8JS0Cy3ITBkczBQF/SmkA0NYrBcSpU
QKQZLEB1o6fB4Wz4P+clZ0BtKpjBDmMzQBfagEB8nYzBh8zZQOoaD7+jsLPBC1OpQLCYgcDnypDB
1dfJQH7fw78tl6zBQnm6QLVjSMAqF5jBf6vRQOVWTj+H1bHBy3/kQIKLhkDRTLDBADKdQOFZcUB1
kbfBR/HtQIY5oEA6NLnB/cGmQNxCkkDGcsDBaI6pQGB7Zj45yKHBuK57QB/cfMDy5o3BVSaxQM1K
kb8ZsKPBAqqfQHcoCMChOZzBP5W7QAO5ZkCwR6/BqDS5QGBimj+J0ajBxNjOQNyApkDXMsHB1EZo
QO4ZBcAo9pjBk63IQNR1QUDdt5vBrKyAQP3vU0CtNZnBYS6xQCDIKkAcAKbBH0WxQG1OdUCekYnB
Mc3MQLls7EDImcjBPGJIQHIOP8BP+ZHBNYmpQCxMYECX2JTBfeKDQGyVNkCUAaPBlFk0QGXRY0Ci
D5TBFlvuQFP6M0CtipnBP5nXQMivv0CC6snBKEsyQBkWk7/wDZ3BHRrOQLbz/kCMZdLB+dLpQFzp
/0DwH8LB6MSkQMXV8UAUesTBtE/sQJ10XL/nkrrBjTe9QLxsmsDxao3BtXzQQGziJMA39K3Bi53b
QHpVTMB2fZrByxDeQLdhxj8jR7fB/3X8QNphgUCPNarB1wB9QB7dUUDGCrfBzH4GQZkhr0CH67nB
nFuPQIZzlkA+uMbBAHSXQM34BT/e0ZrBFk9hQCA1lcB0TYjBxWyTQGY0hkB654XBf1O8QCXHO0DT
UIXBht7JQCi9k0D8B4nBpRJWQO/tKUDbyqfBEgz6P8DYWEBn15fBWSc0QIc9ekBzkYzBeQvcQCnJ
EL9yV7PByTWnQIHXgsAtCpHBJCrLQKEixb8XaKzBnx+5QBdXS8CsSJjBHvPTQPKzTD/NeLHB7HTk
QFc6h0A3TbDBYdKdQM3JbUBoorfBfEjtQKzMoEAoQrnB+L6mQCB2kEAKkcDBqjSqQJTHWj5+tKHB
RL93QFcSfcBmG47BmauxQEzxkr+2oqPBfzefQMM6CcC7U5zBLSG8QEjBZUD6Ra/Buoq6QPxnmT8g
nqjB8y7OQFvhpUBxUcHB02VnQDpSBMDrEpnBVUDJQJAEQkByjJvB9eaAQDlZUEA/EJnBJByyQIWB
KkBf4aXBmM6wQDqgc0BGVonBmf7QQB7+7EB48sfBJRBGQH7DPcAbIJLB4japQILVUkDQLZTB9aSE
QBvbNUBS+aLBKI40QLqpY0DiKZTBNIfvQFzzOkBbkpnBYN7VQMmlv0AAAcrBq8UyQALXjr81Ip3B
YRKrQDKP9UCsAMPBC5nRQLrKAEG2fNHBLcLxQLDW+0Ao0sHBDkDvQESCXb/bHLrBxGq6QOxbnMAY
vY3Bo7XRQMKFJcBjy63BvyraQLcJUcCFtprBFhvhQKrGxT/AybbBW3T8QFgJg0BTLKrB9E9/QLdO
TEBzH7fB0PIFQSaUsEB1+bnBjVaPQCe2k0Dv3sbBW6aXQKSOAj/2z5rBUkpcQJkIlcCjhIjBhwqS
QBdGe0BqK4XBtQXFQGE5RkBL5oTBKA/BQC76mEA50YnB8xNYQDDTKkA55qfBm437PxetXUB1O5jB
GKEzQOCTd0DIj4zBrb/WQOZ9DL+NCLTBCP5KQEK7PsDEOJHBL7/GQJSmw78MCq3BfPloQMi6AsCA
p5jBKKnPQO1XUD8p5bHBJbzkQPL1hEDZXLDB2sWcQGXnckAQdbfBqOfuQCmrnUD8YbnB+wCnQINK
kkBQccDBHhOoQBDWXT5byqHB7GKBQNc5f8ANj43BmZGvQIpwkr812qPB6QGfQJU6CcDMTZzBqCu7
QAPHZkDPMK/BZtC3QPyfmj/ZwKjB+9fPQMvnpEBjVsHBb3m5QBZvS8C+QpjBtODHQO7AQUC/kpvB
DvV/QLdzVkA3IZnBtE2wQK04K0C33qXBH4GwQCYCdUCrYInBuEfRQGaO60BHO8jBRFuqQJRKgsB2
C5HBUNWoQHHpYEAZsZTBxRODQOQHOECb4aLBfCMzQNzuaECZEpTBd6HtQML4NEADa5nBIzPZQH9m
vkAk+snB3jLjQLNAUMDzJZvB8pmnQLWk8kANlsXBLAraQPFeAEFab9HBG/rqQDgj+0BuWcDBN4To
QFi8V7+rD7vB9usJQP2YO8CYVY7BjC7MQG/KJMBtsa7BdJ8/QK+9oL9JiZvBeWncQGU0yD/vOrfB
P6j8QJGcfkAcSqrBHxV7QCS6VUA71rbBHEcHQUkiq0BFObrBDo2PQIchl0AZrMbBngyWQI9nAT9P
yprBgqhrQDDElsD81IfBN72SQORMhkCauIXBgyK7QEfwOkABLIXB+WXJQMdEk0A3w4jB6VVUQNxB
K0CEpKfBDnr3P2koX0Ah45fBISczQDoEgECnnIzBWH7WQPYvDb8qDrTBJSNMQC1JP8BEA5HBjIXG
QGj/w7+xDa3BIyZpQEJaA8DrhJjBzWvPQJSjTz+C67HBpqTkQFyrhUCjLrDBsgudQAvIckCybrfB
0NjuQG2HnkB8MLnB0EqnQAxRkkBpY8DBe4ynQP2lWT4c26HB1keCQFVif8D9ZI3BVy6vQHrwkr8L
46PBcfaeQFqCCcD5R5zBG0S7QFgBZ0A+IK/BUXi3QHIamj/lzKjBYPbPQARDpUDHOcHBgMO5QBhO
S8AtRJjBO9DHQGuBQECyj5vBLg2AQC19V0A0OJnBT0awQGngKkB936XBVpiwQJy9dkAOf4nBhATT
QP4B7EDHD8jBGRmrQG83gsDw/ZDB0/CoQPqtYUAux5TBxheDQKTnN0BP6KLBzTUzQGIda0BfQJTB
hEntQH1bMUAjVpnBj+vYQPSevkDE6cnBfGzjQKufT8CPOJvBTw7UQAoSAEF3qdHBGxPzQEuK+0AW
0MHB5ZmsQORi9EA+VcPBbzroQM2CWL9mFrvBHVALQL1iPMBQCY7BmxvMQETyJMDhr67BZEU/QC2k
or8RX5vBSEPcQKjhxz9IPbfB81/8QDlfgEDeCqrB9c57QEYoVUCt3LbBnikHQa12rEAg9LnB7/GP
QCr7lkCqpsbBjkeVQBluAD9m5ZrBnTFuQDvPlsDNnIfB9wCTQDP3h0BE64XB2o+6QO69PEDgLIXB
+vfJQDmqk0AN8IjBJFdUQMl9KkALo6fBTdH3P0pLYUAoFpjBkxAzQDKLgUB61YzBhnnXQMGMC79U
5LPBio9LQHS0P8ClIZHBCR/HQPtdw78i9qzBCtFoQHacA8C1mpjBriHQQDESUT87yLHBHiSdQLdv
cUBfjrfBPzjkQGpEhkDYH7DB9XSnQEaKkUBBh8DB9nXuQKIPn0C4IbnBVEynQDBAXD6B4KHBJfaB
QOG/f8DIe43BHD2vQAqckr/736PBBOWeQAaGCcBmTZzBohW7QOX9ZkBfKa/BaoK3QEimmj9PxKjB
1+TPQCgNpUDqRsHBIKq5QFVGS8DMQJjBnLbHQIyVQUCcl5vBtwuAQJZPWEAqNZnBAyGwQBVGK0C5
36XBZJ+wQMKld0Dxh4nBb6DTQMjK60ADEsjBfOCqQPhGgsA8A5HB3v+oQGwbZEDj3JTBUvuCQDGg
OECc5aLB1E4zQFX4aUCcGJTBJQntQA9qMUAGUpnBeuDYQKRdvkDh98nBnWnjQJNnT8DlIZvBVY+t
QMZ29EDSMsPBIlvUQPD+/0CHqdHBcS70QA78+kA37sHBq7XpQI9iVr9M2brB7ZYKQJr2PMD+M47B
cdPMQF2aJMBelq7Bpfc+QMdGo7+nepvBN0jdQP+9yD88C7fBxF18QJn8UkAnC7fBdb37QPF4gUCT
6KnBhlmQQMWvlUB13sbBdd0GQc+FrUDL0LnBx5KUQK6VAD/x/JrBX1dtQNcRl8Dqu4fB/FSTQFEx
iUB/+YXBeYW5QM6mPECVRoXBwrzKQPREk0A/2ojBngZUQBhZK0D7nafB+6X3P16JXkCP0ZfBom4z
QFYRgUA3sIzB

>  <OMEGA_E>  (2) 
SB8cPvCwHT6I4x0+gFYePkB3Hz5QMiE+oJEhPli0IT7w9yU+kMsnPg==

>  <OMEGA_NBR>  (2) 
     47733

$$$$
50168820
     RDKit          3D

 49 52  0  0  1  0  0  0  0  0999 V2000
    6.8339   -0.5663  -22.4556 C   0  0  0  0  0  0  0  0  0  0  0  0
    5.2746   -4.0959  -18.1377 C   0  0  0  0  0  0  0  0  0  0  0  0
    6.3241   -1.5447  -21.5824 C   0  0  0  0  0  0  0  0  0  0  0  0
    5.8141   -3.1830  -19.0542 C   0  0  0  0  0  0  0  0  0  0  0  0
    6.5799    0.7974  -22.2148 C   0  0  0  0  0  0  0  0  0  0  0  0
    4.9169    3.7387  -22.9429 C   0  0  0  0  0  0  0  0  0  0  0  0
    7.1293    4.2159  -22.0192 C   0  0  0  0  0  0  0  0  0  0  0  0
    5.2087    4.5408  -24.0537 C   0  0  0  0  0  0  0  0  0  0  0  0
    7.4185    5.0173  -23.1340 C   0  0  0  0  0  0  0  0  0  0  0  0
    5.3065    0.2015  -20.2263 C   0  0  0  0  0  0  0  0  0  0  0  0
    3.9264   -3.9667  -17.7471 C   0  0  0  0  0  0  0  0  0  0  0  0
    5.5434   -1.1581  -20.4727 C   0  0  0  0  0  0  0  0  0  0  0  0
    4.9896   -2.1566  -19.5486 C   0  0  0  0  0  0  0  0  0  0  0  0
    5.8620    3.5914  -21.8992 C   0  0  0  0  0  0  0  0  0  0  0  0
    5.8013    1.1896  -21.0952 C   0  0  0  0  0  0  0  0  0  0  0  0
    6.4520    5.1913  -24.1431 C   0  0  0  0  0  0  0  0  0  0  0  0
    3.6358   -2.0883  -19.1221 C   0  0  0  0  0  0  0  0  0  0  0  0
    6.2705    2.9988  -19.4471 C   0  0  0  0  0  0  0  0  0  0  0  0
    4.0165    3.2873  -19.1475 C   0  0  0  0  0  0  0  0  0  0  0  0
    5.5421    2.6507  -20.7391 C   0  0  1  0  0  0  0  0  0  0  0  0
    5.5246    3.8385  -17.1905 C   0  0  0  0  0  0  0  0  0  0  0  0
    6.4582    7.4048  -24.9900 C   0  0  0  0  0  0  0  0  0  0  0  0
    3.1358   -2.9838  -18.2395 N   0  0  0  0  0  0  0  0  0  0  0  0
    5.2749    3.3006  -18.5329 N   0  0  0  0  0  0  0  0  0  0  0  0
    4.1227    2.8250  -20.3701 N   0  0  0  0  0  0  0  0  0  0  0  0
    2.8201    3.6537  -18.5496 N   0  0  0  0  0  0  0  0  0  0  0  0
    7.4615    2.8487  -19.1957 O   0  0  0  0  0  0  0  0  0  0  0  0
    6.7093    5.9983  -25.2228 O   0  0  0  0  0  0  0  0  0  0  0  0
    2.7961   -1.1542  -19.6334 F   0  0  0  0  0  0  0  0  0  0  0  0
    5.2216    7.6093  -24.4534 F   0  0  0  0  0  0  0  0  0  0  0  0
    6.5202    8.0434  -26.1834 F   0  0  0  0  0  0  0  0  0  0  0  0
    7.4033    7.9257  -24.1623 F   0  0  0  0  0  0  0  0  0  0  0  0
    7.4213   -0.8620  -23.3123 H   0  0  0  0  0  0  0  0  0  0  0  0
    5.8856   -4.8902  -17.7348 H   0  0  0  0  0  0  0  0  0  0  0  0
    6.5300   -2.5897  -21.7612 H   0  0  0  0  0  0  0  0  0  0  0  0
    6.8422   -3.2662  -19.3744 H   0  0  0  0  0  0  0  0  0  0  0  0
    6.9783    1.5462  -22.8834 H   0  0  0  0  0  0  0  0  0  0  0  0
    3.9661    3.2302  -22.8824 H   0  0  0  0  0  0  0  0  0  0  0  0
    7.8742    4.0742  -21.2501 H   0  0  0  0  0  0  0  0  0  0  0  0
    4.4791    4.6594  -24.8411 H   0  0  0  0  0  0  0  0  0  0  0  0
    8.3810    5.4999  -23.2180 H   0  0  0  0  0  0  0  0  0  0  0  0
    4.7361    0.4937  -19.3570 H   0  0  0  0  0  0  0  0  0  0  0  0
    3.5138   -4.6689  -17.0378 H   0  0  0  0  0  0  0  0  0  0  0  0
    4.5667    3.9884  -16.6710 H   0  0  0  0  0  0  0  0  0  0  0  0
    6.1435    3.1297  -16.6209 H   0  0  0  0  0  0  0  0  0  0  0  0
    6.0511    4.8008  -17.2733 H   0  0  0  0  0  0  0  0  0  0  0  0
    3.3494    2.6190  -20.9698 H   0  0  0  0  0  0  0  0  0  0  0  0
    1.9622    3.5725  -19.0569 H   0  0  0  0  0  0  0  0  0  0  0  0
    2.8153    3.9990  -17.6111 H   0  0  0  0  0  0  0  0  0  0  0  0
  1  3  2  0
  1  5  1  0
  2  4  2  0
  2 11  1  0
  3 12  1  0
  4 13  1  0
  5 15  2  0
  6  8  2  0
  6 14  1  0
  7  9  1  0
  7 14  2  0
  8 16  1  0
  9 16  2  0
 10 12  2  0
 10 15  1  0
 11 23  2  0
 12 13  1  0
 13 17  2  0
 20 14  1  6
 15 20  1  0
 16 28  1  0
 17 23  1  0
 17 29  1  0
 18 20  1  0
 18 24  1  0
 18 27  2  0
 19 24  1  0
 19 25  2  0
 19 26  1  0
 20 25  1  0
 21 24  1  0
 22 28  1  0
 22 30  1  0
 22 31  1  0
 22 32  1  0
  1 33  1  0
  2 34  1  0
  3 35  1  0
  4 36  1  0
  5 37  1  0
  6 38  1  0
  7 39  1  0
  8 40  1  0
  9 41  1  0
 10 42  1  0
 11 43  1  0
 21 44  1  0
 21 45  1  0
 21 46  1  0
 25 47  1  0
 26 48  1  0
 26 49  1  0
M  CHG  1  25   1
M  END
>  <OMEGA_C>  (3) 
Lq/aQHj3EL8RpbPBo8moQOURg8DpGZHBpV7KQEW6xb+rqKzB3wy6QLy2S8AGb5jBbo7SQE8hTD/u
t7HBjFedQE1Hb0AFi7fBPyPkQFXohkBAJ7DB+q2mQOxNkUD/bcDBoWTtQHyNoEB0ErnB3M6pQIdR
Tj5gz6HBkEl7QGDefcAg+o3BfGOxQFY8lL8syKPBzKqfQPcECsB4Y5zBuZW7QOHZZUCTMa/BWKS5
QFdEmD/gwqjBLXfOQFYfpkAeJcHBIbFoQD6nBcAa+pjBmqfIQKTsP0CZk5vBaYeAQIBiUkAGLpnB
QVmxQMKlKUCn6aXBicmwQImqdUAehonBa6nOQL/z7ECW68fBw7BIQGf2PsCJ6pHBUcyoQLo9U0Bs
Q5TBHe2DQD/NNEAI9qLB3Hw0QGrVaUCSZZTBdsTuQMNQNkDgkJnBvLLWQK7xv0BZyMnBx/IyQG68
k78sEZ3BXxenQMp/80CpoMPBdaXQQOWxAEGYd9HBAujsQKSf/UBPTMHB53rtQCOpXL+if7rB0la8
QC98nMDV4I3BiPXQQDu+JcAAF67BDfPaQF4JUcCy/prB5k3fQF/qxT8bEbfBl9R9QNS6TkATD7fB
rvn7QBhggkBAAKrBlVSPQGwZlUCAusbBtxgGQUL/r0B2vrnBDo6XQEDK/D4e25rBEuJgQFJnlcBp
TYjBJiKSQJZBf0AfXoXB7pfEQP5MSECM94TB06LBQACgmUCiL4rBrlxWQBieJ0AhwqfBHin7P2Wj
ZECNdJjBCi40QC7wf0Cg44zBpN3ZQGx7Dr/ur7PBP22pQEuTgsACA5HBqPnJQOlMxL/JoqzBnKG6
QDvpScAiP5jBq73RQMp3Tj8GwbHB6z2dQA/lb0DgebfBD1/kQLOLhkDKM7DBubimQLY1kUCka8DB
ar3tQGzkn0A6LLnBasepQC7wWT7otaHBpuR7QLjUfsBAHY7Bx1mxQBiwkr9RtKPBZNyfQE1WCcDG
UJzBcJG7QL9FZkCNJq/B/Vu5QIqfmT9ltKjBxbDOQPidpUAMNsHB4aBoQImCBsCSFJnBkKTIQI2s
QECXhZvBBoiAQNOAU0AQG5nBYD6xQIlcKkC72KXBNAKxQHVjeEBPionBAnDOQIo77ECjJMjBBKhI
QOHHQMAXJJLB196oQEDgVEAwOJTB592DQPC9NUD74KLBc2U0QAatakAwU5TBULruQPefNkACg5nB
LuXWQNc1v0B25MnBYqoyQATklb8NLZ3B11DOQOT+/0BIy9HBUKDtQNa0/UBe8cHBhKSnQPOw8kDE
asPBk1TsQGhMWr+CmLrB30S9QFOPm8DdsI3B3J3QQF0FJcDdDq7BGMbbQMXHTcDApZrBdRXeQM3+
xj/lKrfBGER9QIwaUEBT7bbB4E78QPPPgUBmFarBaFWPQOwDlUC9tcbBNlkGQdr4rkB96LnBlsKX
QIo7AT+4t5rBQHlhQARNlsCui4jBjGiSQBxEgUA/YYXBitHEQOprS0BM7ITBJOnBQFzqmkBBUIrB
2SpWQJKQKEAFqqfBgP36P6EaZUCCYJjBtAM0QIV6gEBZ04zBRKvaQLDrEL9WjbPBIrunQOPCgsAP
DpHB3h/KQBJDxb+Hk6zBGWy5QMvYSsDjSZjBPPPSQPCNTD8smbHBJH6dQDvfbkDkg7fBqs3kQHhA
hkB0ZLDBBZymQPO3kEAufMDBjdjtQL97n0AFZbnBvkGqQFD8WD5KqKHBh7V4QAWUfcDDH47BCFax
QL4Wk7/2rqPBfDWfQJRVCcDxWZzBng68QMmqZUAvO6/Br1W6QOxOmT/bmajBEoLOQNw2pUACXMHB
LVVnQKkpBcD7H5nBpibJQLQSQkD1gZvBzNqAQNtdUEAsA5nBH/6xQNZnKkDd1aXBbdiwQIxFdECV
VInBJiHPQLZ57EA30cfBsnxGQAO5PsCrJ5LBQiapQKVdUkAyHZTBOYeEQERMNUCX5qLBm500QHnk
ZEDqJpTBz4XvQHehPEDtkZnBqSrWQMdzv0DM88nB+DIyQMcvkr9gRp3Bi7LuQMVA/EApc8HBy3Ko
QHpJ80C3EMPBsb/PQFjRAEHIRtHBzlPtQD+HXb9ea7rBYSC7QAYmnMCUwo3BUGPQQAucJcCuBq7B
h4XaQDnZT8CqsZrBjsnfQHPGxT889bbBePp9QLa8TkA26rbBQfb8QHuZgUARU6rBfACPQLh2lECv
ucbB1GYGQQx+rkD2NrrBxzmYQJXNAT/IrJrBwp9dQCddlcC3hojBNCqSQIdEe0AtG4XBHZPFQLPi
R0Bx4YTBZ5PAQDOJmUBs7InB+8ZXQAudKUC0yqfBVLH7P09mX0DHO5jBeMozQN0veUDKkIzBykjb
QAHHEL/KSrPBJAKoQH9qgsAT2JDBI5LKQPmIxL8oTazBZKK5QAK3ScB2CJjBYynTQKO1TD+GeLHB
beLkQDhkhkCsdbDB2rSdQOkTb0CXqLfBu/LtQDHen0Cxa7nBQuCmQGb7kED6mMDBZIKpQG5NZD7l
p6HBF+54QA/7fcBLCI7BGTKxQP3bkb8ghqPBZzefQF+4CMCtJ5zBVCO8QInhZUA6WK/Bidi5QNgk
mj+snajBba3OQNWxpUBfZ8HBthlnQH6LBcDaBZnBmiDJQEF2QkA7nZvB6NCAQJfaUEAzC5nBNcqx
QMoVK0Cr66XBrg6xQHZWdUAXbonB5XLQQE4l7UDgw8fBcFdGQDejP8BXHZLBMj2pQJm2U0CKOJTB
D2iEQEZWN0CL/6LB4nw0QMgrY0DxDpTBQF/vQE2EOkBIppnB01jWQI8FwECV+8nBl5gxQJQUlL9K
OJ3BecfwQMos/EB4hsHB30KqQIet9EDi1cLB5tvQQIo1AUEyNtHBTGPuQJhvXr8kErrB6pS7QPSM
m8CMfo3BnifRQMtBJcCwpq3Bv9jaQOP6TcCvXJrBgjvgQGFhxT/z07bBwgT9QGqVgUCrZKrBl4N+
QCmvTkATG7fBDm8GQSz+rkAsMrrBDWGPQDeulECX3cbB4NOWQBS1BT/yyprBeOFdQAfIlcCjfIjB
H2KSQG0yfUADOoXBJmrFQClWSEAw+ITBzz7BQCHXmUDOAYrBxHpXQASALUCm8afBoRz7PyYuXUAz
GJjBvcozQLxedkBkbYzBw3nXQHKfCr/+7rPBtgxLQPtPQMDcRpHBSTnHQDhuw79dBa3BrqFoQPRB
BMBEvJjBDibQQPTLUT+ex7HBTgWdQC47ckAac7fBAlzkQBUohkBUJLDBeUunQOnckUBZcsDBy4zu
QC/YnkDIKrnBrnmnQEH1VT6Z36HBO6GBQLYmgMBZlI3BOmKvQNRUk7/n6aPBeeGeQAwlCsCCYZzB
rB+7QP5FZ0DAF6/BpaK3QJF/mj+gvKjBwd3PQGwRpUAGRMHBSoW5QI4OTMBiUJjBR83HQKHKQECP
eJvBZKZ/QEToVEBeApnB8DiwQGkyK0C2zaXBzZWwQHuIeEAidInBZTbTQIJ660BlScjBT5eqQC2e
gsALE5HBcDOoQCh2VUDIJZTB7vSCQIvvN0Dx06LB3VEzQNcSbED4JJTBOfLtQEcvN0ANgJnBuCTZ
QFYHvkCsAcrBaUPjQBWKUMANMJvBMl/xQGTs+kCZdMHBBIKrQHwF9EACT8TBTWrXQBGQ/0Ci1tHB
paDpQN2MVL/a6brBhPAJQMGTPcCiZY7BFfrMQNqRJMB8ra7BQOQ+QMacpL8FpJvBsDvdQLRnyT/C
B7fBI+l7QO1GVECn47bBDwX8QHI7gUA396nB8QyQQJ4tlkC0v8bB6/QGQd8PrUBb5rnBtcyUQMUx
/D5895rBR39sQCZEl8Au0ofBCBCSQFiZgUApR4XBKjDEQM8JS0Cy3ITBkczBQF/SmkA0NYrBcSpU
QKQZLEB1o6fB4Wz4P+clZ0BtKpjBDmMzQBfagEB8nYzBh8zZQOoaD7+jsLPBC1OpQLCYgcDnypDB
1dfJQH7fw78tl6zBQnm6QLVjSMAqF5jBf6vRQOVWTj+H1bHBy3/kQIKLhkDRTLDBADKdQOFZcUB1
kbfBR/HtQIY5oEA6NLnB/cGmQNxCkkDGcsDBaI6pQGB7Zj45yKHBuK57QB/cfMDy5o3BVSaxQM1K
kb8ZsKPBAqqfQHcoCMChOZzBP5W7QAO5ZkCwR6/BqDS5QGBimj+J0ajBxNjOQNyApkDXMsHB1EZo
QO4ZBcAo9pjBk63IQNR1QUDdt5vBrKyAQP3vU0CtNZnBYS6xQCDIKkAcAKbBH0WxQG1OdUCekYnB
Mc3MQLls7EDImcjBPGJIQHIOP8BP+ZHBNYmpQCxMYECX2JTBfeKDQGyVNkCUAaPBlFk0QGXRY0Ci
D5TBFlvuQFP6M0CtipnBP5nXQMivv0CC6snBKEsyQBkWk7/wDZ3BHRrOQLbz/kCMZdLB+dLpQFzp
/0DwH8LB6MSkQMXV8UAUesTBtE/sQJ10XL/nkrrBjTe9QLxsmsDxao3BtXzQQGziJMA39K3Bi53b
QHpVTMB2fZrByxDeQLdhxj8jR7fB/3X8QNphgUCPNarB1wB9QB7dUUDGCrfBzH4GQZkhr0CH67nB
nFuPQIZzlkA+uMbBAHSXQM34BT/e0ZrBFk9hQCA1lcB0TYjBxWyTQGY0hkB654XBf1O8QCXHO0DT
UIXBht7JQCi9k0D8B4nBpRJWQO/tKUDbyqfBEgz6P8DYWEBn15fBWSc0QIc9ekBzkYzBeQvcQCnJ
EL9yV7PByTWnQIHXgsAtCpHBJCrLQKEixb8XaKzBnx+5QBdXS8CsSJjBHvPTQPKzTD/NeLHB7HTk
QFc6h0A3TbDBYdKdQM3JbUBoorfBfEjtQKzMoEAoQrnB+L6mQCB2kEAKkcDBqjSqQJTHWj5+tKHB
RL93QFcSfcBmG47BmauxQEzxkr+2oqPBfzefQMM6CcC7U5zBLSG8QEjBZUD6Ra/Buoq6QPxnmT8g
nqjB8y7OQFvhpUBxUcHB02VnQDpSBMDrEpnBVUDJQJAEQkByjJvB9eaAQDlZUEA/EJnBJByyQIWB
KkBf4aXBmM6wQDqgc0BGVonBmf7QQB7+7EB48sfBJRBGQH7DPcAbIJLB4japQILVUkDQLZTB9aSE
QBvbNUBS+aLBKI40QLqpY0DiKZTBNIfvQFzzOkBbkpnBYN7VQMmlv0AAAcrBq8UyQALXjr81Ip3B
YRKrQDKP9UCsAMPBC5nRQLrKAEG2fNHBLcLxQLDW+0Ao0sHBDkDvQESCXb/bHLrBxGq6QOxbnMAY
vY3Bo7XRQMKFJcBjy63BvyraQLcJUcCFtprBFhvhQKrGxT/AybbBW3T8QFgJg0BTLKrB9E9/QLdO
TEBzH7fB0PIFQSaUsEB1+bnBjVaPQCe2k0Dv3sbBW6aXQKSOAj/2z5rBUkpcQJkIlcCjhIjBhwqS
QBdGe0BqK4XBtQXFQGE5RkBL5oTBKA/BQC76mEA50YnB8xNYQDDTKkA55qfBm437PxetXUB1O5jB
GKEzQOCTd0DIj4zBrb/WQOZ9DL+NCLTBCP5KQEK7PsDEOJHBL7/GQJSmw78MCq3BfPloQMi6AsCA
p5jBKKnPQO1XUD8p5bHBJbzkQPL1hEDZXLDB2sWcQGXnckAQdbfBqOfuQCmrnUD8YbnB+wCnQINK
kkBQccDBHhOoQBDWXT5byqHB7GKBQNc5f8ANj43BmZGvQIpwkr812qPB6QGfQJU6CcDMTZzBqCu7
QAPHZkDPMK/BZtC3QPyfmj/ZwKjB+9fPQMvnpEBjVsHBb3m5QBZvS8C+QpjBtODHQO7AQUC/kpvB
DvV/QLdzVkA3IZnBtE2wQK04K0C33qXBH4GwQCYCdUCrYInBuEfRQGaO60BHO8jBRFuqQJRKgsB2
C5HBUNWoQHHpYEAZsZTBxRODQOQHOECb4aLBfCMzQNzuaECZEpTBd6HtQML4NEADa5nBIzPZQH9m
vkAk+snB3jLjQLNAUMDzJZvB8pmnQLWk8kANlsXBLAraQPFeAEFab9HBG/rqQDgj+0BuWcDBN4To
QFi8V7+rD7vB9usJQP2YO8CYVY7BjC7MQG/KJMBtsa7BdJ8/QK+9oL9JiZvBeWncQGU0yD/vOrfB
P6j8QJGcfkAcSqrBHxV7QCS6VUA71rbBHEcHQUkiq0BFObrBDo2PQIchl0AZrMbBngyWQI9nAT9P
yprBgqhrQDDElsD81IfBN72SQORMhkCauIXBgyK7QEfwOkABLIXB+WXJQMdEk0A3w4jB6VVUQNxB
K0CEpKfBDnr3P2koX0Ah45fBISczQDoEgECnnIzBWH7WQPYvDb8qDrTBJSNMQC1JP8BEA5HBjIXG
QGj/w7+xDa3BIyZpQEJaA8DrhJjBzWvPQJSjTz+C67HBpqTkQFyrhUCjLrDBsgudQAvIckCybrfB
0NjuQG2HnkB8MLnB0EqnQAxRkkBpY8DBe4ynQP2lWT4c26HB1keCQFVif8D9ZI3BVy6vQHrwkr8L
46PBcfaeQFqCCcD5R5zBG0S7QFgBZ0A+IK/BUXi3QHIamj/lzKjBYPbPQARDpUDHOcHBgMO5QBhO
S8AtRJjBO9DHQGuBQECyj5vBLg2AQC19V0A0OJnBT0awQGngKkB936XBVpiwQJy9dkAOf4nBhATT
QP4B7EDHD8jBGRmrQG83gsDw/ZDB0/CoQPqtYUAux5TBxheDQKTnN0BP6KLBzTUzQGIda0BfQJTB
hEntQH1bMUAjVpnBj+vYQPSevkDE6cnBfGzjQKufT8CPOJvBTw7UQAoSAEF3qdHBGxPzQEuK+0AW
0MHB5ZmsQORi9EA+VcPBbzroQM2CWL9mFrvBHVALQL1iPMBQCY7BmxvMQETyJMDhr67BZEU/QC2k
or8RX5vBSEPcQKjhxz9IPbfB81/8QDlfgEDeCqrB9c57QEYoVUCt3LbBnikHQa12rEAg9LnB7/GP
QCr7lkCqpsbBjkeVQBluAD9m5ZrBnTFuQDvPlsDNnIfB9wCTQDP3h0BE64XB2o+6QO69PEDgLIXB
+vfJQDmqk0AN8IjBJFdUQMl9KkALo6fBTdH3P0pLYUAoFpjBkxAzQDKLgUB61YzBhnnXQMGMC79U
5LPBio9LQHS0P8ClIZHBCR/HQPtdw78i9qzBCtFoQHacA8C1mpjBriHQQDESUT87yLHBHiSdQLdv
cUBfjrfBPzjkQGpEhkDYH7DB9XSnQEaKkUBBh8DB9nXuQKIPn0C4IbnBVEynQDBAXD6B4KHBJfaB
QOG/f8DIe43BHD2vQAqckr/736PBBOWeQAaGCcBmTZzBohW7QOX9ZkBfKa/BaoK3QEimmj9PxKjB
1+TPQCgNpUDqRsHBIKq5QFVGS8DMQJjBnLbHQIyVQUCcl5vBtwuAQJZPWEAqNZnBAyGwQBVGK0C5
36XBZJ+wQMKld0Dxh4nBb6DTQMjK60ADEsjBfOCqQPhGgsA8A5HB3v+oQGwbZEDj3JTBUvuCQDGg
OECc5aLB1E4zQFX4aUCcGJTBJQntQA9qMUAGUpnBeuDYQKRdvkDh98nBnWnjQJNnT8DlIZvBVY+t
QMZ29EDSMsPBIlvUQPD+/0CHqdHBcS70QA78+kA37sHBq7XpQI9iVr9M2brB7ZYKQJr2PMD+M47B
cdPMQF2aJMBelq7Bpfc+QMdGo7+nepvBN0jdQP+9yD88C7fBxF18QJn8UkAnC7fBdb37QPF4gUCT
6KnBhlmQQMWvlUB13sbBdd0GQc+FrUDL0LnBx5KUQK6VAD/x/JrBX1dtQNcRl8Dqu4fB/FSTQFEx
iUB/+YXBeYW5QM6mPECVRoXBwrzKQPREk0A/2ojBngZUQBhZK0D7nafB+6X3P16JXkCP0ZfBom4z
QFYRgUA3sIzB

>  <OMEGA_E>  (3) 
SB8cPvCwHT6I4x0+gFYePkB3Hz5QMiE+oJEhPli0IT7w9yU+kMsnPg==

>  <OMEGA_NBR>  (3) 
     71043

$$$$
50157419
     RDKit          3D

 53 56  0  0  1  0  0  0  0  0999 V2000
    6.8043   -0.5445  -22.4605 C   0  0  0  0  0  0  0  0  0  0  0  0
    3.1044   -2.9688  -18.2238 C   0  0  0  0  0  0  0  0  0  0  0  0
    6.2547   -1.5248  -21.6178 C   0  0  0  0  0  0  0  0  0  0  0  0
    3.6016   -2.0368  -19.1437 C   0  0  0  0  0  0  0  0  0  0  0  0
    6.5901    0.8177  -22.1877 C   0  0  0  0  0  0  0  0  0  0  0  0
    4.9311    3.7309  -22.9399 C   0  0  0  0  0  0  0  0  0  0  0  0
    7.1544    4.1956  -22.0379 C   0  0  0  0  0  0  0  0  0  0  0  0
    5.2285    4.5043  -24.0696 C   0  0  0  0  0  0  0  0  0  0  0  0
    7.4489    4.9688  -23.1707 C   0  0  0  0  0  0  0  0  0  0  0  0
    5.2781    0.2166  -20.2227 C   0  0  0  0  0  0  0  0  0  0  0  0
    3.9615   -3.9705  -17.7307 C   0  0  0  0  0  0  0  0  0  0  0  0
    5.4964   -1.1424  -20.4889 C   0  0  0  0  0  0  0  0  0  0  0  0
    4.9426   -2.1418  -19.5616 C   0  0  0  0  0  0  0  0  0  0  0  0
    5.8773    3.5959  -21.8950 C   0  0  0  0  0  0  0  0  0  0  0  0
    5.8056    1.2088  -21.0707 C   0  0  0  0  0  0  0  0  0  0  0  0
    6.4783    5.1392  -24.1767 C   0  0  0  0  0  0  0  0  0  0  0  0
    5.7616   -3.1624  -19.0191 C   0  0  0  0  0  0  0  0  0  0  0  0
    6.2759    3.0403  -19.4276 C   0  0  0  0  0  0  0  0  0  0  0  0
    4.0164    3.2788  -19.1236 C   0  0  0  0  0  0  0  0  0  0  0  0
    5.5537    2.6737  -20.7195 C   0  0  1  0  0  0  0  0  0  0  0  0
    5.5146    3.8589  -17.1678 C   0  0  0  0  0  0  0  0  0  0  0  0
    7.9695   -3.9992  -18.5531 C   0  0  0  0  0  0  0  0  0  0  0  0
    6.5321    7.3627  -24.9903 C   0  0  0  0  0  0  0  0  0  0  0  0
    5.2546   -4.0511  -18.1217 N   0  0  0  0  0  0  0  0  0  0  0  0
    5.2749    3.3151  -18.5103 N   0  0  0  0  0  0  0  0  0  0  0  0
    4.1330    2.8519  -20.3580 N   0  0  0  0  0  0  0  0  0  0  0  0
    2.8108    3.5972  -18.5169 N   0  0  0  0  0  0  0  0  0  0  0  0
    7.4737    2.9483  -19.1815 O   0  0  0  0  0  0  0  0  0  0  0  0
    6.7260    5.9512  -25.2552 O   0  0  0  0  0  0  0  0  0  0  0  0
    7.1013   -3.1970  -19.3801 O   0  0  0  0  0  0  0  0  0  0  0  0
    7.5308    7.8415  -24.2009 F   0  0  0  0  0  0  0  0  0  0  0  0
    5.3307    7.5948  -24.3887 F   0  0  0  0  0  0  0  0  0  0  0  0
    6.5551    8.0230  -26.1733 F   0  0  0  0  0  0  0  0  0  0  0  0
    7.3916   -0.8375  -23.3182 H   0  0  0  0  0  0  0  0  0  0  0  0
    2.0762   -2.9195  -17.8970 H   0  0  0  0  0  0  0  0  0  0  0  0
    6.4120   -2.5714  -21.8330 H   0  0  0  0  0  0  0  0  0  0  0  0
    2.9673   -1.2508  -19.5262 H   0  0  0  0  0  0  0  0  0  0  0  0
    7.0238    1.5697  -22.8301 H   0  0  0  0  0  0  0  0  0  0  0  0
    3.9747    3.2349  -22.8654 H   0  0  0  0  0  0  0  0  0  0  0  0
    7.9029    4.0566  -21.2719 H   0  0  0  0  0  0  0  0  0  0  0  0
    4.4981    4.6126  -24.8577 H   0  0  0  0  0  0  0  0  0  0  0  0
    8.4189    5.4329  -23.2713 H   0  0  0  0  0  0  0  0  0  0  0  0
    4.6991    0.5054  -19.3580 H   0  0  0  0  0  0  0  0  0  0  0  0
    3.5783   -4.6916  -17.0239 H   0  0  0  0  0  0  0  0  0  0  0  0
    4.5547    3.9831  -16.6452 H   0  0  0  0  0  0  0  0  0  0  0  0
    6.1539    3.1664  -16.6006 H   0  0  0  0  0  0  0  0  0  0  0  0
    6.0152    4.8348  -17.2517 H   0  0  0  0  0  0  0  0  0  0  0  0
    8.9978   -3.9452  -18.9398 H   0  0  0  0  0  0  0  0  0  0  0  0
    7.9456   -3.6199  -17.5209 H   0  0  0  0  0  0  0  0  0  0  0  0
    7.6267   -5.0443  -18.5677 H   0  0  0  0  0  0  0  0  0  0  0  0
    3.3641    2.6715  -20.9714 H   0  0  0  0  0  0  0  0  0  0  0  0
    1.9552    3.5064  -19.0265 H   0  0  0  0  0  0  0  0  0  0  0  0
    2.7969    3.9176  -17.5697 H   0  0  0  0  0  0  0  0  0  0  0  0
  1  3  2  0
  1  5  1  0
  2  4  2  0
  2 11  1  0
  3 12  1  0
  4 13  1  0
  5 15  2  0
  6  8  2  0
  6 14  1  0
  7  9  1  0
  7 14  2  0
  8 16  1  0
  9 16  2  0
 10 12  2  0
 10 15  1  0
 11 24  2  0
 12 13  1  0
 13 17  2  0
 20 14  1  6
 15 20  1  0
 16 29  1  0
 17 24  1  0
 17 30  1  0
 18 20  1  0
 18 25  1  0
 18 28  2  0
 19 25  1  0
 19 26  2  0
 19 27  1  0
 20 26  1  0
 21 25  1  0
 22 30  1  0
 23 29  1  0
 23 31  1  0
 23 32  1  0
 23 33  1  0
  1 34  1  0
  2 35  1  0
  3 36  1  0
  4 37  1  0
  5 38  1  0
  6 39  1  0
  7 40  1  0
  8 41  1  0
  9 42  1  0
 10 43  1  0
 11 44  1  0
 21 45  1  0
 21 46  1  0
 21 47  1  0
 22 48  1  0
 22 49  1  0
 22 50  1  0
 26 51  1  0
 27 52  1  0
 27 53  1  0
M  CHG  1  26   1
M  END
>  <OMEGA_C>  (4) 
Ib3ZQBNkC78Xr7PBzK5GQAUBPsBpypHBpSbIQFYsw78s8azBAoBmQHJaAsBQJpnByeHSQMBRUT9b
gLHBy8udQN3HbkDYhLfB1/DkQJhChkCeTbDBElCnQOUikECCjsDBc13uQHEAn0CvXbnBP+aoQATR
XT4wyKHBZIl9QPEcfsCT2I3Bp+KvQMo6kr8u6aPBxCmeQJ8TCcAdfpzBdxK8QMQjZkAGKa/BPse5
QL24mj/DkKjBlU7PQAZ0pEDWacHBLF+4QPNjSsA4J5jBetTIQASVQkDGa5vBP4aAQEXXUUAu/ZjB
4rexQDUeK0CawaXBpXewQKD4dkC2V4nBvgX/QFHyf8DTbJTBKQfRQDmb60Aq7MfBWSWoQNyigcBE
+ZDBP8yoQIEqVEAhFZTBqkGEQLmFNkBB3aLBWuMzQGg4ZkCMIpTBrCjvQI2xPEChc5nBhzvXQHpw
vkC9CsrBHz7jQAScTMB2CpvBuPzwQJPt+kB0m8HBDZWqQO4I80D/G8PBC8PRQGJeAEHeYtHBXYjs
QLhjVr+mi7rBO+EEQEzYOsAJLY/B0C7NQGqRJMACqq7B0uc9QNsYoL+PNZzB+8LgQGPqyD8ipLbB
HmF+QJQIT0Bu7LbBjuT8QJXPgUDFLKrBu/CPQI6ak0Cn3MbB6bMGQRnarUCVK7rBFV+WQP9jAT88
3ZrBpwJlQHchlsAAMYjBB8CRQKjqfkBZKYXB0+zEQO2mSkAFzoTBdXzAQOO2mkBwA4rBGPcPQVx+
fMDIhJfBvkL+QAysZ8C+KozBIA70QPlqocC+ipTB6k1XQCH6KkCFxafBIEP6P35pYEBTNpjBDgEz
QGy5ekC0jozBjLzaQAoeAb/BorPBeXxJQE2NO8DEb5HB4wXJQHhgv7+hAq3B45BoQJ5yAMBC6pjB
K3TTQKyLWj/CZLHBAe/jQOQ7h0DxEbDBjhadQGaJb0AGabfBIrLtQGROn0DzN7nBed2mQCERkEAS
g8DB1wSpQMAYaj6Oz6HBgtJ/QCgqfcAbx43BVGGwQO5mkL8b/qPBaKqeQJzPCMAJoJzBpjS7QBKU
Z0CsAK/BE8m5QJZinT/WhKjB6vnOQNsrpEBlYMHBI524QPSZS8CZiZjBvHPIQFbHQ0ADXZvBoGWA
QJiUVkDsCJnBPzqxQJASLED5paXBR1OwQHwbeEANSonBlz8AQYbFccBZ3ZPBbOHSQHdN6kC+i8jB
OrqoQOwZgsB2SJHB0h2pQKK6Y0C1nJTB/+ODQL/9NkDUtaLBwk8zQNoUZ0B4CZTBmg7uQGlVNkCl
GpnBBcHXQJyzvEB/OMrB6hfjQDalT8BlqZvBIFvxQBtj+UBqv8HBJFyrQLOl80A7ksTBqHfXQF8Q
/kBBINLB6/PtQARbSb/2c7rB4ZwIQMzTNsCPg47B8D3OQHd7IsBBz67B+zNAQCmNmr/WypvB/W3h
QEeWzj82cLbBCYX7QLqCg0Du0qnBxNx8QEb/T0AWzrbBj2EGQRwdrkB5ArrBmZ+PQMBYk0CH2sbB
s0WWQPADAj+b55rBPNBnQDJ4lcCjCojB0HySQEAriECDvIXBBYG6QNYDPkDhBIXB7WXJQAielEB5
oIjBKYgQQdjmccA/NJfB/r7/QIvXScCVnozBexz3QBnPmcBs0ZHB7lhWQCBQKEDQcqfBbLX4P77P
WkDL1pfB+WIyQJhAf0BgoYzBfJjEQLuvHr/O5bXB6HdTQGJGScA9ApDB21W5QECIy79DQ67BPDhp
QG3XC8B9t5fBiiXBQIV+Pz/KZbPBgsKbQDQwfEC657bBZbrlQBYZfkC5trDBdhunQHTjl0Aalr/B
ww7xQPoqmUCeabnBWEGmQE89Mz6SpqHBSs6IQKmJgsCMu4zBJB+qQDaRmL/CHqTBbTieQIl+DMAJ
CpzBBJi6QPaoZECyMq/B/R2yQOpulD9QLKnBu+vRQIQ/pkCV4MDBtVK8QGjXScA7XJjBdhXGQLYQ
PUDYwJvBzcV9QM+bWkCkNZnBsK+tQEHSKEBkC6bBcTWxQDlPd0Aip4nBVMcBQQv1gsCYJZjBnIO/
QM+2zkCU7dDB3euwQAREgsCm05DBJj+oQO5lYUAR45TB39OAQFriOUCT46LBdxkyQNFzckAkLJTB
2c/rQKiBLkDgvpnBjkzfQBWNwEChNMnBZOXlQJLxRsB2U5zB2eqfQATa5UDJG8zBWdeuQAjTrEAj
ZNbBoUzTQLWb6EBwFNjBm+fPQOSsbL+TsL3Bk+ETQEu6SsBjoIzBCVO8QFLwKMA5KLDBRfI6QB+l
ub+hS5rB3/bJQDeyvj8PR7nBt1N2QG8rZkCrFrbB/QL+QOMxaUAkJqvBLxiPQIb9oEBWXsXBve8I
QVJKo0AyYrrB+BeaQACX8j6w7JnBZG6AQMRDmsBJz4bBmGOUQKaLiUCY+4XBKnS6QA0lPUBURIXB
9X3LQJwHk0BSUInBz40RQUf1fMB74pvBRzcDQU4IfsCIbo/Bl6T3QAFJo8AR85nBGb9OQK8VLkDg
gafBDTf0PxkNa0Bn75fBzKozQEaAhUB4yYzByr7EQML7F78C/LbByBVuQLn5hcDRFpjB+7G5QPLC
y7/nj6/BrJWBQHT1TcBFxJ/BM/TBQGq2Qz/SHLTBBImcQPZme0CDFbfB/z3mQExogECAobDBKM+n
QJURmECssr/B7j/xQDSGm0AXLbnBsnSpQOlzAT6jTaLBwtOMQHwihsAyNo7BlmGsQO+onb/cLKXB
v2ShQIBNEcCZTp3BDFq7QEPdZEBoSK/BqAi0QIjNkT/Ss6nBHNDRQOBHqEAplsDBFzu2QCI7FcCc
NpPBWFbHQLRfOUCa7pvBLex/QDU/VEDnPJnBpvuuQLXRJkDlSKbBQjKyQLwlbkBGlonB+i8AQTop
6r8L+5PBTzrKQJpk7UAN3sjBQ6arQJ0GUsC774vBI0+pQNENW0A26JTBDguCQH4nNkCEDaPByA00
QEO+aUALFJTBmxrtQG3EKkCt+ZnBEMncQIuTwkCBA8nBUQbWQMrttr+7nZDBAd6gQCl37kDta8XB
MjjLQKnq/EAyAdPB9A3iQC+hA0GfeMLBmmTPQB+TXr8P577Baw49QNxwncCWuZnBrWa7QDGHKMD2
z7HBnixjQBjMTMCHbKfB5m/KQMp4wz/e2bnBFFR4QPHUY0DVZLbBzpL+QG5KbECdDqvBdTqQQAIJ
oEArscXByecIQdyPpkDhDbrB3QGfQPKryj7KWprBhMCEQLsOnsDmT4jBmTiVQNoVhEBNy4XBjNe7
QO0SM0Cxc4XBZy3MQGi6jkCfDonBD9ULQeOah79pnZHBC2UEQeQ7MsCAKZDBRHQAQUh0+b9BupzB
+URRQGIYK0Ajt6fBTiT4P6ecYkDs2ZfBkXs1QHIqgEBjmIzBwVHIQCEzGb/CVbbBp+iJQKDWjsD0
EJjB8BO+QGY2yr+dsa7BJsuTQLVjX8DPu5/Bo4XDQG3xQz8N3LPB/GebQLYdfkCeMLfBoJzlQHZ9
fkCyDbHBc8+mQHmrmUAsyr/BjOrwQHa/mUAep7nBwpmnQPPuKD5oVKLBVNGPQEBnhcCZK43B7xSu
QBckmr/xiKTBEayjQOE2D8CCXJzB+HK6QEdbZUBKh6/B9mKzQK5xlD8WuKnBLI7RQCa7p0Aj68DB
1nCpQCR/AMDxJ5HBiOfGQCHqO0DAHpzBECp/QODqVUAXR5nBgiSuQG5dKEAbbqbBLlqyQMvzcUDd
yInBEF+8QBMkFb82NoLBoaHGQIBp60Ben8nBSyKfQFY3PsB66onB7BCpQCm3XUAzD5XBHVmBQF4K
OEC8HKPBCpUzQBaJakDGAJTBCMrsQHopLkCLM5rBKNDdQHopw0DzAMnB39S7QHlSUb9cpI3BOJG7
QGt6+kAMwL/Bzf6iQJ0I50AFxc/BKd7gQDJEBEGbS87B/+bTQPqVZL9/IL7BP8V7QEC/rcAKf5rB
I3DCQI/7J8DxlbDBulCPQE2NbMAtJKjB7SPMQCD3wT8KsbnBzqF1QAT3Z0BBarbBEPH9QMGraECF
jqvBSOiOQI1ho0DNicXBPukIQRdzo0CXsrrBOUyZQJvp6D5r0JrBl+2HQEBVncC8QYfBpG6VQKnr
hUCH84XBAWm8QNpmN0BXmIXBJSnMQC7ckEA3Y4nBWa/LQCqdxT78jYDBbFybQPAgEr/YUH7BCXnO
QKA6sb+meXzBwZNPQMZVLUBovKfB4Kf2P1TnYkBgspfB73k1QIV/gED/g4zB

>  <OMEGA_E>  (4) 
3CCCPuBaiT5wg90+IMX0PqTsBz8=

>  <OMEGA_NBR>  (4) 
     75772

$$$$
50168753
     RDKit          3D

 49 52  0  0  1  0  0  0  0  0999 V2000
    6.6129   -0.5662  -22.6905 C   0  0  0  0  0  0  0  0  0  0  0  0
    3.1120   -2.9738  -18.3341 C   0  0  0  0  0  0  0  0  0  0  0  0
    6.1293   -1.5691  -21.8300 C   0  0  0  0  0  0  0  0  0  0  0  0
    3.5950   -2.0864  -19.3023 C   0  0  0  0  0  0  0  0  0  0  0  0
    6.4643    0.7905  -22.3437 C   0  0  0  0  0  0  0  0  0  0  0  0
    4.9554    3.8461  -22.7553 C   0  0  0  0  0  0  0  0  0  0  0  0
    7.2652    4.0293  -21.9801 C   0  0  0  0  0  0  0  0  0  0  0  0
    5.2558    4.6481  -23.8510 C   0  0  0  0  0  0  0  0  0  0  0  0
    7.5674    4.8338  -23.0877 C   0  0  0  0  0  0  0  0  0  0  0  0
    5.3362    0.1406  -20.2873 C   0  0  0  0  0  0  0  0  0  0  0  0
    3.9848   -3.9416  -17.7974 C   0  0  0  0  0  0  0  0  0  0  0  0
    5.4819   -1.2048  -20.6311 C   0  0  0  0  0  0  0  0  0  0  0  0
    4.9381   -2.1963  -19.7101 C   0  0  0  0  0  0  0  0  0  0  0  0
    5.9436    3.5585  -21.7916 C   0  0  0  0  0  0  0  0  0  0  0  0
    5.8189    1.1497  -21.1279 C   0  0  0  0  0  0  0  0  0  0  0  0
    6.5638    5.1630  -24.0200 C   0  0  0  0  0  0  0  0  0  0  0  0
    5.7665   -3.1813  -19.1269 C   0  0  0  0  0  0  0  0  0  0  0  0
    6.3296    2.8999  -19.3839 C   0  0  0  0  0  0  0  0  0  0  0  0
    4.1006    3.3864  -19.1622 C   0  0  0  0  0  0  0  0  0  0  0  0
    5.6038    2.5893  -20.6834 C   0  0  1  0  0  0  0  0  0  0  0  0
    5.6052    3.9275  -17.1993 C   0  0  0  0  0  0  0  0  0  0  0  0
    5.8328    6.4273  -25.9353 C   0  0  0  0  0  0  0  0  0  0  0  0
    5.2792   -4.0324  -18.1930 N   0  0  0  0  0  0  0  0  0  0  0  0
    5.3447    3.3495  -18.5198 N   0  0  0  0  0  0  0  0  0  0  0  0
    4.1856    2.7689  -20.3126 N   0  0  0  0  0  0  0  0  0  0  0  0
    2.9262    3.9225  -18.6568 N   0  0  0  0  0  0  0  0  0  0  0  0
    7.5115    2.7122  -19.1159 O   0  0  0  0  0  0  0  0  0  0  0  0
    6.9113    5.9784  -25.0797 O   0  0  0  0  0  0  0  0  0  0  0  0
    7.0841   -3.2343  -19.4397 F   0  0  0  0  0  0  0  0  0  0  0  0
    7.0980   -0.8369  -23.6167 H   0  0  0  0  0  0  0  0  0  0  0  0
    2.0856   -2.9178  -18.0031 H   0  0  0  0  0  0  0  0  0  0  0  0
    6.2530   -2.6110  -22.0859 H   0  0  0  0  0  0  0  0  0  0  0  0
    2.9503   -1.3320  -19.7283 H   0  0  0  0  0  0  0  0  0  0  0  0
    6.8408    1.5596  -23.0018 H   0  0  0  0  0  0  0  0  0  0  0  0
    3.9604    3.4416  -22.6420 H   0  0  0  0  0  0  0  0  0  0  0  0
    8.0386    3.7695  -21.2725 H   0  0  0  0  0  0  0  0  0  0  0  0
    4.4887    4.8789  -24.5754 H   0  0  0  0  0  0  0  0  0  0  0  0
    8.5730    5.2024  -23.2268 H   0  0  0  0  0  0  0  0  0  0  0  0
    4.8456    0.4054  -19.3623 H   0  0  0  0  0  0  0  0  0  0  0  0
    3.6133   -4.6289  -17.0517 H   0  0  0  0  0  0  0  0  0  0  0  0
    4.6518    4.2005  -16.7234 H   0  0  0  0  0  0  0  0  0  0  0  0
    6.1294    3.1902  -16.5734 H   0  0  0  0  0  0  0  0  0  0  0  0
    6.2305    4.8258  -17.3092 H   0  0  0  0  0  0  0  0  0  0  0  0
    6.2391    7.0645  -26.7346 H   0  0  0  0  0  0  0  0  0  0  0  0
    5.3313    5.5555  -26.3808 H   0  0  0  0  0  0  0  0  0  0  0  0
    5.1083    7.0028  -25.3404 H   0  0  0  0  0  0  0  0  0  0  0  0
    3.4060    2.4639  -20.8595 H   0  0  0  0  0  0  0  0  0  0  0  0
    2.0771    3.8486  -19.1799 H   0  0  0  0  0  0  0  0  0  0  0  0
    2.9282    4.3832  -17.7692 H   0  0  0  0  0  0  0  0  0  0  0  0
  1  3  2  0
  1  5  1  0
  2  4  2  0
  2 11  1  0
  3 12  1  0
  4 13  1  0
  5 15  2  0
  6  8  2  0
  6 14  1  0
  7  9  1  0
  7 14  2  0
  8 16  1  0
  9 16  2  0
 10 12  2  0
 10 15  1  0
 11 23  2  0
 12 13  1  0
 13 17  2  0
 20 14  1  6
 15 20  1  0
 16 28  1  0
 17 23  1  0
 17 29  1  0
 18 20  1  0
 18 24  1  0
 18 27  2  0
 19 24  1  0
 19 25  2  0
 19 26  1  0
 20 25  1  0
 21 24  1  0
 22 28  1  0
  1 30  1  0
  2 31  1  0
  3 32  1  0
  4 33  1  0
  5 34  1  0
  6 35  1  0
  7 36  1  0
  8 37  1  0
  9 38  1  0
 10 39  1  0
 11 40  1  0
 21 41  1  0
 21 42  1  0
 21 43  1  0
 22 44  1  0
 22 45  1  0
 22 46  1  0
 25 47  1  0
 26 48  1  0
 26 49  1  0
M  CHG  1  25   1
M  END
>  <OMEGA_C>  (5) 
O53TQHLvEL8uhrXBeStHQBNSPsBVrJLB8CLEQATZyL/Do67BKhVmQEGHBcAaa5rBRtvOQEJfSj/Z
v7LBoJKeQO4ldkDECrbBsHzoQFXwgEA316/BNC+oQFC9lEDZzr7BOijyQH6umkCbs7jBicKqQIIE
ED5aTKLB3gZ/QOVDfMANYY7BvWuvQKM3mr94DKXBggSeQM+QDMBKrp3B8TG+QC2+Y0A0Va7BpjS6
QF0pkz/YBanBYArSQH43pUAHKcDBLoe4QNiaS8DoA5nBJozKQJWXOUAmEpvBDTiDQCC6WEAqTJnB
9FGzQDm3JUCMd6XB7F2zQLdbe0AimInBOKa6QHCszUCEe8/B1+6oQFYJgcBMi5HB7werQOBdVkCG
KJTB0PCFQAE2MUAjgKLBeEY7QJMKe0AuQZXB0F3wQPKTLUB37ZjBqindQPpOv0A7o8jBK7HiQAf/
TsB6hJvBECPjQK08Vr/+7rzBqXkFQNe9OsBGBpDBjRjIQBobJ8D+r7DB7dA8QKV9qr+Y053B1+fa
QBWhxz+vA7jBvHd9QN5CXEC7IrXBTp4AQas/cUAMLqrBg6OPQEwgnEBomsTB7yoJQUp6pkBr0LnB
Fg+bQGCNzz4C5prBG0FnQDkglMDeaYjBmduUQGdqhkCByYXBDyTEQPAsTEBXloTB+l/HQN1smkBQ
eYrBuKbHQJUQ4kBz4NXBvJmqQOTGsUDyC9PB2najQIkW4EAoucrBtPxZQH2wHUBb4KbBLO8EQJlP
dkBucJnB82Y7QNlCjEBoJ47B

>  <OMEGA_E>  (5) 
KAq2Pg==

>  <OMEGA_NBR>  (5) 
     35848

$$$$
