50168827
     RDKit          3D

 48 50  0  0  1  0  0  0  0  0999 V2000
    4.8927   -1.8406  -20.1370 C   0  0  0  0  0  0  0  0  0  0  0  0
    4.4062   -2.7049  -19.4381 C   0  0  0  0  0  0  0  0  0  0  0  0
    7.0419   -0.0915  -22.6615 C   0  0  0  0  0  0  0  0  0  0  0  0
    6.4027   -1.1243  -21.9494 C   0  0  0  0  0  0  0  0  0  0  0  0
    6.7666    1.2542  -22.3541 C   0  0  0  0  0  0  0  0  0  0  0  0
    4.8588    4.1093  -23.1324 C   0  0  0  0  0  0  0  0  0  0  0  0
    7.0343    4.7190  -22.2110 C   0  0  0  0  0  0  0  0  0  0  0  0
    5.0886    4.9504  -24.2323 C   0  0  0  0  0  0  0  0  0  0  0  0
    7.2682    5.5483  -23.3179 C   0  0  0  0  0  0  0  0  0  0  0  0
    5.2036    0.5337  -20.6235 C   0  0  0  0  0  0  0  0  0  0  0  0
    5.4899   -0.8086  -20.9228 C   0  0  0  0  0  0  0  0  0  0  0  0
    5.8169    4.0038  -22.0967 C   0  0  0  0  0  0  0  0  0  0  0  0
    5.8217    1.5799  -21.3471 C   0  0  0  0  0  0  0  0  0  0  0  0
    6.2975    5.6853  -24.3255 C   0  0  0  0  0  0  0  0  0  0  0  0
    6.3469    3.3529  -19.6761 C   0  0  0  0  0  0  0  0  0  0  0  0
    4.1063    3.5483  -19.2411 C   0  0  0  0  0  0  0  0  0  0  0  0
    5.5601    3.0330  -20.9394 C   0  0  1  0  0  0  0  0  0  0  0  0
    5.6990    3.8891  -17.3042 C   0  0  0  0  0  0  0  0  0  0  0  0
    3.8588   -3.7544  -18.5796 C   0  0  0  0  0  0  0  0  0  0  0  0
    3.1881   -3.1688  -17.3207 C   0  0  0  0  0  0  0  0  0  0  0  0
    5.4468    7.1107  -26.0527 C   0  0  0  0  0  0  0  0  0  0  0  0
    5.4018    3.7173  -18.7319 N   0  0  0  0  0  0  0  0  0  0  0  0
    4.1615    3.2095  -20.5068 N   0  0  0  0  0  0  0  0  0  0  0  0
    2.9260    3.7100  -18.5310 N   0  0  0  0  0  0  0  0  0  0  0  0
    7.5471    3.1919  -19.4807 O   0  0  0  0  0  0  0  0  0  0  0  0
    6.5822    6.5440  -25.3699 O   0  0  0  0  0  0  0  0  0  0  0  0
    2.0280   -2.5357  -17.6417 F   0  0  0  0  0  0  0  0  0  0  0  0
    5.8053    8.3183  -26.5519 F   0  0  0  0  0  0  0  0  0  0  0  0
    5.0642    6.2996  -27.0737 F   0  0  0  0  0  0  0  0  0  0  0  0
    7.7449   -0.3323  -23.4452 H   0  0  0  0  0  0  0  0  0  0  0  0
    6.6114   -2.1565  -22.1892 H   0  0  0  0  0  0  0  0  0  0  0  0
    7.2771    2.0426  -22.8873 H   0  0  0  0  0  0  0  0  0  0  0  0
    3.9439    3.5383  -23.0763 H   0  0  0  0  0  0  0  0  0  0  0  0
    7.7865    4.6252  -21.4417 H   0  0  0  0  0  0  0  0  0  0  0  0
    4.3432    5.0379  -25.0090 H   0  0  0  0  0  0  0  0  0  0  0  0
    8.2015    6.0860  -23.3966 H   0  0  0  0  0  0  0  0  0  0  0  0
    4.5054    0.7688  -19.8338 H   0  0  0  0  0  0  0  0  0  0  0  0
    4.7819    4.1792  -16.7705 H   0  0  0  0  0  0  0  0  0  0  0  0
    6.0788    2.9425  -16.8924 H   0  0  0  0  0  0  0  0  0  0  0  0
    6.4593    4.6743  -17.1800 H   0  0  0  0  0  0  0  0  0  0  0  0
    3.1112   -4.3266  -19.1484 H   0  0  0  0  0  0  0  0  0  0  0  0
    4.6751   -4.4237  -18.2700 H   0  0  0  0  0  0  0  0  0  0  0  0
    2.9706   -3.9844  -16.6154 H   0  0  0  0  0  0  0  0  0  0  0  0
    3.8731   -2.4490  -16.8488 H   0  0  0  0  0  0  0  0  0  0  0  0
    4.6218    7.2279  -25.3345 H   0  0  0  0  0  0  0  0  0  0  0  0
    3.3642    3.0875  -21.0978 H   0  0  0  0  0  0  0  0  0  0  0  0
    2.0462    3.5664  -18.9841 H   0  0  0  0  0  0  0  0  0  0  0  0
    2.9548    3.9701  -17.5658 H   0  0  0  0  0  0  0  0  0  0  0  0
  1  2  3  0
  1 11  1  0
  2 19  1  0
  3  4  2  0
  3  5  1  0
  4 11  1  0
  5 13  2  0
  6  8  2  0
  6 12  1  0
  7  9  1  0
  7 12  2  0
  8 14  1  0
  9 14  2  0
 10 11  2  0
 10 13  1  0
 17 12  1  6
 13 17  1  0
 14 26  1  0
 15 17  1  0
 15 22  1  0
 15 25  2  0
 16 22  1  0
 16 23  2  0
 16 24  1  0
 17 23  1  0
 18 22  1  0
 19 20  1  0
 20 27  1  0
 21 26  1  0
 21 28  1  0
 21 29  1  0
  3 30  1  0
  4 31  1  0
  5 32  1  0
  6 33  1  0
  7 34  1  0
  8 35  1  0
  9 36  1  0
 10 37  1  0
 18 38  1  0
 18 39  1  0
 18 40  1  0
 19 41  1  0
 19 42  1  0
 20 43  1  0
 20 44  1  0
 21 45  1  0
 23 46  1  0
 24 47  1  0
 24 48  1  0
M  CHG  1  23   1
M  END
>  <OMEGA_C>  (1) 
PpGcQJOZ67+kGKHBiv+MQJYdLcBQgZvBcFfhQJdQu720SrXB0+LMQG7pj79FmK/BUIjYQHCKoD8r
1bLBoHubQDx/g0A2D7nBqxjhQM8Bl0APsLHBaNWiQFRpnkDF28HBvJToQAOMsUAHi7rBBoSmQCSg
CD/l/KTBQq2vQD79Tr/oYafBLiS6QGgfgEAaxrDBg0u6QHo5yj/WxqrBBoXJQBDutUCsmsLBkhnL
QL6VVkCPaJ3Bm2aDQK0XY0DH7ZnBZ+yxQAkdQkDKg6fBRV62QDXneED9borB2vZ2QAZIcMDwopTB
fAlMQODMSsCykIrB4UuuQJCK40Dja9DBM9usQP7obUDf2pXBTCuFQKloTUDjDaTBHEM7QOFvbUBn
P5TBM4LxQMRHTEB02JvBuqHSQM9o0UB69crBIsoBQCZIIsA9Io3BZsW5QKIXBUFhatTB1g2iQEiW
yUDqltjBZtb3QFYgqr6+j7vBVZDTQE4DCsCHg7HBDd7oQOy5AkAlGbfBDGh8QD9zYkAwnLjBoCr5
QJoBlECLiKvBfPuKQFo2oUBbEsjBVjkDQXzAwkBHLLvB6CuQQAHSRD+wq57BrwWZQFG8hUAAKobB
sYXCQCVRPECfI4fB7rLOQI+TlUCYcInBlx1HQLBzisD1L5nBCpqVQN6OjcAKKZLBsx0+QHUAf8BO
7ITBx+B3QJm7HMBdyobBGeaTQCJL50AarcrBQk5XQPCZRUBIyKjBQ/QCQJA/ZEBk35fBwho9QJwV
fkDHhozBJ5OeQJiZ1r9P8p7BWYqQQGC2FsAPu5fBqgrfQEvj/L0l+LTB1ZTLQJKJj7/pp67Bn2bW
QNaLnj9V/LLBDFecQHYag0ApWbnBGEHhQLLZl0CExLHBAKGjQAP5nUA/IcLBxbroQJRfskBXoLrB
8uilQMicGj+an6TBZz+vQEiOPr9nbKbBg4+6QEaKgEDz9rDBIxq5QAw8zj+q1arBJ/bJQF4ktkCA
ycLBjxbLQKMSWEC+iZ3BvXSDQApdYkAi8JnBzcKxQCN9RED3qKfB4HS2QH+Fd0AreIrBqXGAQNML
R8ADq47BMBNZQNQtjcDropLBEUCvQHd530D+idHBK+SsQLPDbkDk65XBVRWFQBNWUkAKO6TBjbY7
QLSgZUAzDZTBs0rxQOIpS0AZ9ZvBkw/TQPe30UAOIsvBmbdEQLCLpcDwDIrBdxe6QDc1AkGVhNbB
jrGlQFRkwUCHB9nBPJ30QJ02zr7DVrvB01TSQMiKCsD3HbDBlR/mQOUGAEC4rrfB5tx+QBRxYECU
+7jBxhX5QHE2lUCIi6vB0wSMQB5LoECjacjBUiwDQSILxECeL7vBHamPQKIrYD8wYZ7BTzaZQMP9
hEA9JobB3ETCQGoZOkDzV4fBrBDPQLWElEBIVonBwvWaQBSZVcB2LInBWihQQLQWIcA3corBLvce
QOEfhsDWR5fBM5SDQHhansDTt5fBjYuTQM2/5ED5RczBE0lXQMbYT0DEEqnBq3cDQLBoW0AAppfB
48A9QBYzckAqNozBE++0QM9i7r+OHp7BUjyvQHFuLsCKc5fBm1PQQLLtLb5H8LfBgZ3JQB0sl78Z
TLDBJjbJQKvYlj+1O7XBWfOZQHmxh0DvNbjB4SvkQG5OkEBThLLBYK6hQEK6okAu9MDB/azrQE/O
q0BgNrvBuXy0QIIaAT/aL6PBarK7QIGYV78Z7KXBMsa6QP8nfkD/tbDBNDq7QGX9wz/lxqrBKkLK
QJvetUDHVMLBrjXLQFyiV0CzaJ3BIFWDQBK5ZUC8H5rBi2KyQFM4P0ANgafBqEy2QKx5hUDZ+4rB
CmuoQBXvcMD5bI/B4RNxQH+Jg8DOno7B82y6QFOK+UASccrBr8KsQBWudEA5LpbBd2uFQJXmRkB3
56PBO6I6QATPdEBUqJTBUMHxQNmbUEDYxZvBuCTSQNN90UDtucrBE3tlQM+wosCmK4fBNoWPQDMV
80BoZMvB0HHCQEVnB0ELJsHBB/XaQJZW274v5b/BXh7PQGDDDcC2YLLBjGfOQOGj+T+5IrvBmoh1
QN+4ckCJMbfB7xb+QJ05iECpK63ByX2IQE3xqEBYqcbB0pEFQeY9uUBib7zBLripQB1VQT/jOZvB
OcuYQHsNkECx+obBQjHDQN1+UkCQ1IbBzwzOQCBxn0DoxorBkmq6QIhNlcAitpHBs82zQOjkWcDU
nIfBAvdMQPakTcDcRIzBJgpaQH7tjsDZbpbB/2/FQIieBkH4MdHBqPpXQNfJNkCpUqjBk4YCQO4W
aECJKZjBGBE8QCIwhkDLOI3B

>  <OMEGA_E>  (1) 
YLgRPaCU+z1MJ4g+

>  <OMEGA_NBR>  (1) 
    191427

$$$$
50168747
     RDKit          3D

 52 54  0  0  1  0  0  0  0  0999 V2000
    4.9277   -1.9065  -20.4855 C   0  0  0  0  0  0  0  0  0  0  0  0
    4.4403   -2.9027  -19.9980 C   0  0  0  0  0  0  0  0  0  0  0  0
    7.1561    0.0482  -22.7398 C   0  0  0  0  0  0  0  0  0  0  0  0
    6.5034   -1.0310  -22.1248 C   0  0  0  0  0  0  0  0  0  0  0  0
    6.8489    1.3633  -22.3553 C   0  0  0  0  0  0  0  0  0  0  0  0
    4.8280    4.1159  -23.0949 C   0  0  0  0  0  0  0  0  0  0  0  0
    6.9841    4.7703  -22.1573 C   0  0  0  0  0  0  0  0  0  0  0  0
    5.0644    4.9339  -24.2111 C   0  0  0  0  0  0  0  0  0  0  0  0
    7.2266    5.5725  -23.2816 C   0  0  0  0  0  0  0  0  0  0  0  0
    5.2419    0.5168  -20.7208 C   0  0  0  0  0  0  0  0  0  0  0  0
    5.5561   -0.7959  -21.1110 C   0  0  0  0  0  0  0  0  0  0  0  0
    5.7780    4.0367  -22.0491 C   0  0  0  0  0  0  0  0  0  0  0  0
    5.8623    1.6124  -21.3657 C   0  0  0  0  0  0  0  0  0  0  0  0
    6.2737    5.6675  -24.3105 C   0  0  0  0  0  0  0  0  0  0  0  0
    6.3379    3.3428  -19.6472 C   0  0  0  0  0  0  0  0  0  0  0  0
    4.0981    3.5738  -19.2243 C   0  0  0  0  0  0  0  0  0  0  0  0
    5.5515    3.0377  -20.9109 C   0  0  1  0  0  0  0  0  0  0  0  0
    5.6872    3.8899  -17.2800 C   0  0  0  0  0  0  0  0  0  0  0  0
    2.6469   -2.5351  -16.3402 C   0  0  0  0  0  0  0  0  0  0  0  0
    3.9064   -4.1371  -19.4366 C   0  0  0  0  0  0  0  0  0  0  0  0
    3.7144   -3.9863  -17.9283 C   0  0  0  0  0  0  0  0  0  0  0  0
    5.4677    7.0417  -26.0990 C   0  0  0  0  0  0  0  0  0  0  0  0
    5.3943    3.7233  -18.7087 N   0  0  0  0  0  0  0  0  0  0  0  0
    4.1529    3.1620  -20.4680 N   0  0  0  0  0  0  0  0  0  0  0  0
    2.9174    3.8099  -18.5365 N   0  0  0  0  0  0  0  0  0  0  0  0
    7.5350    3.1598  -19.4503 O   0  0  0  0  0  0  0  0  0  0  0  0
    6.5838    6.4738  -25.3882 O   0  0  0  0  0  0  0  0  0  0  0  0
    2.6769   -3.0203  -17.6878 O   0  0  0  0  0  0  0  0  0  0  0  0
    5.8776    8.1973  -26.6761 F   0  0  0  0  0  0  0  0  0  0  0  0
    5.0406    6.1874  -27.0660 F   0  0  0  0  0  0  0  0  0  0  0  0
    7.8937   -0.1323  -23.5078 H   0  0  0  0  0  0  0  0  0  0  0  0
    6.7280   -2.0425  -22.4296 H   0  0  0  0  0  0  0  0  0  0  0  0
    7.3672    2.1913  -22.8160 H   0  0  0  0  0  0  0  0  0  0  0  0
    3.9145    3.5429  -23.0340 H   0  0  0  0  0  0  0  0  0  0  0  0
    7.7210    4.7119  -21.3700 H   0  0  0  0  0  0  0  0  0  0  0  0
    4.3245    5.0045  -24.9946 H   0  0  0  0  0  0  0  0  0  0  0  0
    8.1533    6.1219  -23.3576 H   0  0  0  0  0  0  0  0  0  0  0  0
    4.5275    0.6892  -19.9294 H   0  0  0  0  0  0  0  0  0  0  0  0
    4.7725    4.1957  -16.7509 H   0  0  0  0  0  0  0  0  0  0  0  0
    6.0486    2.9369  -16.8664 H   0  0  0  0  0  0  0  0  0  0  0  0
    6.4602    4.6619  -17.1519 H   0  0  0  0  0  0  0  0  0  0  0  0
    1.8324   -1.8039  -16.2312 H   0  0  0  0  0  0  0  0  0  0  0  0
    2.4791   -3.3762  -15.6514 H   0  0  0  0  0  0  0  0  0  0  0  0
    3.6066   -2.0527  -16.1028 H   0  0  0  0  0  0  0  0  0  0  0  0
    2.9373   -4.3615  -19.9063 H   0  0  0  0  0  0  0  0  0  0  0  0
    4.6087   -4.9605  -19.6337 H   0  0  0  0  0  0  0  0  0  0  0  0
    3.4259   -4.9547  -17.4936 H   0  0  0  0  0  0  0  0  0  0  0  0
    4.6530   -3.6431  -17.4686 H   0  0  0  0  0  0  0  0  0  0  0  0
    4.6548    7.2418  -25.3855 H   0  0  0  0  0  0  0  0  0  0  0  0
    3.3554    2.9604  -21.0367 H   0  0  0  0  0  0  0  0  0  0  0  0
    2.0375    3.6665  -18.9896 H   0  0  0  0  0  0  0  0  0  0  0  0
    2.9458    4.1236  -17.5874 H   0  0  0  0  0  0  0  0  0  0  0  0
  1  2  3  0
  1 11  1  0
  2 20  1  0
  3  4  2  0
  3  5  1  0
  4 11  1  0
  5 13  2  0
  6  8  2  0
  6 12  1  0
  7  9  1  0
  7 12  2  0
  8 14  1  0
  9 14  2  0
 10 11  2  0
 10 13  1  0
 17 12  1  6
 13 17  1  0
 14 27  1  0
 15 17  1  0
 15 23  1  0
 15 26  2  0
 16 23  1  0
 16 24  2  0
 16 25  1  0
 17 24  1  0
 18 23  1  0
 19 28  1  0
 20 21  1  0
 21 28  1  0
 22 27  1  0
 22 29  1  0
 22 30  1  0
  3 31  1  0
  4 32  1  0
  5 33  1  0
  6 34  1  0
  7 35  1  0
  8 36  1  0
  9 37  1  0
 10 38  1  0
 18 39  1  0
 18 40  1  0
 18 41  1  0
 19 42  1  0
 19 43  1  0
 19 44  1  0
 20 45  1  0
 20 46  1  0
 21 47  1  0
 21 48  1  0
 22 49  1  0
 24 50  1  0
 25 51  1  0
 25 52  1  0
M  CHG  1  24   1
M  END
>  <OMEGA_C>  (2) 
7a+dQIwH9L9D4qPBIxeOQGnFOcD1+5/Btv7kQBuORT0y67XBnRvQQDP5g7+q/7DBlSrbQEF/rj+/
17LB636aQES1g0BrwrjBhn3fQJKmmEAtQrHBpQ+iQKzinUA+sMHBi0DnQKRRskCwQLrBkL2nQKtM
BD8mxKXBbMuxQEu9S78746jBZeW4QGIsgUB7ZLDBC5i7QD1jzj/b7KrB1cHIQPtbtUD/e8LBeNDK
QMnwVUB6LZ3BkCODQIS4ZEBWy5nBOqaxQL9pQkB9SafBQv21QFX0eEBlPYrBQGcpQKk+IsCmuILB
rwF6QHxjhMA0fpvB1LhtQMMff8AabY/BufeuQFJV4UDUytDB8p2sQDdLbkCCq5XBceSEQJdeSkBh
vqPBk7Y6QNbVc0DCSpTBjh7xQHI6SkBLmpvByK7SQEUpz0D8GsvBkVErQHVMQcC0gI3BIxW8QDMo
A0G9aNXBkEyhQCv/xUAth9jByZj8QLaGB74HELzBAEzXQBe4AsDsb7PB67/rQE4+DEAeh7bB84d6
QMq+YkCxRbjBaBL3QKbHlkCt9arBcWKKQD0loED69MfBGnQCQTLmw0BR3LrBLOGQQMttMD9db5/B
tbiYQJBDhkDQAYbB9Y3BQJL1O0BQ7obBT7rOQCQulUADN4nBdovqP9Dl5r9p2YHBBKkeQCsTWMAq
bHrBJ9NmQDdgA8Cj0oDB2/w7QBiRi8AvQJ/BgHqTQBK8nsDqEZ3BZkJbQBWNnsDV8ovB+eSUQOYn
acCqv4vBZ/SUQKK850B/FcvBlr9WQKd3PUAfS6jBG2cCQJGoakC36pfBuIc8QLz0g0ABs4zBNq+Y
QLYq7L8zgaLBwaOGQLX5L8Al5J3BpG/iQIj9hb1mQrXBi2jMQHYsjb9JCLDBRh/aQAQVoz/wirLB
cnycQGh7gUArTLnBWsbgQG+Dl0DdmbHBNhekQLu6m0AHNsLB/T/oQEzSsUCafbrBa/ylQO6CCT/X
PqXBgW2uQGVcTL+d+qfBfEy6QEmdf0BeyrDBuvC6QLxfyz+Er6rB+MnJQKHwtEDtucLBxRvLQC3Q
V0CoXp3BLWKDQLgAZECR95nB9h+yQFJhQkB8dKfBiiy2QFAwfkBZjYrBxEwjQBYAF8AZioTBXSpk
QOCLd8CIdZjBM22BQLaFfsA9uYzBWKmuQNbr3kBWcNHB5cWsQKQhcUAL8ZXBXUuFQIhNTUA2DqTB
sAs7QO6AbUDATJTB/23xQMDlTECHvJvB1GrSQG5o0UDb7crB5sE9QCg0b8CCToXBG46OQPVi70Ct
UsvBx5u8QPUI/kCfI9jBCr/5QI1MmL60XLvBSHfSQAZqCMBJMLLBy5DrQENUBEA7dbbBol1/QOvg
XECJ7rjBAXz4QBRRlUDDVqvB1jeNQEy7nEDrrsjB6dQCQUfYw0DmA7vBsmOPQCYQQz/c9Z7B+9mY
QFsLiUD8XYbBRgXCQDEPQkAREIfBHbXOQH4ZmECxsInByFbdP9FtEcATeX3BsKNZQKdG379I4IHB
j2sNQDShAMAgbIzB3m0eQKDubcC/jZjB3P9zQA2ZmcB7sZzBOUOOQKqTn8DYWovBHsWaQA3yTsCx
VYvByOeiQAxXw0ChDNbB67dXQJ+bREBnyajBresCQCrZYkAE6JfBh5M8QEwCf0B1m4zBisueQOIC
9r/kX6PBnTCOQEDQOcCmf5/BQmTlQBBAlDx+qLXByofRQOFph7/BcbDBWq/aQJ79qj9R3LLB1Smb
QOP9gUAxDbnB5ybfQDNomEB9SrHBj9aiQC0snEAo+8HBSsjmQOF+skA/N7rB60uoQGATAD/8faXB
kRazQBrdUL8LYqjBo+a4QIBTgEAtibDB8G27QPK1yz+u4KrBirfIQMk3tUCQjsLBVrDKQEWUVUCj
TJ3BEyCDQIiHZUBW5ZnBumqxQA9gQUCWXafBfUq2QI00fEAodIrBtUwsQAn+FcDfaILBQpl1QHMv
g8De8JrBDGJoQBLtecAE7o7Bb2iwQImc3kCd+NHBGrCsQFLNb0CF2JXBk7CEQJLZSUBwzKPBwfU6
QAdZdUBaXJTBruvwQC0HSUC6tpvBqaTSQHTI0EBz7crBkHIuQH2QM8DaQI3BbdakQB52vkCOs9jB
iOiNQA/47EAAWMzBieT8QOIPK75F0bvBR5zZQL2eBMB+nrLBA1vqQNZcCkBt0LbBUap8QA77XUDW
r7jBTZf2QJaslkDf9KrB696LQE5FnUBrbsjByAsCQbu1xEBTsLrB2G+RQM2TLT+PK5/BLzCZQBqK
iEA9P4bBFZrBQKmNP0Ck/obBdErPQOSilkAalYnBqdT9PynnwL8ruoHBFdEXQEyASsACRnrBcohs
QI1TAMAFCYDBTmw3QOkMicCbzJ7BE/yPQDrEnsB8TJzBOCpNQPlHmsDzcYvBPhOTQFLUa8C/F4vB
xe28QGdF+UA5ytbBpDBWQHpjPEC9S6jBrXUCQMKsa0As65fBTS09QHU2hUDoz4zBkvi0QKMG778g
5p3BcuquQFIkLsBOLJfBJljQQBGiRb5ZzLfBC9HJQJ1smb9TGbDBUBHJQDUTlD9OKrXBTSCZQCZV
iEAgDLjBov/jQHzUjkCKxbLBRIWgQOgDpECNscDBjl/rQItzqkCEcLvBGq+0QDrO/T6REKPBYe+7
QM9HWr+WvKXBC226QKIGfUALxrDBcze7QNQowj9At6rBh7DJQGTntUB3WMLBAjbLQOmcV0AaeZ3B
FmGDQOxvZUCbHZrB4jmyQDplPkCthKfBppK2QHr2hUCLEovBmO8BQQ8WmMBn+ojBW7ynQCFTb8AN
/I7By67DQACiXcBnB4XBmO+uQLN46kD/ss7BwtqsQF3ldEBgPJbBjlOFQEXbRUBb3KPB9OM6QJ7C
dEDLn5TBuc/xQE0oUUBo4ZvBK7DSQIFJ0kBNi8rBJ+/wQAqJXMAdmofB4xG+QAudB0FAD9PBF1Sa
QG6o00BSZ9bBh/XaQOf86b6mvr/B5G7PQP30DsBJILLBBQnOQINE9j9mHrvBRptzQDrYdECK77bB
CjD+QJ7zhUDflq3BzbuGQO65q0D9HMbBSI0FQcP9tkDs0LzBDwuqQJSgQD/sGpvB6huZQBCQkEBt
DYfB7qTDQIXRU0Bg4YbBrzzOQC0EoEDi8YrBrwUTQS6XlMA65orBly8AQXKOqsDIiYHBIJzzQBr2
qMBTi4/BfM+FQKCybsCeo4zByfyvQFJDl8BDRJLB37W6QFIcH8C0qYHBosK9QH4BiMBOIH7B3N2Y
QCvH8UBoF8jBiq1XQMUaNUCpOKjB5a8CQC+gZ0CtFJjBQIk8QPV0hkD5N43B

>  <OMEGA_E>  (2) 
4Aw0PtBwSj4wt0s+COfNPg==

>  <OMEGA_NBR>  (2) 
     90115

$$$$
50168768
     RDKit          3D

 55 57  0  0  1  0  0  0  0  0999 V2000
    5.6743   -1.8684  -19.7924 C   0  0  0  0  0  0  0  0  0  0  0  0
    5.4990   -2.7415  -18.9688 C   0  0  0  0  0  0  0  0  0  0  0  0
    6.5187   -0.1548  -23.0116 C   0  0  0  0  0  0  0  0  0  0  0  0
    6.3137   -1.1719  -22.0616 C   0  0  0  0  0  0  0  0  0  0  0  0
    6.2942    1.1908  -22.6647 C   0  0  0  0  0  0  0  0  0  0  0  0
    4.8008    4.2654  -22.9865 C   0  0  0  0  0  0  0  0  0  0  0  0
    7.1348    4.4979  -22.3232 C   0  0  0  0  0  0  0  0  0  0  0  0
    5.0261    5.1172  -24.0706 C   0  0  0  0  0  0  0  0  0  0  0  0
    7.3603    5.3551  -23.4143 C   0  0  0  0  0  0  0  0  0  0  0  0
    5.6544    0.5017  -20.4108 C   0  0  0  0  0  0  0  0  0  0  0  0
    5.8813   -0.8417  -20.7616 C   0  0  0  0  0  0  0  0  0  0  0  0
    5.8395    3.9749  -22.0765 C   0  0  0  0  0  0  0  0  0  0  0  0
    5.8617    1.5343  -21.3534 C   0  0  0  0  0  0  0  0  0  0  0  0
    6.3054    5.6919  -24.2848 C   0  0  0  0  0  0  0  0  0  0  0  0
    6.3536    3.3681  -19.6727 C   0  0  0  0  0  0  0  0  0  0  0  0
    4.1058    3.5835  -19.2651 C   0  0  0  0  0  0  0  0  0  0  0  0
    5.5811    2.9861  -20.9339 C   0  0  1  0  0  0  0  0  0  0  0  0
    5.6944    4.1710  -17.3718 C   0  0  0  0  0  0  0  0  0  0  0  0
    5.2818   -3.8000  -17.9844 C   0  0  0  0  0  0  0  0  0  0  0  0
    3.9357   -4.5322  -18.2261 C   0  0  0  0  0  0  0  0  0  0  0  0
    2.6881   -3.6137  -18.1141 C   0  0  0  0  0  0  0  0  0  0  0  0
    2.5617   -2.9650  -16.7194 C   0  0  0  0  0  0  0  0  0  0  0  0
    5.5169    7.4489  -25.7618 C   0  0  0  0  0  0  0  0  0  0  0  0
    5.3994    3.8199  -18.7708 N   0  0  0  0  0  0  0  0  0  0  0  0
    4.1747    3.0947  -20.4838 N   0  0  0  0  0  0  0  0  0  0  0  0
    2.9153    3.8208  -18.5867 N   0  0  0  0  0  0  0  0  0  0  0  0
    7.5595    3.2691  -19.4714 O   0  0  0  0  0  0  0  0  0  0  0  0
    1.3634   -2.1956  -16.6557 O   0  0  0  0  0  0  0  0  0  0  0  0
    6.5817    6.5523  -25.3386 O   0  0  0  0  0  0  0  0  0  0  0  0
    4.5140    6.7779  -26.3912 F   0  0  0  0  0  0  0  0  0  0  0  0
    5.0224    8.1407  -24.6972 F   0  0  0  0  0  0  0  0  0  0  0  0
    6.8489   -0.4068  -24.0085 H   0  0  0  0  0  0  0  0  0  0  0  0
    6.4874   -2.2040  -22.3281 H   0  0  0  0  0  0  0  0  0  0  0  0
    6.4512    1.9674  -23.3986 H   0  0  0  0  0  0  0  0  0  0  0  0
    3.8246    3.8259  -22.8439 H   0  0  0  0  0  0  0  0  0  0  0  0
    7.9530    4.2358  -21.6687 H   0  0  0  0  0  0  0  0  0  0  0  0
    4.2187    5.3405  -24.7522 H   0  0  0  0  0  0  0  0  0  0  0  0
    8.3477    5.7575  -23.5861 H   0  0  0  0  0  0  0  0  0  0  0  0
    5.3193    0.7459  -19.4136 H   0  0  0  0  0  0  0  0  0  0  0  0
    4.7705    4.4990  -16.8729 H   0  0  0  0  0  0  0  0  0  0  0  0
    6.0999    3.2912  -16.8508 H   0  0  0  0  0  0  0  0  0  0  0  0
    6.4336    4.9852  -17.3463 H   0  0  0  0  0  0  0  0  0  0  0  0
    6.1029   -4.5285  -18.0556 H   0  0  0  0  0  0  0  0  0  0  0  0
    5.2717   -3.3560  -16.9781 H   0  0  0  0  0  0  0  0  0  0  0  0
    3.9552   -4.9676  -19.2361 H   0  0  0  0  0  0  0  0  0  0  0  0
    3.8410   -5.3366  -17.4818 H   0  0  0  0  0  0  0  0  0  0  0  0
    2.7662   -2.8174  -18.8689 H   0  0  0  0  0  0  0  0  0  0  0  0
    1.7876   -4.2151  -18.3075 H   0  0  0  0  0  0  0  0  0  0  0  0
    2.5326   -3.7517  -15.9511 H   0  0  0  0  0  0  0  0  0  0  0  0
    3.4271   -2.3099  -16.5407 H   0  0  0  0  0  0  0  0  0  0  0  0
    5.9561    8.1662  -26.4707 H   0  0  0  0  0  0  0  0  0  0  0  0
    3.3822    2.8312  -21.0338 H   0  0  0  0  0  0  0  0  0  0  0  0
    2.0403    3.6174  -19.0261 H   0  0  0  0  0  0  0  0  0  0  0  0
    2.9342    4.1948  -17.6595 H   0  0  0  0  0  0  0  0  0  0  0  0
    1.2876   -1.7972  -15.7966 H   0  0  0  0  0  0  0  0  0  0  0  0
  1  2  3  0
  1 11  1  0
  2 19  1  0
  3  4  2  0
  3  5  1  0
  4 11  1  0
  5 13  2  0
  6  8  2  0
  6 12  1  0
  7  9  1  0
  7 12  2  0
  8 14  1  0
  9 14  2  0
 10 11  2  0
 10 13  1  0
 17 12  1  6
 13 17  1  0
 14 29  1  0
 15 17  1  0
 15 24  1  0
 15 27  2  0
 16 24  1  0
 16 25  2  0
 16 26  1  0
 17 25  1  0
 18 24  1  0
 19 20  1  0
 20 21  1  0
 21 22  1  0
 22 28  1  0
 23 29  1  0
 23 30  1  0
 23 31  1  0
  3 32  1  0
  4 33  1  0
  5 34  1  0
  6 35  1  0
  7 36  1  0
  8 37  1  0
  9 38  1  0
 10 39  1  0
 18 40  1  0
 18 41  1  0
 18 42  1  0
 19 43  1  0
 19 44  1  0
 20 45  1  0
 20 46  1  0
 21 47  1  0
 21 48  1  0
 22 49  1  0
 22 50  1  0
 23 51  1  0
 25 52  1  0
 26 53  1  0
 26 54  1  0
 28 55  1  0
M  CHG  1  25   1
M  END
>  <OMEGA_C>  (3) 
55O1QM0n77/dVp7BgPevQPRzL8AxwJfBhJnQQDqOHr6wF7jB/QnKQK8Alr9BfrDB4mnJQMprmD9U
UbXBFKCZQNF9iEBm5LfBmFDkQKTuj0D/lbLBN9agQG7Ao0CekMDBsIfrQK5cq0CDULvB6/C0QHJy
AD9iSaPBNzO8QP55V7/DF6bB6ty6QE1lfkCinLDB55K7QA9kxD/V06rBpMXJQPMjtkBDR8LBzlDL
QHyOV0DGYZ3BYGKDQMVXZUD/HprBD5iyQGccP0CoeKfBZji2QNd4hUBy+YrBgQSpQMszc8AV4I/B
seJ7QKsHkcAPz5HBcgksQCRHZ8DB6ZDBofIjQAvCPcA7wYXBrIqwQCVd7kAtGM7BgcesQGp5dECH
KpbB05aFQOEPRkDW3qPBiZQ6QFWHdECksZTBj+fxQCM4UUBqxZvBCoSuP0+EDMDVPoXBRp3SQC+s
0UBytcrByXKQQFrk2EA1IdPBt7egQHZAAkHbk8XBhyrbQJZG0L5sEcDB+JjPQBwODcAGoLLB7W/O
QNTU+z9RMLvBUMZ0QJzbdEBTwLbBpX7+QK2Lh0CMWa3Bgf+GQCnlqkCHBMbBJ5AFQbY9uEBEsLzB
ujeqQM/0Pj8LT5vBNKiYQHT3j0Cd+4bBEzLDQFuiUkBjzobBGODNQKyGn0A5xYrBSUvDQITpkMDI
cZDBEbKoQHvIVsAZ04fBViJ9QDv2nsCC45nBgNJ1QHDFqsDK2ovB7ggxQJpPNMCT85bB287kP1Xi
hsC2dZLBeBYiQEsccMDSN3/Ba1VbQMPUE8BlU4TBTJi+QMyoAkEIxNPBc3VYQPoyNUBMRajB55QC
QOmCZ0B4NZjBFMo7QLY7hkCvRo3Bi8+kP/QL5r+6vnzBWcmZQA5677+5xqLBIASIQNpDNMDKpJ7B
Cf3iQODmLb06RrXBK4/NQFZIi78sBrDBze3ZQP9opT84mLLBS3ubQLz+gkDyHLnBepTgQJ6Cl0DD
nbHBz9CiQC7LnUBw8MHBNhjoQMLcsUDSf7rBvB2mQLybCD89RqXBdFGvQEipTL/RAKjByde5QBNH
gEChvrDBWKe6QAQozD8Uu6rBw07JQD6/tUB2pMLBcfjKQBV3V0C2YZ3BHleDQMWyY0CH45nBo8Wx
QE6uQkCFdKfBMGa2QHz+fECcgorBNzhmQEOSfsB92ZnBTQCCQCDYhsBMLY7B5yl8QBUQP8C/nIbB
ZgIfQNMjJcDTOYTBgrSvQBRd3UCC2dHBec2sQPSpcEBk55XBkwqFQFKeTUD1/6PB8zU7QOJpbEAD
J5TBszTxQHs2S0ABxJvBI5noP4hQB8Daj43BlbPSQJRX0UDc+crBAwe6QClFAUEbzNbBtg2pQLyR
vkDdWdnBTG36QLlZh77XXrvBjkjUQJBKB8AYJLLBcuLqQLH3BUAGjLbB6eV8QBSiYEBotbjBMHj4
QEDslEAMaKvBcCKLQBwwoEAaNMjBVugCQSFXw0BNF7vBTFiPQKaPPz+JAZ/BhC+ZQPh4iEAWSIbB
6SXCQGyOQECAFYfBJBHPQJNbl0B0oInB5JcgQI4qdMBY4pnBN5N1QD3Om8APo57BUTJdQMfsoMAG
zYrBmNCjQEiXkMANYo7BR/CNQKSYTsC6/33BG1+OQINsCMC2YYrB9/f4P2gTXcA5E4HB2QkfQNPB
479oY3zBd8KSQMmm4UBP9czBpgZXQPJZRUAutqjBaPYCQG6jYUAiuZfBFAo9QCR5fUD6cYzBULxs
P7Xa77/jzYvBwByoQJYZ7b9lMqDBzUylQK/sKcC99ZjBz5ziQJA+Vb3evbXBs5fPQGC4jb8DBrDB
EL/YQG7koz8+JLPBDp+bQHjHgUBrI7nB677fQDzil0CwWrHBZgijQHiRnEDA9MHBGCXnQH6TskCc
LbrB5iqoQMqKAD/bLKXBqs+yQI7vU79apKfBin65QPuCf0Dmp7DBgZm6QEzvyD+N+arBwdPIQFqo
tUBLc8LB8ubKQPjTVEDGY53BGF2DQOvaZUBeEZrBK6+xQFONQEDCfafBNFm2QDwPf0Bup4rB5PGo
QOmCYcBqlY/BKY5+QHD7hcCqrYvBWho8QJ6rTMBy7obBxFQRQLcVE8CHY4/Ba5WuQAAq3kD4cdHB
zuSsQC3LcECEBpbBT/uEQL83SkD096PBSUM7QI8ZdUCEjJTBHxXxQCcgSEAqv5vBKfL8P497QsCJ
4JjBdQDSQDBU0UAZx8rBKiuRQMJA9EDpmsvBudO9QNzq90CnSNnBZdL4QGD+h74eI7zB/wrXQDJe
CMA2DrLBkzHoQHCjBUDkYbfBvtJ9QO0oXUAa1LjBAlT3QE+3lUDDD6vBefGLQEMXnkChX8jBkzAC
QfXrxECYn7rBM8SRQGCrNT8Uz57Byz+ZQB2KikC+iYbBWGHBQGHeQkByBIfBZoLPQIv0l0CY44nB
3cC/QGNlisDYipHBpLK1QIHLOsAg9ojBeNRgQLt9lsA5gZLBXIqHQAWBncBOd4XBEfEJQHzjccAn
34LBEc1cQGN/I8BQFIHBOviqP2AW8r8LF4zByN88QPpPvL8/ZpHBfNGfQN5twUBw8NTB2cZWQMd4
PUCxf6jBDOICQG8Ca0BWHpjBOjk9QHwXhUDb/4zBX2DIP8vaHcDx+Z3BRnmeQBHh67/sUqLBW7qS
QOw2NMAcXZ3BSXLiQADyRjx8t7XBjpPNQFlChb+zcrDB72jZQMudqz+m3rLBL+2bQFalgkB/GrnB
F03gQN6fmEBDbLHBIbujQAFhnEBVFMLB3yjoQK4vskCAbrrBuYqmQLBwDz8AaKXBbwmwQKqlQ78Y
PqjBiLi5QB8dgUANmbDB/Ia6QMF00D/Y26rBMtrJQHTgtEAwuMLBFNzKQOjDV0A+Qp3BlCqDQHKr
Y0D6xpnBBrKxQBAuREBWX6fBLxi2QGxle0BZVYrBGOmHQC05gcBtp5fB1nEyQFKLgcDZmpPBcFkr
QLTfd8B3VYfBLp00QFg6GsAEu4PBt4WvQOME3UCtwNHBq5ysQLYHcEA1v5XBF/KEQDDETkC17KPB
fLk6QKr7a0A0D5TBpRnxQApqS0AwqZvBWFaEQBdG9r+wr4XBhiTTQAnJz0BVMMvBywKSQDt68kDp
ycvBPYC+QAKJ90AddtnB0Gn5QDpSS77x8rvBlyzUQAoSBMD6r7LBPBDqQK6SCUDOzLbBxO19QJ26
X0BzrrjBdsL3QGzelkDmF6vB1bGMQEGNnUBxg8jB9tsCQbDxw0BEArvByPyPQDRVQz9ZEJ/BnM6Y
QGxbh0BAF4bByPHBQH6/PkDt/IbBjqbOQK+elkD1XYnBI3+MQLSQnMCLE53B33KdQFJxhMCGvZDB
uIwPQOF5TsC1f5fBWP0UQPFCoMA20pXB4tbYP9vOh8AcvITBNxFeQOnxjsAUgYPBZoAGQCY35b/s
KojBoQUnQIf5FcCXOXbBvd+gQOuCwEAKZNXBA+pWQA8UR0BFqqjBG4sCQJjUYUDGrJfBWGM8QEwh
fEAsUozBKFWGQPycgr/LZIPBr+KeQFH86r8/p6LBzaaPQPBiMsCkC57BiS3jQFDxET3e5LXBQzHP
QCh1g7/Xh7DB1XbZQCczrj8hELPBlF6bQIgDg0DAE7nB39nfQBS4mEAVZ7HBC2SjQEOTnEBMFMLB
VunnQOcRskAubbrBpJunQONIDz+pd6XBkcCxQD5eQr9WSqjBvi25QI9ggUC0krDBKc+6QBdb0T/g
9arBELrJQIbAtEDXu8LBOLHKQLy7V0CSTJ3BYxWDQGyMY0CVvJnBSmexQGQ2REB2ZafBz022QHYc
fEBiYIrBvP17QNxofcAO0pjByyIhQCqBa8CjfZTBwKkdQKQ2JsAjmIvB4JxfQPpmNcCNn4LB5U6w
QAdr3EA/8tHBhJesQLJNcECjxZXBsqiEQFrPTUCg3aPBbvw6QM5AbECH8JPBnO/wQNQ3S0C4uZvB
xLtgQM2dhsA7An/Bp3nTQF1Vz0AQO8vBy4GSQJws8kAGJczBwO2/QPal9kAfo9nB9/r5QLLEKL51
L7zBOGPWQOUFA8CsuLLBHmvpQKFWC0BoE7fBU4R8QCbxYEDrorjBrjz3QND7lkBXDqvBZF+MQKba
nUAfhMjB+8YCQf2vw0CXALvB6RuRQCp9QD+FF5/BrBqZQI7Oh0ADHIbBIjbCQE6WP0BBAofB5uLO
QPf8lkCfeInBxuJ4QN8fmcBkn57BwemSQCjXh8AZH5LB9bnxPxceVsAAMpvBLUwHQBC+k8CENJHB
uFEqQCzSzr8QPo/Bg3C6P6VcJsA8DYjBmMWPQB4sI8DehIXBcqhOQPHNDcBTU3fBVs6hQLTYv0D2
ltXB6SJWQBD7REBPiqjBMIsCQJC8YUBveZfBjTg9QMULfUCUOYzBENqEQG6gisBY9XPBw7+aQFe/
7r/V6qLB0WmJQBKLNMDI0p7BZ0/jQODNMrxHXLXBBEzOQM8ZiL9cGrDBM7bZQEv9qD/MsbLBqX6b
QNhHg0CFJLnB8THgQAZQmEBNibHBpTSjQMmNnUB3C8LBw//nQOdKskAUerrBqzOmQD93Cz/UXKXB
7uOvQEboSL99GqjBLIi5QAPugEDDtLDBAWu6QJt2zj+CzqrBFKLJQNGttUAsvcLBmLfKQFnOV0Cp
Yp3BfCODQIpSY0DbzpnBQWqxQAimQ0CldKfBJ2e2QODne0AddorBKlpqQKJ2f8ByBZrBSWODQH0T
hsCAQI7BdUl7QNXYPMAV3obBYgEdQCbbJsCkk4TB8IaxQDzi30DmBdLBoaOsQL9tcEDJ25XB/7KE
QPJvTkCn9qPBTh47QNTYakC5+pPBKPbwQLJUS0Alz5vBBQviP2RGDcCkA47ByefTQHKg0EBYNcvB
5tmiQFAGwECJd9jBxPyQQGjN8ED/H8zBUdj6QJYNZr66c7vBoXfVQIqOBcCeMrLB80TqQI8gCEBP
rbbBDcd8QIBvYUBAvLjBLc/3QF8ilkBYQKvBntSLQBxvn0AwZMjBhtQCQRDlw0DMBbvB9VKPQMBG
QD+7GZ/BPECZQIHDh0C1LobBHzXCQNg3P0D7HYfBbRTPQLnIlkDrionB7XgkQIAed8DwP5rB/iR8
QOZJnMAoqZ7BTR1hQFOLoMCh3IrBUoClQCbBjsAXQo7BjLqNQITWScCya37BQr6MQMxaBcAFwIrB
VU36PxOfX8B+OYHBmocaQEeO5L9Hd33BGeG+QIVW+UBIGtfBIT5WQO7jRkBprajBpbYCQNwVYEAS
g5fB0FU9QJ0Ie0CUPozBG+JcP0o6AMDST4zB

>  <OMEGA_E>  (3) 
MCb4Pmj9sD5godM+2IHFPrhJvz5QIbk+

>  <OMEGA_NBR>  (3) 
    103753

$$$$
50168824
     RDKit          3D

 49 51  0  0  1  0  0  0  0  0999 V2000
    4.8897   -1.8792  -20.3536 C   0  0  0  0  0  0  0  0  0  0  0  0
    4.3559   -2.7840  -19.7480 C   0  0  0  0  0  0  0  0  0  0  0  0
    7.1212   -0.0178  -22.7136 C   0  0  0  0  0  0  0  0  0  0  0  0
    6.4641   -1.0805  -22.0669 C   0  0  0  0  0  0  0  0  0  0  0  0
    6.8341    1.3113  -22.3539 C   0  0  0  0  0  0  0  0  0  0  0  0
    4.8455    4.0973  -23.1025 C   0  0  0  0  0  0  0  0  0  0  0  0
    7.0043    4.7507  -22.1698 C   0  0  0  0  0  0  0  0  0  0  0  0
    5.0732    4.9246  -24.2123 C   0  0  0  0  0  0  0  0  0  0  0  0
    7.2359    5.5678  -23.2865 C   0  0  0  0  0  0  0  0  0  0  0  0
    5.2410    0.5141  -20.6851 C   0  0  0  0  0  0  0  0  0  0  0  0
    5.5305   -0.8113  -21.0465 C   0  0  0  0  0  0  0  0  0  0  0  0
    5.7994    4.0150  -22.0610 C   0  0  0  0  0  0  0  0  0  0  0  0
    5.8645    1.5903  -21.3561 C   0  0  0  0  0  0  0  0  0  0  0  0
    6.2743    5.6714  -24.3072 C   0  0  0  0  0  0  0  0  0  0  0  0
    6.3461    3.3406  -19.6525 C   0  0  0  0  0  0  0  0  0  0  0  0
    4.1041    3.5758  -19.2420 C   0  0  0  0  0  0  0  0  0  0  0  0
    5.5665    3.0248  -20.9179 C   0  0  1  0  0  0  0  0  0  0  0  0
    5.6819    3.9005  -17.2913 C   0  0  0  0  0  0  0  0  0  0  0  0
    3.7433   -3.8858  -19.0120 C   0  0  0  0  0  0  0  0  0  0  0  0
    3.6173   -3.5530  -17.5136 C   0  0  0  0  0  0  0  0  0  0  0  0
    5.4236    7.0653  -26.0571 C   0  0  0  0  0  0  0  0  0  0  0  0
    5.3977    3.7306  -18.7216 N   0  0  0  0  0  0  0  0  0  0  0  0
    4.1654    3.1607  -20.4839 N   0  0  0  0  0  0  0  0  0  0  0  0
    2.9187    3.8094  -18.5614 N   0  0  0  0  0  0  0  0  0  0  0  0
    7.5411    3.1541  -19.4476 O   0  0  0  0  0  0  0  0  0  0  0  0
    2.6148   -2.5613  -17.2985 O   0  0  0  0  0  0  0  0  0  0  0  0
    6.5598    6.5073  -25.3688 O   0  0  0  0  0  0  0  0  0  0  0  0
    5.7788    8.2726  -26.5590 F   0  0  0  0  0  0  0  0  0  0  0  0
    5.0463    6.2476  -27.0751 F   0  0  0  0  0  0  0  0  0  0  0  0
    7.8466   -0.2227  -23.4870 H   0  0  0  0  0  0  0  0  0  0  0  0
    6.6749   -2.1007  -22.3520 H   0  0  0  0  0  0  0  0  0  0  0  0
    7.3542    2.1237  -22.8396 H   0  0  0  0  0  0  0  0  0  0  0  0
    3.9354    3.5190  -23.0427 H   0  0  0  0  0  0  0  0  0  0  0  0
    7.7483    4.6826  -21.3899 H   0  0  0  0  0  0  0  0  0  0  0  0
    4.3326    4.9925  -24.9954 H   0  0  0  0  0  0  0  0  0  0  0  0
    8.1600    6.1215  -23.3628 H   0  0  0  0  0  0  0  0  0  0  0  0
    4.5379    0.7124  -19.8897 H   0  0  0  0  0  0  0  0  0  0  0  0
    4.7657    4.2139  -16.7696 H   0  0  0  0  0  0  0  0  0  0  0  0
    6.0346    2.9467  -16.8718 H   0  0  0  0  0  0  0  0  0  0  0  0
    6.4589    4.6681  -17.1607 H   0  0  0  0  0  0  0  0  0  0  0  0
    2.7410   -4.0780  -19.4224 H   0  0  0  0  0  0  0  0  0  0  0  0
    4.3659   -4.7852  -19.1286 H   0  0  0  0  0  0  0  0  0  0  0  0
    3.3459   -4.4658  -16.9629 H   0  0  0  0  0  0  0  0  0  0  0  0
    4.5827   -3.1759  -17.1453 H   0  0  0  0  0  0  0  0  0  0  0  0
    4.5966    7.1820  -25.3412 H   0  0  0  0  0  0  0  0  0  0  0  0
    3.3704    2.9636  -21.0577 H   0  0  0  0  0  0  0  0  0  0  0  0
    2.0419    3.6613  -19.0189 H   0  0  0  0  0  0  0  0  0  0  0  0
    2.9407    4.1260  -17.6131 H   0  0  0  0  0  0  0  0  0  0  0  0
    2.5521   -2.3700  -16.3701 H   0  0  0  0  0  0  0  0  0  0  0  0
  1  2  3  0
  1 11  1  0
  2 19  1  0
  3  4  2  0
  3  5  1  0
  4 11  1  0
  5 13  2  0
  6  8  2  0
  6 12  1  0
  7  9  1  0
  7 12  2  0
  8 14  1  0
  9 14  2  0
 10 11  2  0
 10 13  1  0
 17 12  1  6
 13 17  1  0
 14 27  1  0
 15 17  1  0
 15 22  1  0
 15 25  2  0
 16 22  1  0
 16 23  2  0
 16 24  1  0
 17 23  1  0
 18 22  1  0
 19 20  1  0
 20 26  1  0
 21 27  1  0
 21 28  1  0
 21 29  1  0
  3 30  1  0
  4 31  1  0
  5 32  1  0
  6 33  1  0
  7 34  1  0
  8 35  1  0
  9 36  1  0
 10 37  1  0
 18 38  1  0
 18 39  1  0
 18 40  1  0
 19 41  1  0
 19 42  1  0
 20 43  1  0
 20 44  1  0
 21 45  1  0
 23 46  1  0
 24 47  1  0
 24 48  1  0
 26 49  1  0
M  CHG  1  23   1
M  END
>  <OMEGA_C>  (4) 
mHicQO6J8L891KLBo2OLQFcsMsD2+53BduDjQEaJkbyOtbXBvdnOQIlOir8BibDBqbDaQELapz/H
1LLBpg6bQCcdg0Dp0bjBiiPgQCIGmEDKW7HB+1eiQPOVnUDkssHBooznQDQrskC8SrrBgranQPye
Az8Ce6XB8PmwQDivT79CX6jB8ZS5QAp7gEDZfLDBram7QPaNyz9I2arBCcfIQOB7tUAxdcLBKRPL
QCXMVUBVOJ3BAFWDQP7ZZECu75nBjSCyQAyWQUDRV6fBUdK1QKWheUCXVIrBxJJvQHixeMCTGJjB
PYFnQPZkY8DmG4zBKo6tQJkW4kDbdNDB17msQLjBbkDcxZXBkEqFQJ1JSkAI36PBX8w6QKvNc0DF
fZTBDVHxQHXcSUCylJvBclgnQBLtI8BMY4rBO+rRQCg80EBY88rBweu4QJJcBEHaeNTBNHuhQHjs
x0DZmdjBahf7QGoJZL5v5bvBgJjVQD9xBsDk0LLB7FXrQBDrB0Bqt7bBF917QJo3YUB8V7jBxfH3
QD3YlUBuHqvBdaSKQIXCn0Cf9sfBYY8CQYrjw0D75rrBVjaRQGVgNj8CHp/BQ4CYQFfYhkALKIbB
JxvBQOiWPECJ+YbBba/OQA5hlUANSYnBvmwvQDh/gsAJYZvBprWLQP0fmcBlB5nBriNWQJPnjsAD
tIfBwaWSQFJCS8CaKYnBNxeTQK3S5UDUusrB3LRXQPqqPUAUdqjBEq8CQAhTakC6JpjBQzQ8QEQI
hECh54zB0lUjQGytF8Dq9YLBMGSbQObL7L+woaLBYymJQC2ZLMCSaJ3BXxTjQMCunrzXl7XBXNDN
QMzCib/aaLDBxyjaQG4gqD+4wbLBEU3gQMUXmEDpg7HBcfuaQCDng0CT87jBaP7nQCAXskD6dLrB
c5aiQPE3nkCR28HBcM+mQLDUCD9ddKXBrfuvQJuoS797R6jBk4C5QJvzgECBnrDBvge7QIpxzT8h
1arBFFHJQF6otUBMosLByObKQNvBV0BaUp3BDkaDQKcdZEDL2ZnBGcixQFcFQ0BTaafBo0a2QOC5
fkD5f4rBvYpkQK3ZaMAPo5bBN7pfQL89Q8DzSIvBxyGvQGJp4UBa9dDBPrisQBOqcUAq4pXB3AOF
QPOnTEDM6aPBqAo7QGp4bUD9IpTBJSHxQDiVS0BZsJvBDiskQIl2csC+DYXB8f7SQMkk0EDnJcvB
JL+6QFnxA0F/B9XBPiqkQHK2xkDaF9nBeE36QPrhbL5Uw7vBh1nUQOlSBsC8qLLBFB/rQHGqB0A4
o7bBSBn4QFW1lUBGR6vBMD57QH2PY0D5dLjBld4CQWiEw0DBELvBOumKQHKboECJH8jBAiyQQC1T
PT+/Ip/BQRKZQEKTiUCITYbBuOnBQL50QkAeAYfBIQTPQFEtmECDqYnB+ogjQFfQcsDjxpnBXWeD
QFYqk8DGc5bBhqOPQEaqRsDahYfBfRBLQAAKAMCnvIvBagSUQNRK5UBtbsvB7PVWQAeuQkAmkqjB
FtMCQIsYYkCfr5fBvtA8QAaXf0Cad4zBwXIhQED4WsC9GnzB8BiZQFF76b92OqLBfGKFQPD0K8BV
hJ3Bl7ThQJjnT71wZbXBOGbMQPmVi78z/a/BlUrZQHlCpT+pubLBaoWbQErpg0AhBLnBp9LgQDoa
mEAdkrHBNRajQHlPnkBa58HBOojoQNMYskD1g7rBmVymQGOIDT+pKKXB//WuQPj7SL+uz6fBbAK6
QBz2gEDerbDB1K+6QJqizT87u6rBnNHJQN+1tUDErsLB/gnLQEYxWEDhUp3B41aDQPiiYkDS0JnB
b/axQNOXQ0DlbafB1ye2QP1EekC5XIrBDO5YQEuWbcBZAJjBaaBJQO91VcD9OIzBd2OvQOyg4kAj
uNDBBbesQKefb0DHypXBBCiFQBUsTkDQ+qPBPzw7QC4TakC1C5TBhmfxQFlvTUDZvZvB2QmMQDfr
V8BnaYbBO2fTQAwh0EDgNcvB34a7QDyDBEFkvdTBZ9aiQPqvyEAT3djByo34QPznkL5Mm7vBVprS
QO2mB8CRGrLBzzfqQKloBUASyLbBNWh8QI1sY0C8ibjBtJv4QJu4lUC0VKvBV12LQGvLoED4J8jB
7CYDQTh5w0DKIbvBjQyQQJtVRz8a0J7BvdCYQNt/hkDrGYbB7SXCQDiAPUBXFYfBu5bOQN8jlkB4
VonBEMIaQGu8dMAtCJzB0ud7QB1QlcDIVZjBS7wuQAJ7FMDH0IvBDEQcQFuLgcCHpojB7/2UQILj
5kD1/srBal1XQKLERkBzu6jBmP8CQACUX0DZoZfBeBI9QG7veUB2TIzBpeKGQPXqSMAKUn7BK66Z
QDTD6r+OvqHBjrKHQJtOLsB66ZzBz13iQLAypL1eBrXB8PHMQMxZjr/ojK/BkJHZQHzboT8/jrLB
sZybQBcTg0BGMbnBtr/gQGFil0BVt7HB0PiiQOvynUCjAcLBGzDoQI31sUCdj7rBSvGlQKBICz8g
E6XBhvCuQEcGTL8thKfBIQW6QEMlgECs2LDBKnq6QBBuyz8ptarBf2zJQCsMtkB3tMLBkRDLQKDG
V0D5eJ3BMm2DQBYvY0BQ8JnBlNexQN+pQkANiafBk5K2QG+0e0CIjorBhoxlQFhJdcDDXpfBXQ5m
QChtacB6IovB77uwQMrd4UB2o9HBk+SsQGQrcEBJ9ZXB6xiFQEHhTUDCE6TBunQ7QE5Ea0AqLJTB
P2jxQHyfTEBq5JvBiSQpQEVkKsAD9YfBfWbTQOCc0UDwEcvBSSehQH++wkDFK9jBduKQQEK28kD8
f8vBY5X5QKxapL7EILvBcH3TQPU4CcDGgLHBhJDqQM9lA0Bxp7bBjAV9QDUCYUD2yLjBqbb4QLCg
lEBth6vBslCLQMNOoED+RsjBmPECQd98w0DbH7vBXC6PQMF8Rz/02Z7BblyZQNmNh0CjSYbBIXjC
QJAZP0ChNYfBQyfPQObFlkDnoInBEs8iQPWUecBhHprBp6yDQGl+mMA6WJnBxgdWQKhZk8DcSofB
WiGTQM0CVcDllIjBuwm+QHKP+0BxptbB+yBXQApMRkAuzqjBCy0DQE+dYEDCvZfBvF49QFa/e0Au
cozBzn0qQFgVJMBlZoDB0b2ZQMp+778ryqHB+riHQO8WMMCs3ZzBaxvhQKS28730W7XBmObLQCBC
k79Z1K/B7QzZQIHrnD9GvLLBXhrhQEmklkBbnbHBNVacQEB1gUB4LLnBCD3oQLuAsUCuarrBxpOj
QBVRnEDJ/8HB56mmQOGRAT9396TBf+GuQOi3Vb/9lKfBUZO6QNUPfkBmw7DBfOq6QAWjxj88qarB
/WzJQChKtUAZjMLBGj/LQAsKVUDeSJ3BuWSDQLOXYEAe85nBd26yQKtKQEAqc6fBu+61QOewfUAP
h4rBRLJkQLHYdMC8BZfBMKFkQNiOY8Ds5YrBvEeuQJTB30CLKtHBmXusQI/oYECMdJXBAYmFQGX/
SkCREqTB4xk7QN4LckDdlZTB1fvxQHZHUEBv0pvBXVEwQPBnG8AOZojBagjSQMr40UCXtMrBDNmO
QPEv8UCcAMvBs4q8QGMl/kA5CNjBp5r3QHBzuL6noLvBI93RQBuoC8Cx57HBm+LpQATdAEBB47bB
wSP5QK7vk0CQcavBavJ+QF8EXUAQzbjBrdgCQQ50w0Ah9LrBLE+MQMP1nUDXX8jB4LiQQAWuPT+i
j57BiACYQKHzgEAX7YXBhaHLQNW2T0AWqIbBFkLFQImDnkCaz4rBoSgiQE/oecCg05nBKCuDQIe1
mMDNlJjBmqVLQM8YjsDltIbBWUWTQADjVsA0PojBycGhQIYfxEDyoNXB919YQGjlQkBt2ajBdzQD
QJl/bkDYdJjBVWk8QFQXgUB42IzBOhkxQMzIEcAi5YDBbaWZQOwK779scaLBNV2HQA88LcBnJp3B
mifhQODplr0Mr7XBLtzLQG1Ij79jXLDBOP3YQFLsoT8h3rLBpDPhQBTolkB5pbHBpXebQBGGg0AR
57jBsJfoQOhMsUC9iLrBq9eiQA4ZnkC3xcHBBGGmQGdkAz/0SaXBvZ+uQKycUr9vIqjBcje6QMAi
gECzo7DBQby6QK2DyT9fx6rBlo/JQJqptUBzmsLBpiLLQKPGVUCYOZ3BNFCDQOAyYEDVx5nBiTOy
QAqUQUBnZKfBkxO2QAC4fUDGa4rBXDxiQDjeaMD8J5bBRKVgQHzWQcAM3YrBP46wQG7K4UC7cNHB
N3+sQKbxYEAZWJXBN1iFQC3XS0D48aPBsvM6QBsicEAcVpTBN+zxQPrIUUBh0ZvB21cvQHfvdcAX
44PBtm3TQE4O0UCeA8vBPMCgQH4Iw0DBC9jBp+iQQDRQ8kDeLMvBwNX3QGj0mL4O87vBMO3RQENV
CcBRlLLBut7pQFj2A0Bu5LbBI2r5QBztk0DIhqvBChl8QN8CY0BpYrjBcjwDQXh4wkBsL7vBmviK
QGegoEDv/MfBxVeQQIgXOz9b3Z7BFj2YQA6mgEAYxoXBQxTMQIcUUEBXmIbB5xnFQLWrnkC7tYrB
lm4gQM28csC3B5nBgBiCQIJDk8CJA5bB8zyRQIlIPcARzIfBLjNEQCOCAcCOO4vBFLq9QGrA+0A1
Y9bBLtxXQFNLREDItqjBzfACQJRgbECfLZjBPWU8QBlhf0CbkYzBa8cuQDRGXcCh4XnBaiieQJFP
87/9s6LBhyqMQHOMMMDYi53BDkDkQDCr9ryTwLXBsNvPQGKOjL+qgLDBWrPaQI4Upj+s47LBjTGb
QLBHgkD577jBGLXfQJv9l0AtTLHB1pOiQErenECOzMHB4A3nQEqBskCGKLrBo1yoQN9H+z4Oc6XB
WS6yQIJwVb/fTqjBbWq5QJnmf0CTh7DBiMu7QOoryT9y3qrBx5zIQGKEtUB6ZsLBwvrKQOUuVUC6
Rp3BHlODQOHTZUDwCJrBIgCyQLBuQEBbYafBKAO2QH1pfkAYiorBYlFqQGTYbMAJ0ZbBSBZpQFwI
ScCxWYvBxL6tQN6I4ED70tDBtsKsQLIrcECT6pXBwyuFQHP5SEDR4KPBnQM7QMR1dkAqnZTBfj/x
QHGpSUC7oZvBFZUmQG1LcMC5XYXBHNTRQJ2W0ECE1srB/LmTQJEM+EBBXMrBD5q8QMXp+UADydjB
4kj7QAvFar5C/rvB7/LWQIZ9B8CBwLLBLgDrQH49B0CB0rbBwXx8QCzyXkDsiLjB+WD3QPLjlUA9
BqvB+0WLQI2OnkBPKsjB5CoCQYnBxEBVp7rB0diRQOXeLj/eE5/BqbuYQKPIiUC1bobB+2fBQJ9u
QkAK64bBptfOQJfzl0D/vYnBsmkoQKFtdMAIw5nBqm6FQOGhlcCr65bBlXiTQCwiVsD9eofBwj1e
QKKCA8BxoovBaAGcQH5ExUCnL9TBhGRXQGy/OkCbYajB5L4CQJl7bEBAN5jBzL48QA43hkBqGo3B
a0UmQJzXWcBXm3zBmL2bQLDZ8L/SSaLBHFyIQGzUL8D6h53BlN3iQA3wj72+jLXBW2LOQFCHj78E
F7DBpLHZQGcXoj/f4LLBYKGbQJwbgkAWBLnB8y7gQLadl0CbarHBs7yiQHgWnUAw0MHBe2DnQERV
skCEQLrBNp2nQGo8AD9oNqXB8vKwQJLwVL/34KfBy9+5QA9Sf0Czn7DB3zO7QJRJyD+/0KrBwcHI
QCrctUAic8LB4gfLQI5nVEABRp3BEDuDQPzwYkBk+ZnBfhKyQFR4QEBebafBKea1QKZffECEc4rB
TkFfQLXTcMAm3pfBX0NYQKs3W8BU5YvBi12vQHdZ4UDWW9HBq1SsQJjEYkA5fpXBmiyFQFA7SkDv
/KPB0hI7QCF/dkAop5TBR5/xQMhjTEBcyZvBe82UQFAgZMBd24bBaFPSQGSl0UBWzMrB2rigQO4h
wkDY/9fBffSOQOwP8UDcNcvB1an5QNZjlL4fzbvBijfVQG9nCcCgMLLBRPPpQCVtBEDC/LbB2ah9
QO4eXkAGp7jBnwH4QIhPlUAIL6vBLjWLQHAFn0CBH8jB+WECQepmxED/w7rBAlCRQE7XNj8q1p7B
Z9iXQAe7gUDY9IXBV+DJQPgfS0BdoYbByyjHQDfdnECjfYrBI5seQNQLdMD5U5vBvQl/QB6cl8B2
x5jBj9RBQDPjGMDJ+4rBWU4qQOWBg8CeF4jBXBi8QIqd+0AFR9bBvXZXQIN8P0CJpqjBPQIDQHAd
ckDieJjBX8c8QEl9hEAs/4zBmkiSQKCkVsAk8n7BC4KUQEhp5L/5HKbB/IB6QHiGKMAYV6LBGVPm
QGDW8T0797XBExLOQLSZdb+497HBSQXeQOMZtz+Tb7LBYdffQOQ6nUCys7DBX/abQIL5hECSUbjB
Se7mQDtvtkB95LnBWR+jQIfqnUBmaMHB8TmlQKqdFj/h4KbBuratQJ5NOL8TWqrBfUq6QKDbg0DD
7a/BdZS8QPkq1z81B6vBX9PIQEzrtUAMU8LBtWLLQHgXV0Agr5zBYyyDQAidYUATk5nBzTSzQMJf
RkCdAafBbwO0QEKXakBQh4nBliQ/QKDqZsB0yZ3Bnp8wQHo3VsAoyJHBxXPNQHg/90AIw8vBsCas
QGbGaEBFGZXBnh+GQBiTTkD1u6PBGiU5QJ4WbEAHRJTB7cvxQBBjTUBpEpvBaDl8QNhrasDH7ovB
cfTQQBSIyUC66cvBY5/TQNqoAkH859XB19qlQN7KAUE6bMjBsVb/QK0wgL3rv7vB3D/UQAZy+788
urTBbDTxQFv8D0AgYrXBIev2QOk7nUA4RarBD+59QAyvZEAgsLfBhqMBQScQykCae7rBLZqLQF23
nkAvvMfBGJqMQBDgQj/Z+aDBMRmWQKgbekDjUIXBH5W/QFaKK0D044bBMUTMQIC9jUAhtIfBcn8B
QJNlYsDS/6HBtcFZQGHHk8AE1J7Bm5UgQLhcEsDMkJDB8Bn3PxRlfsDX6o7BtCDmQAo3AkHHa8bB
njtaQE+lRkBZoKjBn/sBQBATZUD1OZjBwp84QE6oekDeeYzBbd5yQCj+X8CJiYTB

>  <OMEGA_E>  (4) 
YBqIPtwcjT6AcI4+sO2QPtj7kD7QFpg+CN2bPjBmnz54JsI+

>  <OMEGA_NBR>  (4) 
    188673

$$$$
