50248153
     RDKit          3D

 56 61  0  0  1  0  0  0  0  0999 V2000
    3.6866   -3.0731  -17.8232 C   0  0  0  0  0  0  0  0  0  0  0  0
    4.0587   -1.9996  -18.6463 C   0  0  0  0  0  0  0  0  0  0  0  0
    6.2095   -1.3314  -21.6512 C   0  0  0  0  0  0  0  0  0  0  0  0
    6.6293   -0.2791  -22.4794 C   0  0  0  0  0  0  0  0  0  0  0  0
    6.8949    4.2778  -23.7001 C   0  0  0  0  0  0  0  0  0  0  0  0
    6.6088    5.6410  -23.5210 C   0  0  0  0  0  0  0  0  0  0  0  0
    5.3760    0.2851  -20.0354 C   0  0  0  0  0  0  0  0  0  0  0  0
    5.5802    5.1271  -21.3767 C   0  0  0  0  0  0  0  0  0  0  0  0
    4.4090   -4.2812  -17.8973 C   0  0  0  0  0  0  0  0  0  0  0  0
    5.8269   -3.4057  -19.5465 C   0  0  0  0  0  0  0  0  0  0  0  0
    5.5810   -1.0570  -20.4173 C   0  0  0  0  0  0  0  0  0  0  0  0
    5.1496   -2.1615  -19.5290 C   0  0  0  0  0  0  0  0  0  0  0  0
    5.7908    1.3492  -20.8675 C   0  0  0  0  0  0  0  0  0  0  0  0
    5.9100    3.7607  -21.5215 C   0  0  0  0  0  0  0  0  0  0  0  0
    6.4318    1.0630  -22.1008 C   0  0  0  0  0  0  0  0  0  0  0  0
    6.5625    3.3312  -22.7081 C   0  0  0  0  0  0  0  0  0  0  0  0
    5.9717    6.0778  -22.3466 C   0  0  0  0  0  0  0  0  0  0  0  0
    4.1767    3.4983  -18.7253 C   0  0  0  0  0  0  0  0  0  0  0  0
    6.3867    3.0546  -19.1248 C   0  0  0  0  0  0  0  0  0  0  0  0
    8.5183    7.9496  -21.2226 C   0  0  0  0  0  0  0  0  0  0  0  0
    7.9515    9.0005  -19.5320 C   0  0  0  0  0  0  0  0  0  0  0  0
    5.5832    2.7766  -20.3980 C   0  0  2  0  0  0  0  0  0  0  0  0
    7.3102    7.7289  -20.2200 C   0  0  0  0  0  0  0  0  0  0  0  0
    7.4540    6.4520  -19.3645 C   0  0  0  0  0  0  0  0  0  0  0  0
    5.8908    7.9706  -20.8331 C   0  0  0  0  0  0  0  0  0  0  0  0
    5.4549   -4.4307  -18.7448 N   0  0  0  0  0  0  0  0  0  0  0  0
    4.1968    2.9677  -19.9328 N   0  0  0  0  0  0  0  0  0  0  0  0
    3.0226    3.8471  -18.0420 N   0  0  0  0  0  0  0  0  0  0  0  0
    6.9057    2.0176  -22.9883 O   0  0  0  0  0  0  0  0  0  0  0  0
    5.4555    3.7029  -18.2470 O   0  0  0  0  0  0  0  0  0  0  0  0
    9.0140    8.9764  -20.4303 O   0  0  0  0  0  0  0  0  0  0  0  0
    5.7533    7.4349  -22.1831 O   0  0  0  0  0  0  0  0  0  0  0  0
    2.8558   -2.9749  -17.1402 H   0  0  0  0  0  0  0  0  0  0  0  0
    3.5198   -1.0645  -18.6056 H   0  0  0  0  0  0  0  0  0  0  0  0
    6.3677   -2.3544  -21.9589 H   0  0  0  0  0  0  0  0  0  0  0  0
    7.1107   -0.5016  -23.4202 H   0  0  0  0  0  0  0  0  0  0  0  0
    7.3760    3.9496  -24.6096 H   0  0  0  0  0  0  0  0  0  0  0  0
    6.8785    6.3541  -24.2860 H   0  0  0  0  0  0  0  0  0  0  0  0
    4.8950    0.5028  -19.0932 H   0  0  0  0  0  0  0  0  0  0  0  0
    5.0202    5.4500  -20.5115 H   0  0  0  0  0  0  0  0  0  0  0  0
    4.1218   -5.1071  -17.2633 H   0  0  0  0  0  0  0  0  0  0  0  0
    6.6624   -3.5399  -20.2176 H   0  0  0  0  0  0  0  0  0  0  0  0
    6.7499    2.1157  -18.6815 H   0  0  0  0  0  0  0  0  0  0  0  0
    7.2411    3.7131  -19.3402 H   0  0  0  0  0  0  0  0  0  0  0  0
    9.1929    7.0847  -21.3051 H   0  0  0  0  0  0  0  0  0  0  0  0
    8.2100    8.2714  -22.2282 H   0  0  0  0  0  0  0  0  0  0  0  0
    7.3301    9.9055  -19.6008 H   0  0  0  0  0  0  0  0  0  0  0  0
    8.2490    8.8387  -18.4854 H   0  0  0  0  0  0  0  0  0  0  0  0
    6.5868    6.3595  -18.6942 H   0  0  0  0  0  0  0  0  0  0  0  0
    7.5031    5.5728  -20.0237 H   0  0  0  0  0  0  0  0  0  0  0  0
    8.3750    6.5135  -18.7661 H   0  0  0  0  0  0  0  0  0  0  0  0
    5.1430    7.4878  -20.1867 H   0  0  0  0  0  0  0  0  0  0  0  0
    5.7029    9.0540  -20.8652 H   0  0  0  0  0  0  0  0  0  0  0  0
    3.3825    2.7276  -20.4611 H   0  0  0  0  0  0  0  0  0  0  0  0
    3.0854    4.2767  -17.1412 H   0  0  0  0  0  0  0  0  0  0  0  0
    2.1270    3.6690  -18.4497 H   0  0  0  0  0  0  0  0  0  0  0  0
  1  2  2  0
  1  9  1  0
  2 12  1  0
  3  4  2  0
  3 11  1  0
  4 15  1  0
  5  6  1  0
  5 16  2  0
  6 17  2  0
  7 11  2  0
  7 13  1  0
  8 14  2  0
  8 17  1  0
  9 26  2  0
 10 12  2  0
 10 26  1  0
 11 12  1  0
 13 15  2  0
 13 22  1  0
 14 16  1  0
 14 22  1  0
 15 29  1  0
 16 29  1  0
 17 32  1  0
 18 27  2  0
 18 28  1  0
 18 30  1  0
 22 19  1  1
 19 30  1  0
 20 23  1  0
 20 31  1  0
 21 23  1  0
 21 31  1  0
 22 27  1  0
 23 24  1  0
 23 25  1  0
 25 32  1  0
  1 33  1  0
  2 34  1  0
  3 35  1  0
  4 36  1  0
  5 37  1  0
  6 38  1  0
  7 39  1  0
  8 40  1  0
  9 41  1  0
 10 42  1  0
 19 43  1  0
 19 44  1  0
 20 45  1  0
 20 46  1  0
 21 47  1  0
 21 48  1  0
 24 49  1  0
 24 50  1  0
 24 51  1  0
 25 52  1  0
 25 53  1  0
 27 54  1  0
 28 55  1  0
 28 56  1  0
M  CHG  1  27   1
M  END
>  <OMEGA_C>  (1) 
6vFrQJ+tRMDhlY7BFOGBQHvy/7+QK5XB5LPGQP9pqr+dNa3BlSPUQETijr631bPBUaPcQNvjiEDO
mb3BcnvTQAODtED7KrzBHgisQC79kT5rSKDByZCyQOQQpECQA6vBmRaNQKX/iMCXLY/B3nW6QIn3
WcBTX5zBZJeyQFNLh7+SVqPBr8mkQJZVCsB5O5zBIE65QGqzrD++8KbBch69QP6ucEACLKzBedHN
QLgQiD+EzrDBCQDSQDMyVUAxqrXB3xe/QLh9wkDXxbLB0qeFQNDkX0BdzZXBjF/MQM9+Q0CN/5jB
7UoIQQBj/kDJx6nBynL+QAwCEEGGQZzBpKmyQGe0MUARL6PByOzpQBZT90B2wqHBUYfuQKt2zkCK
6prBLoG8QHgP/0AXqqbBMI6uQDzIjcBL9ZXBk0yGQE3vPUBmdp/BonJBQEs2dkD2VZDBj/vcQP4f
AUD+57fBxJOuQIP7bEDb+ZHBWjkQQVifD0FYcaPB3xq4QIPq7UAUd7HB5MQ2QJFkPsA5H4nB20Rh
QG1CiL9V2JTB9sPLQDSvFsC/q6/B/IrjQL5mAL+NXLvBUgjsQCbGfECC4MTBXhzcQMJUy0CiScLB
56OcQCO2AD/avpjBtKWgQCFmrkCcF6TBreWDQAdto8BLG4rBNzLVQHOOYsCvvaHBjf/XQAJoB0Cw
c5XB17bnQGKjbUCquJrBMhYTQae14kDIcKrBRVwDQblXBEFs07HBGpDqQBl9HkFwzpzBxPsDQR5r
DUEh4pPBK8fSQNeAy0CfjZXBvBnwQC5UskChMKDB1v8FQbFu0EAFIZbBzZOkQE6c70BQfqHB7H22
QCrdEEHr66bBYXpYQG2RLkBusKPBGndFQArbiEAgIYnBgSEIQFXRakD/mJPB97ZkQObDQ8CT5I/B
pdR7QA2Q/78/lpbBuP3EQIi/qL/Zwq3BSBrUQJT5iL4lHrTBQf/eQPtmiED6JL3BcUzQQG+fskD1
TrzBCnqqQKIqkD7hrqDBI7qnQCInn0CUdqzBJhuMQODrhsA0rY/BfmC7QOgSVMA0SZzBRcWwQBKA
hb8m7aPBLQGjQLozCMAT65zB9oG4QIEcqz8rKKfBYIi5QG7/a0CbnqzBeP3OQD31hz/rx7DBLL7T
QMLEU0C7X7XB8eK0QKM/vkC04bPB2UaGQATrXEDimZXBlAbNQHJnQkDvi5nBX8/bQH22zkA3GpvB
Vuv6QA5M70BwLKfB+mOxQJJGL0DkWKPB7LTPQKbq+UDJ8qDBfwDSQNttEEFUdJnBS4+lQG43+UCJ
1afB5MqvQCp1isANxJXBgJOFQCSrOUCrKp/BXiZEQFxJekBoWJDB6vvhQJaGAUBnIbfB4omvQKq6
YkDssZHBlDv8QE/DxkD7gaLBr+qpQAfE6EB+wLLBBSYsQL+IP8Cz9IrBtLNVQP1cjL/05JbBwtLI
QAbEFcAxZLDBiMXjQHp09r5XoLvBaBTzQIh/fkARy8PBGAbaQLg3ykBxIsLB0sOaQIYn+z7fK5nB
N6mPQBAJp0BylabBuySDQD0qocBIhYrBi9zXQGhgWsBmHaHBdq/cQDvHB0CEpZbBNHzlQD+rckAG
dZvB9WXnQIIf00DO3ZLB8BTCQAixtkCQK5vBrXz3QGrO7kBI7q/BUf0KQar/AUEX9qTBj1DJQC34
HkFp6Z3BnZi7QD4xDkGawpLBq73yQIgOEkFsU5bBewiOQC8h5UCwoqPBD3mZQCQbDUFiWajBkv5V
QBNWKEA3D6PBoYtJQK8Pi0BdLInBfIcKQF6ic0DzuZPBQrauQAa9icD255TBbvu8QAnXU8DA8JvB
v57EQEzEqL+q5q3BF6rPQJgihL5arrTB0iXZQL9vikAE7LzBNzfWQCi7tUDnPbrBI5quQMKfiz7c
PqDBj0DBQLXAokDcI6jBK+yIQD/0gsBA947BcSt/QKJn/L/OgZbBUiGzQH4Lhr+GvqPBih2lQJDz
B8DZuJzB1fu6QJL0qj9c06bB3t7DQGubbkAPyqrB0mfKQOw9iT+hTLHB3SnQQKrJVUDiRrXBGWDK
QP7UwUBhva/BVH6FQJpCWUCB25XBNzXNQJY7O0Bm5pfB1zPnQN0CLkEaF7TBPVCtQDZXJUG3MK3B
Zty1QCnFLkBMlaLBGM7aQDdLGkE03KzBKTfwQJb6GUGztqHBUsvcQFMNBUFEu7LBbzBkQNSRPMD9
1o/BI+eIQN94PkAsy5/BEdY+QBkPdEAzR5HBVz/UQBJ+AkBrwbjBTYesQGG1V0DaqpDBQ0m9QK6F
NUE4trPBDS/GQFxM60DTfKzBkXXAQEAwp8AqCZTBS53ZQKfkXMARpaDBkn3JQIG1FcDBcrDBaEvc
QEZ97b6bjbzBuGHiQLg6gUBf7MTBAPncQN3uzUB5LMDBjHehQKcq8j6JapjBXhe4QKgirEBsJaDB
59V7QPykm8AilYnB9blaQIdWh79FHJfBzEPbQNks/T+LI5XBfIrmQCO5a0AVq5jBDK/+QE/bOEHz
Z7DBuAvyQD6YKUF0KrzBLFaUQJaKG0Gg/bDBz/OhQGPzKkEJWaXBp6nlQMe1C0HoSZ3BnpkJQeqQ
GUHWqaLBZwfnQPhwKEFqQZ3BRsHNQC6bBkFcprrBFlP+QFQOAEFssrPB+HJgQLXzNUAYxqTBWeI9
QG8UhEASr4nBMtAIQBNOc0AEkZXBYlSvQHFUisA6CpXBAHa9QJ/AVMA4DpzBwbnEQDVaqb/p+K3B
/oDPQFmMhL7bv7TBAZPaQBasikDwtLzBRG7YQB7utUAk6LnBxsKuQDv2hT7QRKDB/pDAQAi4okCg
E6jBE7OJQJ6hg8CdB4/BBzKAQDSb/r/KfJbBlmSzQGhQh7/KyaPBiJSlQDHTCMD5w5zB4tm6QHIH
qj9z2abBtGPDQHR/bkDiwqrBCBzKQAYFiT/xV7HBnTHQQPL0VUBrN7XBOL3KQGoZwkBbh6/BbmCF
QF92WUCr4JXB0/nMQMqmOkAz6ZfBewSbQLh+A0HqksDBia2VQKaZHEHQ17XBXIi1QHY0LkBHlaLB
YtO+QA1cEUHkpbrBphrZQMyrH0H7OMLBjzLbQLYrBkGoI7LBsrplQDbhPcBs1I/BfJaIQOFTPUBG
wp/BJxY/QORtdkDtYpHBp7HTQNO1AkCDybjBp2CsQGhRV0CZrJDByql1QPecD0Es57vB3+TEQEvA
60BDP6zBZhDBQITRp8C/PJTBTgDaQOahXcDCzKDB5K7JQMLpFcBfi7DBLQjcQCMQ7L49o7zBWkjk
QIujgUB4r8TBcDrhQA8mzkAsqr/B7cOhQMW26j5Ra5jBe2S2QOPkq0D/JKDBY6h9QHFnnMAxp4nB
e+hbQISEib/TCJfBI/zaQEjw+z+0JZXBOlvmQJQGa0AhspjBHhWcQBCtBEGaWcnBcaeaQDUX5UCg
NL7BlA2SQPttGkFIKK3B1TeTQPC1LUFlz7fBIfjwQEyrKEEkk73BLH/pQHSiFUF3LcjBEZ7DQBjv
KkGFVMbBu6n2QM2L/UAJN7bBMrrmQKlTEkE7d6zBFp9fQB6UM0A4rKTB5W4+QBzphUDU2InB7xkJ
QET0dUDNrpXBROGpQE6yjsAxTpbBLFu4QKDMW8D7D53BGH/FQKTcqr/0t63BBkLTQARqjL64NrTB
8z7dQD5/iUAbbr3BqoDUQC8dtUAx17vBjlGrQOyehz6OmKDBhWazQOf8o0Dkv6rB6tGGQKDyhsDN
eo/BOleAQDgNAcBUu5XBSoKxQPpjib9Iz6PBe1KjQBHdC8CU05zB7++4QJg1qz83H6fBqoS9QJJ3
cEBAEazBi2DNQGQmiD8wBbHBqEnSQBOzVUCOm7XB1D3AQHW9wkBUZbLBtOuFQPU2XkCJvZXBhn/M
QOy3QED/+ZjBySgJQQhJ/UBKLanBST8AQaglD0H7h5vBVLqyQDijMEBrMqPB/pPrQPMi9kCXL6HB
AsPvQEXVzEA6fprBXT6+QNWb/kCsEKbB7o1lQDMRQcA+Ro/BYmqGQKtMPUAndZ/BzCxCQJ+0dEAw
PpDBhNrcQHyyAUAPAbjBYOWuQDQAakBP4pHBeD4RQYLPDkFyuKLBpq+5QE4m7kCf7bDBpG+5QKqO
rcBfVZbBrSfTQDlKZsCrW6LBWjbKQGqxFsAeT7DBuZPiQP1a+b7qxLvBbZHsQCaLfkCRvcTBX1nd
QJMzzECi4MHBu/KbQPgP8j7MCZnB1ZOhQIQXrkCdyqPBSVx3QGE9oMC5SorBGSlgQL4wiL8neZXB
sM3XQEr9A0CeiZXBKg/oQNh9akCKnprBzdETQfZw4UBP76nB1EgEQQISBEFvL7HBTeTsQBa9HUEs
+ZvBt/oEQQdDDEHMLZPBO/nTQLrVyUDEJJXB6Q/xQFP/sECh3p/B7p4GQcs5zkBvspXBOiimQM4X
70D386DBIJO4QDWsEEHTMabBYpRYQFDjLkAjtqPBvG1GQDGth0Aj/YjB+MMIQHFJakC8h5PBjFmr
QIhnicDrgZXBanu5QIg0U8ABjZzBBRXDQIz7pr92Lq7BqsXRQLaAgb5GmbTBNT3fQNXAiUB+Br3B
/+XSQNeGtEAnq7vBOJWrQDIdlj7wvKDB0pasQGHdoEDZhavBAjeGQEk0gsDdWY/BKkx6QDY0+L90
vpbBN0+wQKaYg7+SLKTBsAqiQFynBsCRLJ3BtVW5QKqkrD9vOKfBxey7QCHZbUBBQqzBfrXNQLTM
iT9UI7HBVr7TQP9YVUD8abXBJmm5QKFBwECt47LB7zuGQKX6WUCTkpXBB2/NQAw6QUAvP5nBrWHd
QIzL0UCKjpnBfH/8QCtN9ED2T6XBaqeyQFW1L0DoQKPBQ+fPQH2Z/EACep/BeBbPQKy3EUGY65fB
zSWnQKNs+kDM0abBNbVfQNheOsBwCpDBwXSGQN5jOkC6VZ/BghVDQME5dUBoWZDBsVffQAZSAkBr
vbfBixevQBkSXkAFYpHB2IP/QEH3y0AVlqDB1HiuQD3A6kDKr7HBa7K8QH4op8DVypTBbrfVQFe7
XMCRY6HB2yHGQPrTFMBK5bDBDk7gQHti7r44QLzB3bLxQL+ZgEBE9sPB4frcQO90zEC7XsHBH0Od
QD/7/z75DJnB75KWQD04qUDdMqXBHad2QELdmsDA8YnBBY9WQLgcgr+5NZfBU4fdQIh8BkDFiZbB
TX3lQO4Ec0Cp1prB1yvnQFKH1kDuL5HBoxfFQPheuEB295nBoEz6QCZ880DBF67B2QILQRBFBUG0
5qLB95PFQHQSIEFHbJzByfi3QD/TDkF5cZHBJCLvQGgkFEGqfJTB18iPQCoX5UBP9qLBq6+ZQBNv
DUGEZKfBy25YQKCiK0CqhqPB1B1HQEAEh0Dv/YjBZx8KQNkRcEBw8JPBgT1qQEqyRcDzZY/BJF2A
QAiAAcCgGJbB01rDQIurqr9s0a3BQXzOQAroi77lk7TB+yHaQHWHiUAZyLzB6DnYQDretEDiH7rB
CaStQD5/gz7pHKDB6h7CQFuAokDQD6jBZtyOQNzmh8BjTo/B1Ee9QNDqVcDpHpzBmCmyQO5WiL8F
oKPBigelQD7aCcBFlJzBeS66QBozqT+Ur6bBGtDDQHDdbUDzr6rBDY7JQEEwhz/uKbHBOjLQQOaG
VECzJbXBpE7MQL9bwUB3p6/BexyFQHa9XEBY65XBrmrMQNLbOkCHxJfB95joQEqnLUHH+LTBv8eu
QH1EJUFr8q3BhUW1QNhDLkBNeKLBGWDcQLpYGkFYcq3BkcTxQHC+GkHpTKLB8ZveQP7GBEFyALPB
Ch+yQKJri8BUjpXBlVOIQCawPkDQt5/BJmQ+QPx0eUA1cJHBw6DTQE4yAUDBn7jBQlqsQFDnXUDe
0pDB356+QGgYNUFPtLTBJRjJQKD/6kCmbazByjEyQJSYQcAfXorBFrxaQBqPj7+bSpbByO7HQMei
FsCkaLDBUfHaQM4J9b68d7zBllHjQHYNgEBNxMTBsdXfQDrYzECZDMDBOWmgQLPU6T74SpjB5Nm4
QK8mrEB7GKDBrUCGQLAqosCSHorB9UzZQL5aXMArHaHB8DnYQKW++j8yqZTBu2DnQDiNZ0BBqZjB
tPz/QPHDOEEQdLHBjnnzQB3HKEFp+rzBOueVQKswG0GQmrHB+lijQE9QK0FGMabBN1bnQKW4DEFp
qp3B8mAKQZFaGkHFPaPBoHHoQMtxKUFqD57BdtvOQGa8BUFa27rBdR0AQeQGAEECE7TBQSBfQBxv
NEC9nqTBYQw+QAWOiEA7AYrBMP4HQNmIdkAWo5XBLnFpQGHCRsCPiY/BH5SAQHgEAsDZFZbBXErE
QMqvqr9spK3B+hrPQGK9i767cLTBlwTYQOvwiUAq3rzBy87UQOZgtUDMRbrBQz2uQDaygz4H+5/B
/U7CQKO4okCK/6fBaCqOQJqjiMCEe4/BCJy9QE+JVsAaAZzByvyyQFd7iL8wdaPBWJmlQE4gCsBr
cpzBRaO6QI9ZqT/GlabBX0TEQHw0bkB0nKrBleHJQNBnhz9OErHBDdzPQHL6VEA5ILXBKNvKQMfX
wUDhq6/B6yaFQH0uXEAZ7JXBApfMQDHNOkB+pZfBfSa0QIFyKEFSHa7BtLLaQF87KkGamLvBf7W1
QKhoLkDYZKLB0N/BQErHFkHge7bBjqicQBwQDkHbbb3B863fQNCrBUHrx7HB3MyxQA4KjMBHmpXB
gLKIQN68PkB1vJ/BVNo+QITDe0BypZHBSn/TQOByAUBjlLjBdKmrQJ3cV0COhZDB5djMQHOkN0HV
abPB1mTGQACE60A4YKzBreYwQKe/QsDMl4rBGYlbQFAZkL/lQZbByjPJQOCgFsBkM7DBRo3bQIpd
9b5vVLzBTNbgQAyRgEDl4sTBa+vZQIJjzUCwWsDBDfSgQF+P6j4MK5jByBW6QMM+rECD85/BtwWF
QKkmo8DsborBQPrZQLC9XMC74KDB2FDaQEsS/D/H0pTBrB3mQI7xakAMW5jBJauRQAH8K0FcHq7B
6MG+QAYlJUE/46XBCJ39QNYQKEFq3rvBtgPPQJXVLkFmksPBZQGpQNbpAUFr/8LBGkSEQG7QBkHC
OLjBB0iOQFhHG0EA/8HBUgzyQIUu/EC7QrjBntf1QL4oDUF+D6zB5ThgQJTVNEBvtKTBOqc9QP7I
iEBgIIrBRpYJQFbBfEBTFJbBe9tpQD6cRsDnfY/BrnqAQPXnAcCME5bBckvDQDucqr/QvK3BiLLN
QP5GjL5HlrTBRI3cQIuciUCgl7zBU8LbQFLrtECZy7nB+s+tQN8BhT4eCaDBid3DQLlsokC95qfB
YbuOQOlRiMDUY4/BFNu9QGuaVcAr9pvBzHqyQGUSiL+JgqPBdXilQNC4CcAWc5zBXhG6QJByqT/2
qabB9pnEQDTZbUBYoarBQrfIQPRIhz9FNLHBcarQQO6dVECxHrXBfCTOQP5NwUBndK/BAA6FQNVe
XUB//ZXB4kDMQLTiOkAPuZfBXH7hQFbRJEHvpLDBIagDQd8SDUFmVrfBg2C1QExyLkCpd6LBpw/W
QJXZEkGMErnB+WjLQMorG0FxXsTBT+S0QGjMAkE6xbTBl2ayQMiDi8BVgZXB+2+IQFZ0P0D5yp/B
m749QDr2d0C6c5HBAxLSQLBQAUBWvLjBF2WsQCKlYEBA9JDB+oUFQYkQHUGfqq/BO0rHQEAB60Ar
jazBC0AxQOL0QsAQjorB++1aQI5qkL9eRJbBUCbIQO6fFsD+SbDBeaHZQNaA9r4ghrzB11rmQLE4
gECzicTBIoflQGzjzEA/hb/BC7OgQOVi7D7kNJjByUG7QOf0q0BR4Z/B5taFQA/QosB8TorBSjja
QJB+W8C416DB8vvWQKkx+j/9d5TBrOrnQO/TZUDOnZjB0q7fQFAqNUF537PB0r/OQMnaI0EZNqnB
BGAGQdKu+UA6OLTBhKsNQayjD0G6db7BgezDQDeUDUEIo8nBcp6vQJjwJUHP8sPByxXnQMTwI0HT
lcfB+ZeZQAanC0HqabHBJsipQPMz8UAjYrvBUY5fQFqmNUDpvaTBORk9QIrGh0AHBIrBpUAHQIyS
c0CWnJXBaBlsQB6gRsB0R4/BmnyBQCbJAcA32ZXB2XLDQPGUqr8QsK3BvI7NQL4kjL4kjLTB6S3c
QBfxiEAUm7zB0hrcQPwetEDi1bnBn/qtQG18hD7r9Z/BMOzEQMRgokBW16fBUHCPQAuciMAgXo/B
nP69QCNlVsB4FZzBHc+yQKcyiL+ccKPBOAOmQPzqCcBmYZzBXuO5QBZsqT8AnKbBP+3EQPOlbUDh
jqrBzWbIQJ0Mhz9fKLHBvXPQQLACVEABE7XBQp/PQHj2wEBRc6/BcMKEQLkoXUAR95XBRAzMQNNs
OkAKn5fBd53AQH8FJEF5nMDBNLDUQKWMKEHY9LDBxFK1QAGNLkBcZ6LBUCXVQK8IFEF1ULjBQ1YB
QSdRDEFic7vB+Qu2QMuZAkFYirTBG5uyQEsDjMCBp5XBG2GIQFxPQECzz5/B8oA9QPUQekDIjZHB
+m7RQFzxAED6s7jBH5mrQDv1W0DUrpDBCRjCQA11NEFmILnBq4nKQJfj6kCWmKzBREc0QLaoQsA8
NYrBQ3hdQEV0j7/y6JXB6mLIQMmUFsCzPbDBU2XZQL5w9b4Kf7zB40/lQHivfkDrlcTBbp7lQJDf
y0C0pL/BoQKhQCj86j4gHZjBU5a8QHQmrEDt0Z/BZ6GGQFwoo8AOS4rBN/zZQFCRXMCyF6HBVhbY
QI2v+T+4mZTBO8vmQK/KZ0DAYJjBPXvUQA7iJkHDu8fBRQWgQNOjH0H8G8PBLHvAQG31JkGBy6nB
g7T0QAQmLkGNmq7BVWQHQe9FAUHPTbXB5KYAQSIGBEF7NMPBSBkMQUEwGkF8EbzBgHGZQPcgCkF3
DrHBK5+sQNY+8UBaZbvB0b1fQDaqN0Ac16TB4XA8QN0EiECOCorBlLAHQIn2eEDC4ZXB

>  <OMEGA_E>  (1) 
MBgOP4ZcEz8AMB4/SMweP7R1KD887Sk/JCoCP6RSAj8wtwI/MOkCPw==

>  <OMEGA_NBR>  (1) 
     92199

$$$$
50248146
     RDKit          3D

 57 61  0  0  1  0  0  0  0  0999 V2000
    3.5761   -3.0542  -17.9768 C   0  0  0  0  0  0  0  0  0  0  0  0
    3.9670   -1.9801  -18.7857 C   0  0  0  0  0  0  0  0  0  0  0  0
    6.1660   -1.3137  -21.6828 C   0  0  0  0  0  0  0  0  0  0  0  0
    6.5914   -0.2677  -22.5068 C   0  0  0  0  0  0  0  0  0  0  0  0
    6.8262    4.2577  -23.6985 C   0  0  0  0  0  0  0  0  0  0  0  0
    6.4676    5.6008  -23.5291 C   0  0  0  0  0  0  0  0  0  0  0  0
    5.4180    0.2982  -20.0176 C   0  0  0  0  0  0  0  0  0  0  0  0
    5.5440    5.0707  -21.3440 C   0  0  0  0  0  0  0  0  0  0  0  0
    4.3579   -4.2279  -17.9672 C   0  0  0  0  0  0  0  0  0  0  0  0
    5.8665   -3.3208  -19.5105 C   0  0  0  0  0  0  0  0  0  0  0  0
    5.5770   -1.0308  -20.4350 C   0  0  0  0  0  0  0  0  0  0  0  0
    5.1303   -2.1178  -19.5688 C   0  0  0  0  0  0  0  0  0  0  0  0
    5.8331    1.3523  -20.8453 C   0  0  0  0  0  0  0  0  0  0  0  0
    5.9154    3.7287  -21.4965 C   0  0  0  0  0  0  0  0  0  0  0  0
    6.4357    1.0661  -22.0996 C   0  0  0  0  0  0  0  0  0  0  0  0
    6.5478    3.3128  -22.6962 C   0  0  0  0  0  0  0  0  0  0  0  0
    5.8311    6.0145  -22.3480 C   0  0  0  0  0  0  0  0  0  0  0  0
    4.1858    3.4297  -18.7027 C   0  0  0  0  0  0  0  0  0  0  0  0
    6.4238    3.0753  -19.1133 C   0  0  0  0  0  0  0  0  0  0  0  0
    5.6146    2.7644  -20.3739 C   0  0  2  0  0  0  0  0  0  0  0  0
    8.0985    6.8493  -20.4958 C   0  0  0  0  0  0  0  0  0  0  0  0
    7.8335    9.1694  -21.4650 C   0  0  0  0  0  0  0  0  0  0  0  0
    7.2618    8.7114  -19.0426 C   0  0  0  0  0  0  0  0  0  0  0  0
    5.7328    7.9128  -20.8605 C   0  0  0  0  0  0  0  0  0  0  0  0
    7.2286    8.1397  -20.4807 C   0  0  0  0  0  0  0  0  0  0  0  0
    5.4779   -4.3440  -18.7205 N   0  0  0  0  0  0  0  0  0  0  0  0
    4.2229    2.9357  -19.9217 N   0  0  0  0  0  0  0  0  0  0  0  0
    3.0275    3.8709  -18.0826 N   0  0  0  0  0  0  0  0  0  0  0  0
    6.9055    2.0143  -22.9828 O   0  0  0  0  0  0  0  0  0  0  0  0
    5.4453    3.4683  -18.1384 O   0  0  0  0  0  0  0  0  0  0  0  0
    5.5501    7.3534  -22.1929 O   0  0  0  0  0  0  0  0  0  0  0  0
    2.6869   -2.9846  -17.3678 H   0  0  0  0  0  0  0  0  0  0  0  0
    3.3901   -1.0674  -18.8090 H   0  0  0  0  0  0  0  0  0  0  0  0
    6.2889   -2.3379  -22.0026 H   0  0  0  0  0  0  0  0  0  0  0  0
    7.0429   -0.4875  -23.4629 H   0  0  0  0  0  0  0  0  0  0  0  0
    7.3206    3.9456  -24.6065 H   0  0  0  0  0  0  0  0  0  0  0  0
    6.6807    6.3186  -24.3074 H   0  0  0  0  0  0  0  0  0  0  0  0
    4.9746    0.5112  -19.0561 H   0  0  0  0  0  0  0  0  0  0  0  0
    5.0318    5.3845  -20.4465 H   0  0  0  0  0  0  0  0  0  0  0  0
    4.0559   -5.0559  -17.3430 H   0  0  0  0  0  0  0  0  0  0  0  0
    6.7587   -3.4246  -20.1101 H   0  0  0  0  0  0  0  0  0  0  0  0
    6.9720    2.1837  -18.7748 H   0  0  0  0  0  0  0  0  0  0  0  0
    7.1346    3.8936  -19.3009 H   0  0  0  0  0  0  0  0  0  0  0  0
    7.6742    6.1123  -19.7980 H   0  0  0  0  0  0  0  0  0  0  0  0
    8.1109    6.4274  -21.5116 H   0  0  0  0  0  0  0  0  0  0  0  0
    9.1255    7.0960  -20.1886 H   0  0  0  0  0  0  0  0  0  0  0  0
    7.2234   10.0847  -21.4597 H   0  0  0  0  0  0  0  0  0  0  0  0
    8.8610    9.4120  -21.1561 H   0  0  0  0  0  0  0  0  0  0  0  0
    7.8464    8.7434  -22.4791 H   0  0  0  0  0  0  0  0  0  0  0  0
    6.6543    9.6274  -18.9975 H   0  0  0  0  0  0  0  0  0  0  0  0
    6.8547    7.9669  -18.3427 H   0  0  0  0  0  0  0  0  0  0  0  0
    8.3000    8.9461  -18.7653 H   0  0  0  0  0  0  0  0  0  0  0  0
    5.2888    7.2217  -20.1288 H   0  0  0  0  0  0  0  0  0  0  0  0
    5.2113    8.8802  -20.8144 H   0  0  0  0  0  0  0  0  0  0  0  0
    3.4163    2.7075  -20.4669 H   0  0  0  0  0  0  0  0  0  0  0  0
    3.0688    4.2512  -17.1587 H   0  0  0  0  0  0  0  0  0  0  0  0
    2.1506    3.8090  -18.5592 H   0  0  0  0  0  0  0  0  0  0  0  0
  1  2  2  0
  1  9  1  0
  2 12  1  0
  3  4  2  0
  3 11  1  0
  4 15  1  0
  5  6  1  0
  5 16  2  0
  6 17  2  0
  7 11  2  0
  7 13  1  0
  8 14  2  0
  8 17  1  0
  9 26  2  0
 10 12  2  0
 10 26  1  0
 11 12  1  0
 13 15  2  0
 13 20  1  0
 14 16  1  0
 14 20  1  0
 15 29  1  0
 16 29  1  0
 17 31  1  0
 18 27  2  0
 18 28  1  0
 18 30  1  0
 20 19  1  1
 19 30  1  0
 20 27  1  0
 21 25  1  0
 22 25  1  0
 23 25  1  0
 24 25  1  0
 24 31  1  0
  1 32  1  0
  2 33  1  0
  3 34  1  0
  4 35  1  0
  5 36  1  0
  6 37  1  0
  7 38  1  0
  8 39  1  0
  9 40  1  0
 10 41  1  0
 19 42  1  0
 19 43  1  0
 21 44  1  0
 21 45  1  0
 21 46  1  0
 22 47  1  0
 22 48  1  0
 22 49  1  0
 23 50  1  0
 23 51  1  0
 23 52  1  0
 24 53  1  0
 24 54  1  0
 27 55  1  0
 28 56  1  0
 28 57  1  0
M  CHG  1  27   1
M  END
>  <OMEGA_C>  (2) 
6N5kQCF4Q8CD0I/BzuJ9QOZ0/b82SZbB/k/FQBcoqL9Kdq3BFO3SQAwPib7dDbTB7W/aQOY+iEBv
lr3BM/bOQGw5s0CeO7zB+F+tQAK0mD74I6DBH2ixQNZCokCPwKrBEnSLQApLh8DYvI/BUbq7QGKH
VMCQFZzBsnayQD3xg7/NeqPBwSukQFqKB8DmjJzBCKm6QDMZrT8Vw6bBqEq9QA2jbkDt+KvBCfHN
QDJ3iD8FzLDBc4fRQJMEVEDSkbXBZpi6QNp2wEC2yLLBH/KFQHd/W0Atn5XBXo/NQJvRREAZ6JjB
Z6qzQHLsMECx/aLBW5MBQWYt20BO96PBC6z6QO+1EkFquKvBWGDoQApiC0E9V5jBdHO3QGw1/UA0
4qbBtVDnQAg8AkGP2KPBoEqvQLIBi8Cqw5XB9yGHQD3iO0COX5/B+MJBQD+9d0A4qZDBdPncQNTp
AEC83LfBjT+uQJ/4XUBkG5HBfZqxQCRP60AMi7HBg/YrQHwEP8A68YrBLPhYQG2fiL+8eJbBbD7J
QJ2gFcBeBbDBmV/hQG2e+b4StLvBNULqQKCEfEAe2sTB7sfVQOwxykCDdcLBwS+fQKvfAj/acpjB
dgShQOtNrEBkkqPB8smBQKTJocBmvorBhEfYQOssW8CP4aDBXhrfQEDCC0DgMpbBak7kQA0weUA1
aJrBVZP1QDOYw0A9Yp7BQ8YBQXOtzUCwF6zBDwISQXQS40A9gqHBRybnQAFbIUGGravBo8YNQXuX
FkHKP6nBrRX7QPrkC0E91bPBVvDUQN0JGkHx+pfBnVnbQKHw/kDBvZLB+cwEQWsjD0FgH5bBQT6p
QCQY50DSB6HBLsOmQEMVDkHxg6bBM6RaQGVILUBAvKPBsWZEQN8JiED3RInBn6IJQDzHc0AqeZTB
Q+FrQIZCR8C1Vo/BSHCBQDZ+AsAR6pXBZRfEQCCQq79KrK3BUKHOQNTejr7WeLTBxoXbQEodiUDY
lbzBKwPaQOB1tEAf8LnBqAKuQJklfj6D+5/Bc/PAQHKrokC2IKjB7UCPQI75iMAhbI/BStG9QHhs
V8B+KJzB9v+yQECRib8yd6PBefalQBTFCsBocpzBwP25QItqqD+tmqbBokjDQDjSbUBIp6rBhUzJ
QJVchj8WFbHBhEDQQOIRVEDeC7XBe+rLQCeTwUADr6/BBuyEQEFoXUDM6ZXBxSbMQOjQOkBKu5fB
F+W0QJEOLkCzaqLBYReqQBVEBEEq7sLBF06dQDZNHkHM4bPBiJPcQFYyI0FUPMDBM87dQIHtBUF1
kLLBZFrAQPSLEkEEZbrBFGCyQBR8jMBruJXBOPqHQO9BPkCvqJ/B6Oo+QLAAfkBVnZHBKC7TQP+7
AEBajbjBPsOrQBOZWkBxpJDBXNfGQEmd60AMmKzBNBM0QKAoQ8A3RIrB/3ddQCG/kL8B+5XBRAvJ
QPYGF8ADPrDBCPLaQKIp977wYLzBoXTlQLQDf0AsgcTBwqfjQMwozEAHv7/B2dugQIqF5D6+JpjB
RZC2QKhwrEDyQaDBXWyGQI95o8CoVYrBtsHZQE7MXcBNLqHBFCXZQFOQ+z/1yJTBx0bmQGCBaUDK
lJjBMIDCQKGO90AmpMfBh0mVQCEd8UCH6r7BJrqWQJxcDkFhRcjBpXasQCOAKEEMy63BSACKQJdG
KEEES7nBqY+IQIt4EkEq8K/B7JjsQHJ0LUHeT7rBDsr0QMjcGkGUE8XBvmjIQEscLUGPecXB7Df3
QCkk/EBqN7fBjjjsQCBJEUG/46zBVE1eQJgpM0Aig6TB5ag+QM7dikBVL4rBfRUJQNzNfUDg8JXB
w5aoQFtkjMC1XpbB3iq3QJ5PWMCUPJ3BG7HCQMRRp791C67BOk3QQDilgb5Hj7TBvw7XQK6eiEDN
jr3BWj/MQBtts0BW6bvBvDauQPgdkz5tPaDBk1W4QFFqo0CdianBpE2GQDO9g8DnXY/Bx4CAQIso
9r9OtpXBYWuxQIy/hL8G2qPB7deiQFQFCMDy65zBU7e7QG2hrD+FvKbBjUnBQLLPb0CpSKvBDNLM
QDyPiT+3BrHBVSnRQGIAVUC2ZLXBti29QIv8wEDN1bHB7j2GQAhDW0AVupXBSQ7OQAT6QEDTSJjB
+7i1QDBxMEBssKLB2a/QQIzsF0FXgqHBKPIBQS468kBeAqXBXtkGQaVQHEEGoa7B59nOQOiBBUFi
bLPBiy7sQJB9DEHRGarBvORlQNT8OcCEII/B+8+IQDAgPUAUh5/BgG9AQEiXc0Cl5pDBjJXaQM7j
AUCmJbjBzymuQGziYECWCJHBwtawQHB56kDjArDBu3W3QHuWq8Cgb5bBJHHRQGvzY8BSqKLB9WfF
QMfmFMD50LDBkJPdQDqc7L4fXLzBWQrkQNJOfUDiKsXBkWzPQGUzykCDXMLBsT+hQEkf+z7GZZjB
XK2tQEMIrkBMwqHB9WV2QIGlnMAvD4rBB5xhQGsfdr+BeZXBRjrcQOtgBUBrOJXB723nQLvAcEAc
hpnBBQPAQO6ZJUHAJ6XBcga5QNKiDEEkQZ7BZ4LlQLClHUFCBJvBl6sLQTAj4kCHJKvBNWUMQfaU
/UChhZ7BdE7sQDmP20CEwqHBypoQQeIyFEH4ubTBRTb9QMUOKkFxRLLBWT8RQSbxIUFAHKjB6fO8
QNp/E0GcVbbBMrjiQJ4g/kAX77nBJUFfQA2FMEBfNKTBVOBAQLOihUALeInB5R0JQJl3bUC72ZTB
hmuqQCQKi8CF8JXBxt64QINrVcAcyZzBRCvDQDqYpr/N363BGIDQQBxIg775gLTB2hjfQLIoiUAU
Mr3B+gfZQBDMtEBqM7vBZOmsQBCLnj76YaDB0AO2QPwgo0CKbqrBhh+HQC4Lg8DXNI/BbEWAQMLZ
9L/hu5XBGmOxQHxfgr+Bw6PBEmijQHZXBsCtuJzB2rW5QF5Wrj/ADKfBUpO+QEFsb0A3/qvBfhPM
QP69iT/hMLHBHoDSQCndVEBFn7XBiK3EQKoqwkDoxrHBeKCFQH0QWkBHo5XBpizNQClYQkBI8JjB
YnCzQOA5MUBLJaPBZq/nQDQ410Dx9JnBLHftQGopEkFuXp/BIlSzQNcrBkGDl5LB9lqtQDoN/EBo
MqbBKHvNQEUUAEGop5zBQ6FlQIKKOcCpK4/B2OaGQJHuPUBBkZ/BrYpAQBVTcECIVZDBlMLaQGUz
AUBvVLjB5DWuQKPNYEA9V5HBnBnBQDKy7UD/FLDB5CS6QK3PqcBF0JXBpOfTQBICYMCyAKLBWn3G
QFrSFMAOf7DBOUzeQFDi875AOrzBL5XtQNgIfkB3nsTBJArkQA84zEBQ7cDB14ifQIzvBT/9mZjB
NOujQHAbrUCpgaPBXv53QG0WnMAw8YnBscRfQNBKdr+gppXB+VrcQO0oB0CKDpbB7OTlQC4ac0B4
Y5rBUqrRQJ3ovEBm/ZfBI037QMMuzkDY56DB4aD8QNSf3UBIEZPBycDbQI/dIEFLUKHBIC8BQfAZ
FUFTcZjBQYUAQWhhDUHiR6bBpWKgQAKiFEFNPpTBebydQG7Z8UCLfJDBvUbJQFxICUHd44vBVFeU
QID25EAe9aPBUr6eQNfIDUF/nafBZS9aQCatMkAvFaTBAT5DQE+Jg0A43YjB2fcHQKygaUDO+pPB
wkyvQADMisDJK5XBcIy9QFJWVcCjHpzB8RPFQCmOqb897K3Bi+jPQLMqhb7WrbTB9VTaQBVPikA0
u7zBIjrYQIWTtUAeALrBGRWvQBd5hD6RM6DB+xvAQHXuokByLKjBDpiJQHo4hMDzLo/B9UGAQMEK
AMDwiJbB8LCzQNS2h7+CvqPBYb2lQKNICcB4x5zBmTO7QPXcqT8uxqbBDhbDQFSkbkBrx6rBgXfK
QDe8iD/CQ7HByfrPQJ2sVUAFNbXBomzKQPEswkDIra/BOZiFQNWJWkDS4ZXBSiXNQEyUO0AQ6pfB
nZ61QNJPLkCdjKLBMEuoQBxABUH4jcLBufGbQOrFHkGFQ7PBMQbbQNcDJEFwp7/BZ0/cQP9EBkE8
QrLB2sy+QKQ1E0GB7bnBrpdlQL76PsD08Y/B7K+IQAjEPECSsJ/B0Gs/QHRId0A8ZpHB4uDTQI9r
AkBAubjBadWsQBwSW0C+yJDBWT/FQMr+60AwcKzBgf/AQFZSqMD+ZpTBciHaQNwKXsBx2qDBkQjK
QIf9FcA3gbDB4YTcQO8F7L6nj7zBIwLkQMEVgUDdssTBhy7hQLqXzUDJy7/BzxiiQDyB6D47WZjB
lri1QGdQrEApRqDBmEJ9QMUencD92onBYBdcQO7iir8SDZfBdmzaQHmP/T+Y+JTBGBfnQPyYakDx
0pjBY5DAQBHP+UBPX8fB5oeTQP3Y8kAlnb7BZNqUQJmMD0Gex8fBRkirQE++KEHTG63BuI+IQBH0
KEFYj7jBOj2HQPfTEkHeZK/BHTXrQCALLkH1qLnBuBrzQB3QG0F7l8TBZNTGQF8jLkEWycTBoJf1
QLMU/UAQArfBLubqQBBhEUFdfazBhqtfQB6IMUCgh6TB4gk/QJpFh0BU8onBeBUJQB3IdEBanZXB
/8yvQJFIisDYCpXBUMO9QFBrVMCgCpzBkl/EQAGUqL+d5q3BeZ/OQAvEgr4Pu7TBeGbbQOHMiUAm
yLzBha/aQJf9tEB8B7rB+/SuQDIhiz5YJqDBiUPEQKcCo0DE/qfB/VeKQLCog8BI9o7BjriAQCcC
/r9mT5bBH36zQLs1hr96raPBP+ylQPheCMAAp5zBS9a6QBs6qz+AxKbBkMnEQFbWbkBKtqrBXknJ
QGdWiT8oU7HBuVnQQKJsVUDAO7XBCGrOQAvJwUBVn6/BrjuFQI2KWkDx65XB5tHMQEiqO0D2zJfB
XN+1QFxDL0BViqLB1HvZQDj4JUG+ga/B++gBQZIxDEE+7LrBFgrEQJxqH0GqwcLB1Vq2QFR7A0Hh
w7TBQiXWQET7FEHverjBuQ5nQLDYPcD8rI/B5eWIQIitP0Be2p/Bn6U9QKJjckDKQ5HBMATSQG9W
AkDh27jBFIKsQNyuXUAJ3JDBkm/JQKfJ60CkuKzBS4fBQKvNp8AeTpTBpyTaQAwxXcA42aDBwmHJ
QHGNFcDKdLDB5bLaQASy6r5bqbzBrITkQPlPgEBixcTB+Y3jQOfVzECH4L/BWjeiQMZG8D5+RpjB
lPW7QBerrECh9p/BDix/QHeHnMBumYnBNARdQAnFiL9jyZbBNN/YQLhx/D8vvZTBWJXnQB/paEDu
oJjBNXG5QK9NLEGetK3BzAbnQP6SHkFQRqjB213uQM4aM0GHKbLBVfIAQYcXAEFTS8HBq0gMQV9p
GUGfir3BI50IQY/hBEFpp7PB6rXBQMpNE0FHHcnBIBKkQLH+JUFnGcHB/3bZQKxfLEEVXMXBsrqZ
QEsyC0GJZbHB/SOtQHVI80AisLvBGLxgQF6LN0B446TBa5g8QEzWg0CquInBdDwHQHJSbkAzcpXB

>  <OMEGA_E>  (2) 
ZFvsPqg22j76ZBE/JCURPyh1Cz+g+go/

>  <OMEGA_NBR>  (2) 
     60040

$$$$
50248150
     RDKit          3D

 61 65  0  0  1  0  0  0  0  0999 V2000
    6.1612   -1.3371  -21.7398 C   0  0  0  0  0  0  0  0  0  0  0  0
    6.4658   -0.2710  -22.5870 C   0  0  0  0  0  0  0  0  0  0  0  0
    6.8773    4.2710  -23.5753 C   0  0  0  0  0  0  0  0  0  0  0  0
    6.8709    5.6210  -23.2359 C   0  0  0  0  0  0  0  0  0  0  0  0
    5.5084    0.2441  -20.0015 C   0  0  0  0  0  0  0  0  0  0  0  0
    4.0411   -1.9892  -18.8662 C   0  0  0  0  0  0  0  0  0  0  0  0
    6.0543    5.0793  -21.0166 C   0  0  0  0  0  0  0  0  0  0  0  0
    5.9568   -3.3442  -19.5054 C   0  0  0  0  0  0  0  0  0  0  0  0
    4.4277   -4.1901  -17.9459 C   0  0  0  0  0  0  0  0  0  0  0  0
    5.6550   -1.0715  -20.4579 C   0  0  0  0  0  0  0  0  0  0  0  0
    5.2185   -2.1497  -19.6048 C   0  0  0  0  0  0  0  0  0  0  0  0
    5.8493    1.3154  -20.8276 C   0  0  0  0  0  0  0  0  0  0  0  0
    6.1036    3.7121  -21.3350 C   0  0  0  0  0  0  0  0  0  0  0  0
    6.2940    1.0529  -22.1505 C   0  0  0  0  0  0  0  0  0  0  0  0
    6.4978    3.3087  -22.6387 C   0  0  0  0  0  0  0  0  0  0  0  0
    6.4281    6.0379  -21.9574 C   0  0  0  0  0  0  0  0  0  0  0  0
    3.6313   -3.0139  -18.0233 C   0  0  0  0  0  0  0  0  0  0  0  0
    4.1567    3.4519  -18.7380 C   0  0  0  0  0  0  0  0  0  0  0  0
    6.3867    2.9323  -18.9637 C   0  0  0  0  0  0  0  0  0  0  0  0
    5.6640    2.7159  -20.3003 C   0  0  2  0  0  0  0  0  0  0  0  0
    5.4305    8.2293  -24.3886 C   0  0  0  0  0  0  0  0  0  0  0  0
    5.0594    9.8983  -22.5420 C   0  0  0  0  0  0  0  0  0  0  0  0
    7.0528   10.1292  -24.0794 C   0  0  0  0  0  0  0  0  0  0  0  0
    2.1008   -3.8089  -16.3542 C   0  0  0  0  0  0  0  0  0  0  0  0
    7.0415    8.3413  -22.3285 C   0  0  0  0  0  0  0  0  0  0  0  0
    6.1431    9.1243  -23.3336 C   0  0  0  0  0  0  0  0  0  0  0  0
    5.5582   -4.3353  -18.6808 N   0  0  0  0  0  0  0  0  0  0  0  0
    4.2560    2.9466  -19.9499 N   0  0  0  0  0  0  0  0  0  0  0  0
    2.9723    3.9121  -18.1855 N   0  0  0  0  0  0  0  0  0  0  0  0
    6.5586    2.0136  -23.0901 O   0  0  0  0  0  0  0  0  0  0  0  0
    5.3840    3.4915  -18.1042 O   0  0  0  0  0  0  0  0  0  0  0  0
    2.4610   -2.8050  -17.3192 O   0  0  0  0  0  0  0  0  0  0  0  0
    6.3062    7.3546  -21.5713 O   0  0  0  0  0  0  0  0  0  0  0  0
    6.3133   -2.3551  -22.0667 H   0  0  0  0  0  0  0  0  0  0  0  0
    6.8353   -0.4648  -23.5832 H   0  0  0  0  0  0  0  0  0  0  0  0
    7.1772    3.9671  -24.5673 H   0  0  0  0  0  0  0  0  0  0  0  0
    7.2062    6.3557  -23.9531 H   0  0  0  0  0  0  0  0  0  0  0  0
    5.1302    0.4300  -19.0071 H   0  0  0  0  0  0  0  0  0  0  0  0
    3.4601   -1.0827  -18.9502 H   0  0  0  0  0  0  0  0  0  0  0  0
    5.7246    5.3901  -20.0363 H   0  0  0  0  0  0  0  0  0  0  0  0
    6.8525   -3.4689  -20.0958 H   0  0  0  0  0  0  0  0  0  0  0  0
    4.1240   -4.9883  -17.2848 H   0  0  0  0  0  0  0  0  0  0  0  0
    6.7560    1.9774  -18.5615 H   0  0  0  0  0  0  0  0  0  0  0  0
    7.2290    3.6295  -19.0847 H   0  0  0  0  0  0  0  0  0  0  0  0
    6.1828    7.6694  -24.9635 H   0  0  0  0  0  0  0  0  0  0  0  0
    4.7598    7.5232  -23.8772 H   0  0  0  0  0  0  0  0  0  0  0  0
    4.8447    8.8628  -25.0709 H   0  0  0  0  0  0  0  0  0  0  0  0
    5.5419   10.5388  -21.7890 H   0  0  0  0  0  0  0  0  0  0  0  0
    4.4756   10.5227  -23.2344 H   0  0  0  0  0  0  0  0  0  0  0  0
    4.3907    9.1831  -22.0407 H   0  0  0  0  0  0  0  0  0  0  0  0
    7.5662   10.7718  -23.3490 H   0  0  0  0  0  0  0  0  0  0  0  0
    7.7988    9.5787  -24.6714 H   0  0  0  0  0  0  0  0  0  0  0  0
    6.4403   10.7514  -24.7484 H   0  0  0  0  0  0  0  0  0  0  0  0
    1.1565   -3.5267  -15.8657 H   0  0  0  0  0  0  0  0  0  0  0  0
    1.9761   -4.7770  -16.8614 H   0  0  0  0  0  0  0  0  0  0  0  0
    2.8947   -3.8912  -15.5972 H   0  0  0  0  0  0  0  0  0  0  0  0
    7.8367    7.8310  -22.8918 H   0  0  0  0  0  0  0  0  0  0  0  0
    7.4918    9.0589  -21.6269 H   0  0  0  0  0  0  0  0  0  0  0  0
    3.4804    2.7475  -20.5488 H   0  0  0  0  0  0  0  0  0  0  0  0
    2.9693    4.3062  -17.2664 H   0  0  0  0  0  0  0  0  0  0  0  0
    2.1206    3.8501  -18.7058 H   0  0  0  0  0  0  0  0  0  0  0  0
  1  2  2  0
  1 10  1  0
  2 14  1  0
  3  4  1  0
  3 15  2  0
  4 16  2  0
  5 10  2  0
  5 12  1  0
  6 11  2  0
  6 17  1  0
  7 13  2  0
  7 16  1  0
  8 11  1  0
  8 27  2  0
  9 17  2  0
  9 27  1  0
 10 11  1  0
 12 14  2  0
 12 20  1  0
 13 15  1  0
 13 20  1  0
 14 30  1  0
 15 30  1  0
 16 33  1  0
 17 32  1  0
 18 28  2  0
 18 29  1  0
 18 31  1  0
 20 19  1  1
 19 31  1  0
 20 28  1  0
 21 26  1  0
 22 26  1  0
 23 26  1  0
 24 32  1  0
 25 26  1  0
 25 33  1  0
  1 34  1  0
  2 35  1  0
  3 36  1  0
  4 37  1  0
  5 38  1  0
  6 39  1  0
  7 40  1  0
  8 41  1  0
  9 42  1  0
 19 43  1  0
 19 44  1  0
 21 45  1  0
 21 46  1  0
 21 47  1  0
 22 48  1  0
 22 49  1  0
 22 50  1  0
 23 51  1  0
 23 52  1  0
 23 53  1  0
 24 54  1  0
 24 55  1  0
 24 56  1  0
 25 57  1  0
 25 58  1  0
 28 59  1  0
 29 60  1  0
 29 61  1  0
M  CHG  1  28   1
M  END
>  <OMEGA_C>  (3) 
hyjFQE0mq78G663BlufOQNi+ir5FsrTB7RLcQN6riEAtmrzBkd7bQHzfs0A247nBcESwQMPxeT4U
A6DBbVCBQJGe/r/s7ZbBEr3BQL2JokAYIqjBRJ6+QKQHVsACC5zBXq+NQIkVhsBLkY/B+PW0QLwl
ib/TqaPBTv6mQBWUCcC51pzBVy27QEdgqD/4nqbB5VDDQHqTbUAPrqrBamjJQJfEhj8/NLHBK+7P
QFfBU0AHHLXBw7LNQHc2wUC7qK/Bw2doQPHiQMDCL5DBEwSFQC/rXECE55XBKmDMQMmqO0CitZfB
3D+1QC7RLUAHZ6LBkMatQFyrA0HaG8PBXOahQItfHkEOVrTBvbDhQAMRIkGVosDBN3QGQEXFc8BS
1YLBRlThQOB1BUHXoLLBq5TEQPr8EUE0q7rBwtyxQM+6isBWcpXBZDGIQN+VPEBNmZ/B4jo+QD9f
ekDue5HBWeDRQFTeAECMuLjBc0msQEF1X0Bl1ZDBSYAdQH2FM8CxjYrBk8zJQP5Y60D8kazBLAbK
QLS6FsCNiLDB+LraQEz17b5aqrzBQavlQMLlfUDpicTB15jmQOFhy0Dmn7/BxCqkQHkq3D6IDpjB
fnFdQDCWir8bmpfB9y+3QJd7rEBSSqDB7kfbQO8BXsAixKDB4feDQBCgn8A7R4rBjzHYQD8b/T/t
fZTBpVPnQAJJaEBjrZjBr9nFQLNr9UAptcfBC1CYQBq+8ECHBL/BrgebQA/ODUE7kcjBAFexQLue
KEHcT67BQDiPQO9cKEES4LnBnYCMQO3tEkFeU7DB8x3yQGxZLEHDyrrBI5D5QIlCGUERX8XB/xbO
QLYFLEHQ/MXBnwiUP361YcDl2X3BGPH8P9vcmMA65IbBaEM5QLUJecA5jnnBpcb6QHqX+kBeIrfB
zrzvQCDxEEHWA63B475eQNvXL0D8Y6TBwwg+QAfMiUCvIYrBFLgHQClodkCBpZXB

>  <OMEGA_E>  (3) 
vOfwPg==

>  <OMEGA_NBR>  (3) 
     82662

$$$$
