50222508
     RDKit          3D

 56 58  0  0  1  0  0  0  0  0999 V2000
    6.5534    5.7310  -23.7527 C   0  0  0  0  0  0  0  0  0  0  0  0
    7.6090    5.2095  -22.9846 C   0  0  0  0  0  0  0  0  0  0  0  0
    5.2418    5.2552  -23.5649 C   0  0  0  0  0  0  0  0  0  0  0  0
    7.3533    4.2116  -22.0307 C   0  0  0  0  0  0  0  0  0  0  0  0
    4.9762    4.2756  -22.5918 C   0  0  0  0  0  0  0  0  0  0  0  0
    6.0284    3.7587  -21.7978 C   0  0  0  0  0  0  0  0  0  0  0  0
    6.4065    3.3218  -19.4328 C   0  0  0  0  0  0  0  0  0  0  0  0
    4.1411    3.4824  -19.2148 C   0  0  0  0  0  0  0  0  0  0  0  0
    7.1725   -0.7600  -14.6815 C   0  0  0  0  0  0  0  0  0  0  0  0
    5.6644   -1.6027  -21.3442 C   0  0  0  0  0  0  0  0  0  0  0  0
    6.5336   -1.0790  -20.1907 C   0  0  0  0  0  0  0  0  0  0  0  0
    5.7755   -0.6763  -22.5670 C   0  0  0  0  0  0  0  0  0  0  0  0
    6.1313    0.3531  -19.8091 C   0  0  0  0  0  0  0  0  0  0  0  0
    5.3551    0.7543  -22.2034 C   0  0  0  0  0  0  0  0  0  0  0  0
    6.2170    1.3132  -21.0336 C   0  0  0  0  0  0  0  0  0  0  0  0
    5.7484    2.7594  -20.6692 C   0  0  2  0  0  0  0  0  0  0  0  0
    7.1191    0.3031  -15.7639 C   0  0  0  0  0  0  0  0  0  0  0  0
    6.2461    1.4927  -15.3164 C   0  0  0  0  0  0  0  0  0  0  0  0
    6.2617    2.4725  -16.4643 C   0  0  0  0  0  0  0  0  0  0  0  0
    5.3347    3.6734  -16.2728 C   0  0  0  0  0  0  0  0  0  0  0  0
    5.5271    4.6450  -17.4556 C   0  0  0  0  0  0  0  0  0  0  0  0
    5.3740    3.9587  -18.7514 N   0  0  0  0  0  0  0  0  0  0  0  0
    4.3225    2.7509  -20.2868 N   0  0  0  0  0  0  0  0  0  0  0  0
    2.9096    3.7193  -18.6225 N   0  0  0  0  0  0  0  0  0  0  0  0
    6.1091   -1.3527  -14.3561 O   0  0  0  0  0  0  0  0  0  0  0  0
    7.5925    3.2544  -19.1232 O   0  0  0  0  0  0  0  0  0  0  0  0
    8.2863   -1.0421  -14.1662 O   0  0  0  0  0  0  0  0  0  0  0  0
    6.7489    6.4978  -24.4877 H   0  0  0  0  0  0  0  0  0  0  0  0
    8.6148    5.5758  -23.1280 H   0  0  0  0  0  0  0  0  0  0  0  0
    4.4365    5.6441  -24.1705 H   0  0  0  0  0  0  0  0  0  0  0  0
    8.1714    3.7851  -21.4694 H   0  0  0  0  0  0  0  0  0  0  0  0
    3.9675    3.9168  -22.4497 H   0  0  0  0  0  0  0  0  0  0  0  0
    6.0024   -2.6117  -21.6228 H   0  0  0  0  0  0  0  0  0  0  0  0
    4.6152   -1.6449  -21.0164 H   0  0  0  0  0  0  0  0  0  0  0  0
    6.4052   -1.7344  -19.3166 H   0  0  0  0  0  0  0  0  0  0  0  0
    7.5884   -1.0860  -20.5025 H   0  0  0  0  0  0  0  0  0  0  0  0
    6.8172   -0.6679  -22.9202 H   0  0  0  0  0  0  0  0  0  0  0  0
    5.1203   -1.0531  -23.3662 H   0  0  0  0  0  0  0  0  0  0  0  0
    5.0982    0.3460  -19.4315 H   0  0  0  0  0  0  0  0  0  0  0  0
    6.8072    0.7168  -19.0212 H   0  0  0  0  0  0  0  0  0  0  0  0
    5.4829    1.4008  -23.0841 H   0  0  0  0  0  0  0  0  0  0  0  0
    4.2976    0.7518  -21.9007 H   0  0  0  0  0  0  0  0  0  0  0  0
    7.2647    1.3614  -21.3651 H   0  0  0  0  0  0  0  0  0  0  0  0
    8.1389    0.6607  -15.9694 H   0  0  0  0  0  0  0  0  0  0  0  0
    6.6925   -0.1340  -16.6787 H   0  0  0  0  0  0  0  0  0  0  0  0
    5.2182    1.1578  -15.1133 H   0  0  0  0  0  0  0  0  0  0  0  0
    6.6662    1.9566  -14.4118 H   0  0  0  0  0  0  0  0  0  0  0  0
    7.2894    2.8454  -16.5862 H   0  0  0  0  0  0  0  0  0  0  0  0
    5.9540    1.9407  -17.3766 H   0  0  0  0  0  0  0  0  0  0  0  0
    4.2895    3.3320  -16.2413 H   0  0  0  0  0  0  0  0  0  0  0  0
    5.5820    4.1846  -15.3307 H   0  0  0  0  0  0  0  0  0  0  0  0
    4.7768    5.4464  -17.3852 H   0  0  0  0  0  0  0  0  0  0  0  0
    6.5355    5.0808  -17.3993 H   0  0  0  0  0  0  0  0  0  0  0  0
    3.6010    2.2590  -20.7742 H   0  0  0  0  0  0  0  0  0  0  0  0
    2.0811    3.3193  -19.0146 H   0  0  0  0  0  0  0  0  0  0  0  0
    2.8501    4.2899  -17.8035 H   0  0  0  0  0  0  0  0  0  0  0  0
  1  2  2  0
  1  3  1  0
  2  4  1  0
  3  5  2  0
  4  6  2  0
  5  6  1  0
  6 16  1  0
  7 16  1  0
  7 22  1  0
  7 26  2  0
  8 22  1  0
  8 23  2  0
  8 24  1  0
  9 17  1  0
  9 25  1  0
  9 27  2  0
 10 11  1  0
 10 12  1  0
 11 13  1  0
 12 14  1  0
 13 15  1  0
 14 15  1  0
 16 15  1  6
 16 23  1  0
 17 18  1  0
 18 19  1  0
 19 20  1  0
 20 21  1  0
 21 22  1  0
  1 28  1  0
  2 29  1  0
  3 30  1  0
  4 31  1  0
  5 32  1  0
 10 33  1  0
 10 34  1  0
 11 35  1  0
 11 36  1  0
 12 37  1  0
 12 38  1  0
 13 39  1  0
 13 40  1  0
 14 41  1  0
 14 42  1  0
 15 43  1  0
 17 44  1  0
 17 45  1  0
 18 46  1  0
 18 47  1  0
 19 48  1  0
 19 49  1  0
 20 50  1  0
 20 51  1  0
 21 52  1  0
 21 53  1  0
 23 54  1  0
 24 55  1  0
 24 56  1  0
M  CHG  2  23   1  25  -1
M  END
>  <OMEGA_C>  (1) 
cLXRQLBkt0BxBb7BFn3zQDq0pkBv4LfBfrynQK0qqEDlhLzB3k3rQI/FhkDQPrDBwjyfQNXRiEAF
vLTBeOjAQEqOcED8Ya7B9AHNQLaYVEBvdpvBEoSEQGrgXkDbt5nBvoTlQPKOQr9o52rBZEK1QK4j
zb8FwarBEBPRQLQdir+HhqHBhtC4QEojLb8qibTBnjPEQGTGtD4JeZ7BMl2rQGUaQT9/oLHBpvHG
QCQWqD+5RKjB5PK3QKuaMECJWqXBDNDjQDozmz7uOHzBHuDHQFwRvz8IEHXB7F/IQBk+HkDRtoPB
sbWqQHQZa0CsLoLBAN6wQOmjlEAZpYvBKvirQDBbfUDZApbB91GKQPMNMEBWS6LBHjY6QE4IbkDy
+pTBmn3DQGQkrb+WsmXBmvXyQF5HUEBV/JjBe5QEQR9lhb/rqGLBuvbXQJTtz0Dk5sPBZNYJQZRs
skA8BrnBNviNQECctEBIXcHBIL4CQbQ+ckA9wavBZut9QAqsekD+mLPBTBPAQNIlJ8CQ+6zBnK+T
QHqL0r+nIajBivfMQDQA3r9iiJrBitTyQEYDi78MBaTBLibaQFL8Kr+ZXLfBatmjQEHMhr8E7rrB
QySjQLQpsT6mc5vB09TZQLt9Nz9UK5jBHHSvQNBNsz9ArLjByoWJQOF0QD+vNK/Bo3joQIxBrj/K
66rB6jgCQUskKT/Qgn/BBCnWQEkxCb4LboXBofumQNUylD/uz3HBLVHVQHxw+j+MlmbBgELpQNkb
NkBysITBU4e+QKRn+D9eA4vBUUOJQEtAVUAq7oHBq5+yQHvohUCYSnXB7NuYQItIrkDSFIvB1SLR
QEqWokDGMYvBVHdmQIyTEECMMabBKTAFQDZwVEDOHZjBcGc2QO5GiUCQbY7BlW/UQKDstUDLvb7B
t7n1QFSzpUCIWbjBKzqqQI55p0BSNr3BYNHsQBMmh0DyZ7DB9w+hQBJWiUASLrXBfTbCQE+yckCJ
jK7B2zDNQPx+VEBKZJvBgESEQH+CWUDFbJnBh3QWQZm6wUAK+HfBCVawQAIvxL/WNarBLkvLQK8W
hb95uaDB2oO4QHk0KL/7HLTBLmHAQEjR1T4GGJ7BnTStQA6HTj+KybHB8LnGQLOlrD/eBqjBK1e4
QAmfM0B0dKXBMIEHQSWbmkAX4HnBKTPjQKkjokAypW7B0a7FQOd5dEA6Pm/Bfem+QBDdT0BU4ILB
YSaxQMlKi0DVsorBprOrQOEIckAeNpXB3EOKQLm+NEDgtKLBEY45QIV3ZkDBnJTBvOIoQbxQv0AK
BoDBtVHzQFXNUkDcCJnBGVYQQTog40Bram7BgUTbQIB8zUC108TBzRALQb+3sECmi7nB1MyQQICR
s0DiOMLBz04DQR0kdEBNravBxZ2AQGWhfECLDrTBLQS5QMi2JMBsDKzBGDmOQHGsvb8uFKjB257E
QFF81b8HspnBNW7tQIhzjr8nyqLBkoPaQApfOb8PVLbBXK+kQGyGgr+ox7rBksyeQPnR8j6YfpvB
D1bVQN9JQz/KlZfBZOG0QB42tT8u3LjBj8KKQAY1YT9YErDBvfDoQFNPrj+nF6rBnKMEQUYAlEA4
doXBuV0PQd6qfUBEc3LBYyfpQJWvqkBg1V3BDMDSQPq/vEBrtnbB5BHUQKBgQkCaL2XBp0ymQJ1B
g0Crq2jByQPdQMQxM0CrsoXBsuGlQCVtHkC+kYLBeruSQOVcmUANAojB6+TJQClNpECv+4rBnfZl
QA7BHEB9TafBPhYEQAEPU0BxR5jBGRw2QCWbgUBGeo3BOgDSQNEntEDPYb/BclzzQGcXp0ATkbjB
wGKoQColpEAA2L3BfCvrQEAhikDFMLDBovifQCdzh0DtbbXB6C/BQDIOdUAdYK7BZh3NQEo/UUD9
7JrBuCKEQE74V0B0IpnBQHXZQM+LEUHlj5HBFCu0QATSw79seKrBJpLPQLrWgb91KqHB8L25QMmy
IL+2VrTBWsPCQCOI1j5uUJ7BmvysQBwrUj/wxrHBNhHHQBI8sD9vKqjBKCy4QHnhNECyRqXByir8
QCu0AEG86pPBJgf7QBsc3EDuzovBEtvQQKvcwkDWuYzBbE7TQLn3mUDixoXB8juvQPRSdECEZojB
sG6rQO6lYkDN95PBKjWKQEqPNUB2j6LBtLA4QNIybECv6pTBItnYQI2dGkHFjYjBnH3zQFSMTkC1
4JjBVLC+QJEeFkExwJjBkVbYQBV1ykAWysXBQaoJQX5Qs0DXw7nBYNmOQE3lrUBrIcPBeooCQVtn
f0A4GqvBwvZ/QOpHdkDhUrTB0x2+QCV4I8CtfqzBAFGSQMgMxL/wDqjB08bKQHq91L+WJ5rBUX7x
QGBFhL+ZgqPBoXHbQE5jJr9X37bBwGSlQCOYgL8G27rBW1KhQCWr2D5RkZvBjabXQH0iSD9Q2pfB
ww6zQHBuuT+q17jBxbWKQCQGWj82yq/Bhv/oQMN7tT/8e6rBVQP3QG2C9EC7AJzBkt8NQU9wCEFh
hpPBrgILQbpxxkDWaI3B6OH9QB8Y6UD8qIPBcjG2QIr41kDM8YnB8oXLQGbYuUCQIJXBM0nyQCc/
ikDNMYfBsdTQQIoio0Azm3rB2bu1QLPCN0D0N4TBvcGQQIGRh0CSi4XBq+NlQFLjHkAtRKfBwqkD
QJWLYEARJ5nBYFg0QLM3g0Deo43BamnXQBhitECUhb/Bt7P3QN5kpkAsgrjBPmetQE/gpEBeZL7B
zADuQF0giUDUUbDBpW2jQPwQiEDbH7bBxXPDQHk3dUCnza7BFzPNQKJwUkA5K5vB1Z+EQPZKT0BI
/JjB/rbJQNVy70D1g1TBvUiuQBDJxL/v1ajBDKTSQChMfb8O3aHBy7WpQEjAML/yCLPBFGnJQGLT
7D4TsJ7BdKigQLDfRj8YPrDBtbnDQHgzsD8ou6jBNF64QOxFN0DgqqXBTA6bQGCd50CgoFvBgdmX
QNkA2kDcSXPBjPuqQKUorUDTnHbBEwKpQAkTokDIJYfBREyxQPChZEDyj4jBpEasQEjFT0BkzZPB
TWKKQBY7P0BVH6PBAb85QLH8XECqU5TBug3kQOIiAEEOTGHBmWPzQLreWECqCZnBec7UQMMr5ECo
+UHBcN/eQKwIy0BwxsXBlf8LQVInskBParnB1sWUQLker0Ce4sPB5ZQDQbc4e0CgJKvB9CqDQLAo
eEDNVbXBBHK1QKv9JMCEDqvB7SKQQKh2wL8aTaTBon7VQJ45zb+kmJrB+NHwQJT2g790YabBqZTH
QKz2P7+KqrfBGByPQBvKir9Z3LfBx96rQBZZ/D6Q6JnB4EHkQGR3Vz8r35nBbaufQJCKrj+WrrfB
83eBQIcOVz/WMazBpjDiQAebsT99I63BhT+NQHUuzkC3m1HBK7uIQJqqAkEOY1nBRP1rQMyk2UCa
GnjBtXSpQBoe8UAiOX3B7XnMQDnfrECDM3HBR32YQMuPlUDeY23BjSWJQL0SqkAYT4rB7XzBQANr
tEBZgIvB7gTSQEcxVUCF9IXBIDmaQJXBP0CBxoPBuoxlQM8bOUDad6jBx8kEQBHSWkCNz5jBkXI1
QBcEaUDffIzBA0XTQAats0BxUb/BjDjyQPf9p0CFsLfBeNqpQIkwokB1xb7B+MLnQEMci0AZda/B
lUefQHA1hUAGk7bB1Nm9QDqWc0AMsK7B1IjJQLPEP0A2cJvB3GuCQL2pWUCdxpjB91j9QLzpDUH8
Sn/B+Q7cQEr0s7/BCKjBmoDmQP4n+r4zjrHBfVWuQAxSkr/xDqTBlYniQAIofT96X67BGrupQADI
oD7qi6DBFEW1QOAQpz+P0anBtJmxQEJ9MkAO7qXBO/byQLU47EAl8oDBHCjgQITU40CMKozBHmrZ
QC8OtECFPI7BHTy2QHqtoEA194bB+GqyQD8+YEB0mIjBWd6pQBpjS0AA0pPBisGEQDDXQkBS1qLB
6r87QJX9eEDx15PBtnfgQGmYG0HcVYHBt9vvQMgDN0CSnJnBb1YRQbBFE0Hs5XnBpkvbQEYNykDu
lsXBSwwJQTM4tUCUJrjBpyGSQF0Gq0BMp8TB6sv/QOAJgkCUranBQCN/QI4Ib0CxSLbBvNneQA0t
HcAlkKrBOcvyQLSumr8bgaHB6LUDQUetL7+uPbTBVRTQQFpaM7+eH7jBBY+XQJ3TrL90j6rBbm+n
QEnM5r+XO53BJq36QMXhmz9OPKjB+zboQLWyzj8BeLXBLnOIQGTf+z4bD57BZEi/QGVa/z5gv5nB
HN+dQCs6lD9jSbDBrDQIQbJc2UAH43/BI3/bQPms4kABrHXBbSzBQM9T9ED50ozBq1L2QJWQ8EAy
N5LBoALQQKSdr0DCpJbBSq/3QKgjo0BWuYzBblW+QJMgp0AdHH3BxWCXQNe+r0Bd5ojBZo7QQJqe
QUCFJIbBIwuYQMzOR0DUoYPBX0hXQOhCPUDcvqfBAJYFQEd1f0AWB5jBBTg9QMyNhECBGozB797S
QIhXs0ByVL/BA8bxQLASqEC3pbfBQIupQDikoUDjyb7Bll7nQPBYi0DUX6/BJgqfQPzLhECIjrbB
B5S9QHl9c0Bmoa7BrGvJQCV5P0ARZJvBP2OCQMh9WkCqxpjBIlwPQQCE20A/EXzBgIXcQDhxs798
JqjBNO3mQBKf9L7CobHBOLyuQCTYkr8ZL6TBsbriQG04fz8HZa7BC++pQLonnT4bnKDBUGO1QGTz
pj/a1anBenuxQNw1MkA546XB19ryQAlf70Cp5IDBRzHjQM3840DvT4zButHbQFLIs0AhFY7B61a3
QIWWoUAzB4fBC2SyQIIGYkAolIjB6s+pQD+KTEALzJPB15qEQKEtQkAvyaLBlOg7QALEekCl45PB
nUoTQbhC00C8umjB0KrvQEbANUD7iZnBXegcQbHR00BJRIXBnN7aQDaQyUBBo8XBp8gIQeB/tUA0
GbjByNeRQOs0qkBys8TBrVn/QAaggkAojKnBQM9+QLvbbUARRbbBf3bfQPzMHMDCt6rBSy/zQGFQ
mr9ImqHBuvIDQXZgK79ZTrTBmpfQQDNbML93OLjBSwiYQHAcrb+gtKrBid2nQD4H6L8VZJ3B1tD6
QJPlnD97PqjBxVXoQE1e0D84d7XB5Z6IQCVn9T7FH57BDm+/QC7S+j4pzJnBPAqeQE07lD/wULDB
YQPbQLbE40DvNXbBdYP1QFIxCUEZSIDBztbEQB3U9ECbxY3B8Fz7QM4F70CPFZLBgZTTQOmCrkA2
iZbBwZT5QAqcokAyLIzB8aa+QIIiqEB/J33BHyCZQPtjsUC2NonBXRzQQI0tQkArDYbB9aKXQCA0
S0BWn4PBm9hWQAdhO0ADpqfBsaoFQBBngEBOEZjBNJ09QG7/hUADMIzBe07SQOKWtEC5Jr/B9d3x
QAT1pkCl4rfBG0qoQNflpECCRL7B23nnQP/SiUA9sK/BfdCdQH+bh0ASIrbBgBm9QLoQdECaoK7B
R87IQKoUPUCYdJvBpEqCQKbOWUBd1pjBtJoAQeBi5EA9vJzBMbjeQN0usL/yzKfBO/nnQCQX9L7Y
frHB356wQD11lL+f8KPBHpTiQOxjgD/Hkq7BaWiqQPixlj7mlaDBaD21QI2CpT/c6KnBUACxQNCZ
MUBy+6XBPHYFQV6H50BxjZDBkorlQAgy2EAEW4nBMDLcQA18qUCM2IvBMLq2QN6El0CyXIXBriiw
QNQ7UEBXRYjBsL2oQA8ARUBI0ZPBBx6EQEFvQUCu2KLBNRg+QKjxfkAS9JPBNK4PQYM520BABqPB
QxrvQNxRM0DgqJnBr4rbQFxm6UAuK6DBN1faQIsSy0DnZcXBexcJQYDfskBBmLjBwweQQKxXr0AA
18PBJvH/QNfXfkAFK6rByy97QEeZdkAwl7XBHfviQAF/G8AfG6rB4wz1QPZYkL+uS6HBYoEEQRYh
Jr+/M7TB253RQPa8Or8n/LfBq0maQMdFs7+wdqrBxTyqQE2R6L+/EJ3BB876QIYNoz9lkajBrTzn
QFVqzj8wzrXB1d2IQAGW4T6pL57B+X+/QD08Aj+WwJnBWbGdQEJnkT8vVLDBqJcTQSO/00BdzY7B
afMIQX6RBEEpmo7B5JHuQKB920DS44DBB+jIQJaf60D794rBRYjUQHWhpkC1Z5TBoPP4QIKBlkAy
C4rBKsu9QEJTmkAninnBaHyZQBShqUCmO4fBQ+HMQEH7K0BC9YXByk6UQFqLN0DB3IPB46BVQAKK
OkDZqqfBrIMIQC9+hEAPJZjBJdZAQNTXh0BWPYzBSTLUQJpKtECpNb/BBlv1QPBnpUAAkrjBahWq
QLqupUCVpb3BkXPsQGERiEBhVbDB7fCgQLe3iED/WLXBt/jBQGQwdEDXc67B4KnMQMvcUEBP/5rB
m0+EQN9aUkCKCpnBGJQcQT8TskAcqXjBj8SxQCTHw7/wm6rBFnXMQFnHhL8YGKHBHFK5QFyTIb8z
arTB4rbAQKjP0D4tVp7BWy2tQPoCUz/677HB7ZDGQNeArj+7KajBeCO4QJGLNEDFZaXBCb8FQRen
t0Djy4DBM7joQEJnp0AE0HHBmfS6QM3Ds0DuCXnB+cavQHzlpEAH3YfBFa6wQBTtZ0ChnIjBxHir
QHEDUEA+tZPBie+JQB9NNkDDy6LBXOA6QOwra0Dxp5TB8wEsQRi2wEDqr4HBHOvyQOnTVUDT3ZjB
lp0fQdmEn0An/mbBvhLbQE7vykCggcXBWtoKQZSGsEDbzLnBpLuQQMq6sEA/1MLB3BcDQVIxeEBy
Z6vBgZGAQMAEe0BQNbTBTBa7QK7wI8DXkazBnqWPQOVxwL/5dKjBsyrGQGfy1r+MH5rBjp/uQCxT
i7/tK6PBIVXbQBjMLL+Zp7bBBqWlQCJ0fr8LHLvBcBafQN+94T6nv5vBPmvVQA/zQD+kx5fBvV60
QOBguT8z9bjBibqKQHMZYD/1LLDBPb7oQPxnsT/lQqrBj/YCQWbT2UD2YYLBRGkEQYWMpUBTUIjB
OdfqQJFUhEDGwnDBJ8LuQC5ytUBv9WHBHfijQNhKpUBH2G3Bxwi4QIfS1kBdbnjBeY2PQBpgsEAQ
8InB1i/HQEhHskAdhY3BCXfPQBS+T0CqmYXBLnGWQE/FTEDO04PBgvJkQIqhJECAxKfBcYMFQPdS
aEDoDpnB3Dk4QBDmf0AtGI3BsgXSQFYdtUBYFr/BEj3zQFfVp0C+QbjBW3yoQHSopEBKub3BJPjq
QHg/ikDaB7DBv/WfQEFsh0CKcLXBsgLBQA+wdEBMXK7BF13MQFCzT0BT+5rBrv+DQPgcVEBSGpnB
hwYaQQsOfUC7R27B6x62QBsWxb+u8arBmuXOQOrBg799K6HBw1i9QJL6HL/kmbTBAgHBQIoPyz5g
Z57BzwWvQKQSUj9HC7LB1h/HQL8Orz8nIqjBR7y3QLQJNEDjW6XB2j4IQXV8lkBNiXrBJPPlQOCl
mEANqG3BcLzCQKn+skCgKHnBczG6QAHDpEDHH4jB4GCwQElXaUAmp4jBSQKrQLaPUUAbvZPBmIWJ
QCioNEDUtKLBLuE6QM8YcEC12JTBfMYrQczucUC6bXfByqvyQE0dUUDL0ZjBvLkWQSlQYUDQnFvB
BGnYQP3vy0AtYMXBz5MJQTNgtECLVLnBmRmPQNB8rkD1C8PBN2UCQQ4hf0Bp8qrB5gWAQPeidUAk
dLTBszzBQPhfI8Bk9KzBkcSTQEDOyL8OCqnBrnnIQPsN2L98TprBG1zxQJqwhL/b9aLBA5bfQCyy
G7+IpLbBac6qQKw4fb9Dc7vBFgSfQPM+xj6fHZzBV1XUQHpMQj8SpZfBzsy1QGGouz8g97jBUW+M
QCr5Uj8IabDBN3bpQCyNtD/2CarBDbUNQR9Lt0CO1H3BVz0FQTzLhUBd3oTBrxTaQEi7b0CWO2vB
MHvsQDmAp0CsCV7B79GkQOvWr0DvBHDB7bDMQCDB1EBmZXnBf6ueQNWvtkDUSYvBhqPWQK+Rq0At
BY3BcgrLQFvyREDRJIXBTM+SQAGRW0AfM4TBWTtkQN8nIEC0hafB7nAFQMMZbUCbO5nBqsA4QMyg
g0C2ZI3BMHvRQB7vtEAlVr/Bja3yQHaLqECOZLjBRyWoQDf5o0AH+73BapnqQGBXi0ANELDBVdaf
QOIGh0CYnbXB2dvAQNufdUCubK7B55bMQGl2UEAs9ZrBth6EQGgWVUBuFJnB9KAjQeyEvEANyY/B
IT+2QCCOxL+Ma6rB6xbRQNH+f7/gGKHBxxy7QNX8IL/iSrTBWCzDQNyV2D7iTp7BlUStQFSeTz88
wbHBtRfHQP7xsD8AMajBps+3QOInNUAnXaXB0+0LQSsTx0DFFJLBj675QPVbtUDaWYnBGYLKQDfO
vkDnN4zBoT+rQFG7okAasYXBlmqvQBLtZEC/K4jBASCrQE5zU0DtqJPBP7qJQL34NUDRsaLB72Q6
QDd8b0Dw45TBwr0xQawlzkBjeJXBBPTyQFulTUCT7JjBQq4oQUh/o0CXRYjBuLvXQNlyy0DSs8XB
pjgJQUx6tUAldbnBqr+OQIQvrUBqXsPB8DMCQRlxgUBG4KrBPhKAQH3xc0C+prTBJRPBQBhHI8Co
cazBIGOUQPNiyL/NBqjBUJ3MQP4D078CFJrB2xDzQH72fr+nZaPBPtLcQMdVIL+d07bBQA6nQKnC
gr9izrrBFqehQNoDzz5loJvBxpbXQP59TT+W0JfBTMayQOmIuD8L1bjBHwKLQNhYUT8rvK/BbAHp
QJZUtz/ng6rBtA8KQdcK6kAod5LB+HEHQbXxuECm0pnBdjb+QLSNkkCdr4jBLbIAQf6UxEB2p4HB
w7fDQA+v4ECpiYrBP6DFQM5vuEBhyZTBQbGxQKG0p0C8QnrBv1eKQNjZrEDAhofBjfvOQH2NTkAY
doXBtDWWQEoVQkDv1oPBTJ1kQAm8IUAJhqfB20IFQERoa0AhUpnBPWc3QClMg0CEcI3B

>  <OMEGA_E>  (1) 
4rpMPxbwSz8cH0w/foZNP+J6Tz8+eFA/lsZSP0BLSj+6fEo/3IRKPw==

>  <OMEGA_NBR>  (1) 
    103146

$$$$
50158039
     RDKit          3D

 53 56  0  0  1  0  0  0  0  0999 V2000
    6.6872    5.3844  -23.9064 C   0  0  0  0  0  0  0  0  0  0  0  0
    7.6943    4.9387  -23.0335 C   0  0  0  0  0  0  0  0  0  0  0  0
    5.3750    4.8967  -23.7701 C   0  0  0  0  0  0  0  0  0  0  0  0
    7.3830    4.0342  -22.0029 C   0  0  0  0  0  0  0  0  0  0  0  0
    5.0576    3.9943  -22.7384 C   0  0  0  0  0  0  0  0  0  0  0  0
    6.0466    3.5864  -21.8068 C   0  0  0  0  0  0  0  0  0  0  0  0
    6.3367    3.2873  -19.3276 C   0  0  0  0  0  0  0  0  0  0  0  0
    4.0706    3.4556  -19.0498 C   0  0  0  0  0  0  0  0  0  0  0  0
    6.3184   -1.3762  -22.0816 C   0  0  0  0  0  0  0  0  0  0  0  0
    4.9551   -1.0318  -21.4639 C   0  0  0  0  0  0  0  0  0  0  0  0
    7.4558   -0.6883  -21.3069 C   0  0  0  0  0  0  0  0  0  0  0  0
    7.6374    2.6345  -14.8911 C   0  0  0  0  0  0  0  0  0  0  0  0
    4.7372    0.4882  -21.4518 C   0  0  0  0  0  0  0  0  0  0  0  0
    7.2525    0.8354  -21.2812 C   0  0  0  0  0  0  0  0  0  0  0  0
    6.6412    2.6491  -16.0306 C   0  0  0  0  0  0  0  0  0  0  0  0
    7.5851    4.0756  -14.3368 C   0  0  0  0  0  0  0  0  0  0  0  0
    5.8744    1.1992  -20.6632 C   0  0  0  0  0  0  0  0  0  0  0  0
    6.6714    4.1217  -16.4352 C   0  0  1  0  0  0  0  0  0  0  0  0
    5.6475    2.7508  -20.5653 C   0  0  2  0  0  0  0  0  0  0  0  0
    5.4675    4.5197  -17.2798 C   0  0  0  0  0  0  0  0  0  0  0  0
    5.3139    3.6512  -18.4541 N   0  0  0  0  0  0  0  0  0  0  0  0
    4.2271    2.9998  -20.2617 N   0  0  0  0  0  0  0  0  0  0  0  0
    2.8398    3.7356  -18.4756 N   0  0  0  0  0  0  0  0  0  0  0  0
    7.5416    3.2534  -19.1018 O   0  0  0  0  0  0  0  0  0  0  0  0
    6.6818    4.8198  -15.1908 O   0  0  0  0  0  0  0  0  0  0  0  0
    6.9205    6.1002  -24.6808 H   0  0  0  0  0  0  0  0  0  0  0  0
    8.7080    5.2911  -23.1543 H   0  0  0  0  0  0  0  0  0  0  0  0
    4.6080    5.2163  -24.4601 H   0  0  0  0  0  0  0  0  0  0  0  0
    8.1671    3.6752  -21.3527 H   0  0  0  0  0  0  0  0  0  0  0  0
    4.0523    3.6086  -22.6550 H   0  0  0  0  0  0  0  0  0  0  0  0
    6.4655   -2.4658  -22.0471 H   0  0  0  0  0  0  0  0  0  0  0  0
    6.3370   -1.0366  -23.1277 H   0  0  0  0  0  0  0  0  0  0  0  0
    4.1592   -1.5066  -22.0564 H   0  0  0  0  0  0  0  0  0  0  0  0
    4.9195   -1.4106  -20.4318 H   0  0  0  0  0  0  0  0  0  0  0  0
    7.4706   -1.0679  -20.2746 H   0  0  0  0  0  0  0  0  0  0  0  0
    8.4147   -0.9164  -21.7953 H   0  0  0  0  0  0  0  0  0  0  0  0
    7.3410    1.9074  -14.1207 H   0  0  0  0  0  0  0  0  0  0  0  0
    8.6464    2.3915  -15.2558 H   0  0  0  0  0  0  0  0  0  0  0  0
    4.7280    0.8602  -22.4869 H   0  0  0  0  0  0  0  0  0  0  0  0
    3.7720    0.7111  -20.9735 H   0  0  0  0  0  0  0  0  0  0  0  0
    8.0501    1.2953  -20.6793 H   0  0  0  0  0  0  0  0  0  0  0  0
    7.2997    1.2227  -22.3097 H   0  0  0  0  0  0  0  0  0  0  0  0
    6.9641    1.9979  -16.8562 H   0  0  0  0  0  0  0  0  0  0  0  0
    5.6394    2.3445  -15.6936 H   0  0  0  0  0  0  0  0  0  0  0  0
    7.2103    4.0701  -13.3026 H   0  0  0  0  0  0  0  0  0  0  0  0
    8.5877    4.5274  -14.3611 H   0  0  0  0  0  0  0  0  0  0  0  0
    5.8595    0.8032  -19.6371 H   0  0  0  0  0  0  0  0  0  0  0  0
    7.5936    4.3231  -17.0001 H   0  0  0  0  0  0  0  0  0  0  0  0
    4.5600    4.4475  -16.6624 H   0  0  0  0  0  0  0  0  0  0  0  0
    5.5984    5.5577  -17.6194 H   0  0  0  0  0  0  0  0  0  0  0  0
    3.4776    2.8395  -20.9040 H   0  0  0  0  0  0  0  0  0  0  0  0
    1.9996    3.5895  -18.9978 H   0  0  0  0  0  0  0  0  0  0  0  0
    2.7925    4.0837  -17.5393 H   0  0  0  0  0  0  0  0  0  0  0  0
  1  2  2  0
  1  3  1  0
  2  4  1  0
  3  5  2  0
  4  6  2  0
  5  6  1  0
  6 19  1  0
  7 19  1  0
  7 21  1  0
  7 24  2  0
  8 21  1  0
  8 22  2  0
  8 23  1  0
  9 10  1  0
  9 11  1  0
 10 13  1  0
 11 14  1  0
 12 15  1  0
 12 16  1  0
 13 17  1  0
 14 17  1  0
 15 18  1  0
 16 25  1  0
 19 17  1  6
 18 20  1  0
 18 25  1  0
 19 22  1  0
 20 21  1  0
  1 26  1  0
  2 27  1  0
  3 28  1  0
  4 29  1  0
  5 30  1  0
  9 31  1  0
  9 32  1  0
 10 33  1  0
 10 34  1  0
 11 35  1  0
 11 36  1  0
 12 37  1  0
 12 38  1  0
 13 39  1  0
 13 40  1  0
 14 41  1  0
 14 42  1  0
 15 43  1  0
 15 44  1  0
 16 45  1  0
 16 46  1  0
 17 47  1  0
 18 48  1  6
 20 49  1  0
 20 50  1  0
 22 51  1  0
 23 52  1  0
 23 53  1  0
M  CHG  1  22   1
M  END
>  <OMEGA_C>  (2) 
iP3VQJ1MrEBZQL/BgDf2QLcJnkCWRLjBzP+rQCyynEA2Kb7BdkHsQBwYgUDeBbDBENihQM+hf0A7
6LXBFH7BQFiIZUBRdK7BEsbKQJpiUkDvnprBDkKCQEcoXUDmZZjBajDKQGonsL8Op7DBP5CeQNIR
hL8LtqvB5pXuQP8yML+MdKrB7GX0QFOcKEDKQW7B5JaXQMb4+T40navBYBToQCveVT/8P6rBnoTU
QLOKKUCrPoDBwrjyQPdqgkB7Y2XBVPu7QG1/mT9CTqXBeHzVQFTlg0BEe4PBMri0QMkNMECshaTB
FvauQC2hkEAZPYrBQAuqQJmtaUD8oZPBSkSHQL78P0DrF6LBpr81QDoUb0AAzpPBpFTxQMU3UEBp
0JjB/NDVQHo7mkBZDXPBjHTdQI40w0AvcsXB5FMLQddQqUD6O7nBwXSTQBTspkA5rsPBc6wCQQ43
a0BT0qrBQayBQHzzZkBnPbXBp+XOQEXPHcCMYLDB/sjKQDiuhL9xBbnBGRiFQF7ZwL92c7DBxWyd
QOiNtL9HdKPBhQ/vQASyiL9mMqLBjKIGQRSWar/CXK7BTOnqQN0m9D937mHBeFcKQRIOGUCrF3TB
GUyXQAo3XD8y5bPBomdxQMMHNj/MyafBLs0AQTXNpT8+b6XBH5fpQCaAnD9berLB0dneQBW6/z+I
2YbBnXW0QAwMFkAbGXvBy7rmQJY+gkB511TBMWcJQRvgkEASx2XBTYG7QOqbTT/CGJ3Buv7yQJRW
ikAsAIjBieuRQOBRjkCxTIXB7iWzQOfYsUCZ9IzBUpFeQMq5NUBrO6fBZPP/P4+6ZUB/+5fBybcy
QEatgkB+UIzBuSLUQD9AtkB08L7BlQz1QCNTp0AGPbjBFRaqQNAep0AMlL3BGPrrQPFQiUBgLLDB
UsGgQE92iUBEcLXBworBQClOdUB+ga7BCbHMQCpwT0DsNZvBWSOEQCjWU0BYF5nBq5y1QIhQyb/G
uqnBR8HVQHn8fL9GvaHBz8GyQBflL79exrPB80GSQFZ9xUAJLX/BK2jIQAhP2z4ijp7BO/ilQM4p
QD+E3LDBtxq7QOWurkCaQnjBMeSZQHz8z0D8eYvBYHzFQEykrj8YlajBFj3KQPxQmkBCeIbBn4e3
QGekNEBckKXB4sexQKgoYECyfojBp6yrQMdWUkAY5pPBYWuJQOSwN0CW2KLBYTg6QGRoa0BOrZTB
JRHzQPTkUUCgJJnBKgrBQDNlukDwjY7BICLbQA9TzUASIcXBbKoKQSjtskDoSbnBPOiQQNJMskCF
y8LBq8cCQdqfekAZM6vB4W2AQNLEe0BAdbTBMQTAQLlFJcDED6zBMOeVQHSN0L+D76XBGMnWQCHQ
z79ij5rBs6r1QDADdb/dcaXBch7SQB4GLL/YxLfBHamaQMG1jb8/PbnBI5VsQHl1sEBjQ33B8nCN
QGXu4kCw1XXBhO2oQATbxj5foZrBpCzgQNN5Vj+G85jBYzamQLfurj/ZJrjB6o+FQMpUPj9Dba3B
eNzSQHyExUAQEnLB8GW0QJNMlkCaBGzBS/R9QDhVxEC1V5DBaFSdQEi/8kAvkIzBhGTlQI0gtT/X
RqzB4sjsQN7Kk0CNCIbBCD/EQAGKKkC4JYXBXlmSQJ5qY0DwjYTB92djQICiJkCMxqfBxcMEQNNm
Z0AlDJnBZXQ3QBsygECKII3BAOrYQA7+t0DAw77BpG/4QEmAnkAf2bnBBq6tQGwss0Al3rvB0s/s
QOxUgEBP/bHBeuqhQIsnlUDAAbTBrnbBQCY9d0Dz2q7BmvPLQPxfS0BonpvBWn2DQNRIVUBh8JjB
5Cq/QJlm0L+A8KbBkhTpQLvZU78LF6fBRnidQKhsc7+gGK7BxCvpQG114EA2PZDB5pPhQGKeHT8u
a6PBirKUQPMI+T4CUqrB7CjAQFvhxkCfXo/BjewFQXwevkD8eI/BMEa+QL3BrD+MIKrBqLzMQD0P
o0BIc4fBmiq1QFHFNUCtHKbBKjuzQDlscUBUzIjB2OyrQEKuWEBvFpTBlpiHQMh6QUA2FqPBPZo4
QFjnY0DKAJTBOqXyQGieTUCEDJrBfIP6QIc3nECtyIjBtOrhQEQ4z0DbwMTBOM0MQVgUokD+GrzB
hXiVQCyMxkD9rr/BYpACQSJEWUC2Uq7B2aKAQAN5kUDX3bHBc0rFQLdSKcBH6anB4AmzQEz71r9J
sJ7BpCIAQRdDp79OsaHBXfP1QCStUb/JR6/BGkepQC8Ubb9JYrbBLBt/QFi0w7+Vwa3BNubqQLd4
8UBP7pfBkuvrQMya90AVpYnBjZ3XQGdFGj+n+prBasX/QAwdlj/JMaTBjgx7QDz9cz/Eyq/BeyeH
QKnA5z7HM6LBPOmlQFmN2kBgLYzBSr+2QD+UuUCBK5fBar0JQUelsUAxepfBmngUQdl7y0DX0IvB
gwjKQB4Rtj+xZrLBdcPGQO7/rkCinX7BSSrFQPzAPUBr2ITBPe+TQAMZeUDn4oTB4R1eQLQPO0Cl
KKjBdm4CQN+EX0BQOpjB+mQ2QO/NckBTOozBZKTXQBh6uEDp5r7Bm//1QMt9rUC1F7fBcVqvQBJX
pEAi9L7Bp/rrQNTMjkC/SK/BgumkQJoFhkAPCLfBYJfCQBhud0CT267Bic3LQMjOS0BEh5vBOIeD
QH71VUCd+pjByOK9QBZU0L8xvKbB2yPoQHJYWL/wtabBr/WcQA8yb78FBq7B/n4QQSjQikAnP3vB
iwvhQGleGj97FqPBDp2UQM2BAj/HTarBGPoAQbJGWkDiAIPBQoUBQeBZp0AMIW7Bro2+QJRlrT+L
9KnBMxzdQNVEjED1x4XBZNC1QDKeNkC+DKbB7VOyQLxUakB2eYjBjderQHwWXkDyJJTBUyOIQHT9
RECSN6PBsjc4QIicX0A69JPBi3LyQBjJTEBOFJrBKCLZQHrTpUCOaHjBTDDfQNVW0EBB3MTBP4cK
QWemvECNF7fBflaYQN4qrEBDGMXBR/0BQQqEhUBIhKnBJwmGQLYEbUCBMLfBmL/DQGxtKcALsanB
3TOxQD5d1r/viJ7BwLv+QK2nqr8YNaHB7ZT1QIkOWL8E2K7BI0mpQCG+ar/jQ7bBoH59QJDAv7+p
yq3BlacbQTVackAe4XDBcZoZQRiWnUAZg4PBAHzWQKeAGD+DsZrBJI7/QJKjkj/Wu6PBSgh8QGI4
fD924K/BGoiGQPgT+D7BPaLBhusHQa1tPUDBPYrBQjX3QDhZJ0CZG3vBbV8AQXdUm0CKoF3BvI4H
QdlpyEDs8W3Bo+bKQMpktT9QLrLBBaXmQJpCoEDlnozBTWOyQLEvK0BllYTBVbCXQGtpiEB/UoXB
yexfQBAbQkAscqjB3CcCQGOnWUCjK5jBhpk1QC+CbED+H4zB6uPZQIlvt0DJx77B3yb5QOmhnUAq
3bnBmZWuQBD5skAJ6bvBFDLtQNYXf0CQBbLBJ32iQCIIlUBuELTBhsrBQLuEdkBP567BsPnLQF4O
TEDIn5vBQomDQKYSVEA975jB4iu+QK1m0b9WKafBkDjoQCvhVr/6BKfBJRCdQOSicb9eZ67BFF3k
QIFO40CtiobBIqTgQL01Gj/WP6PBz12UQOAa/D75karBG67bQH35u0CSM43Bpv7cQN6h0kCpYXbB
qiy+QCA4rD86IKrBYuy1QLFVp0BSO4fBBEK1QJOoNUDaIqbB7m+zQASubECHw4jBaeGrQOcdVUCE
CZTBtqiHQFSkQUDJIKPB2QI5QGbnYkB/75PBhJfyQGL7UEBK85nBo3O8QE1/sUAi/3fBOiXjQJaj
zkA5wMTBeC4NQT/poED0G7zBB5SWQLaQxkCLvL/BqKUCQbwqV0DcWq7BESmBQOKZkUD88bHBbmzE
QFaJKcCgNqrBU2ixQDua2b/3+Z7BAeX+QNEtqr9djKHB7cP1QIovUr/9I6/ByWKpQObfab+ypLbB
ywB+QIMBwr8sN67BX7YCQQyc7kAFnIfB6PfNQLhL/UDcgojBK9TVQCeNFD9t4JrBW/z+QM/vkz8s
yqPB6HJ7QNt2eD/qHbDBZjaGQPlF6D7YhKLBL8PSQIyXxEDwb5XBfZ33QCyRpkCNW43B0M76QN4s
xUAM4W/BKc3RQPOu7EC882vBIqzKQM1WtT8wVbLBuOqXQMXDtUA6ForBiMzRQBQBUEBTH4bBxw+Z
QHh/U0AG3IPBp1JeQIRUPEBpO6jB+rACQP3NX0DtJZjBDis3QHWscEBUIIzBlZzWQG3os0BMh7/B
pv71QGjco0BjibjBOcerQG/KpkAncb7B7YzqQL8Yh0CRYLDBJDOgQNjgiUCmUrbBOE+/QBSKdECE
CK/BK6DKQMTDRUA4w5vB99+CQKLcWUBYyZjBO4zXQHestb8jTqfBs2jjQDrsCr/J9bDBMCiqQCPn
ir8kcqPB6qqvQJTI30BjP4rB/ELhQB6ccj8bC67BGVWnQAojxz7nOKDB9TKfQJz2uEDQOYTBOe3O
QGhLzECLN5LBsU+0QMwoqz9HqKnBHzHEQEtjmECW+oTBciSyQLTqNUBtHabB/Vi0QPjNV0DNkYjB
PHyrQKKLU0BwGpTByaaFQNpcSUCxBqPBDxY5QGo2akBymJPBbr/wQFY8OkCX65nBa5/jQC1bqkDY
VYzBbWXfQEFNykBmu8XBxHgLQVOmrUC7b7nBXLyTQHvyskCJ2sPBO28BQZdMdUDUFavBPrl+QJ7v
fkA0obXB/fPYQHihHsC5pqnBwmbuQEsQnr/gxqDBEQ8CQdznSb9rjLPBBujMQBidPr8NiLfBb0CT
QOhIpL/U76nBzEeiQPZx279qgJzBxHeVQCV98EDkYY7BowHAQIMr9kCH0oTBlnb5QOW+lD9G46fB
FgjoQG/XxT+yO7XBBUCGQNd/HT9/0p3Bd/S8QFxBET84bZnBKV2YQBsNwUC9qnfBNRaCQIZCrEC1
BIjBadO9QDByv0C0NJnBBnLmQHM85ED/3pTB5/acQP3cmD+jJLDBAKTSQCgnlUCQ/XnBoQ/NQFot
KEAnnYbB+MSWQISZSECUMYTBZL9ZQKjfSUCYFqjBlyoCQF/GaUDks5fBMrI4QFhydkBAvovBbCfW
QOdxq0B/aMDBhN/zQJ7Wp0CkA7jBgQKvQOJSlUCW37/BfJnqQDUZjkBPF6/BOTWlQKNxeEDK3LbB
K6bCQBwucUA4Q67B9DrMQF4bVkAEb5rBVyyDQA71WEDSj5jBrw+2QBOlvr9orq3BTIO5QCf+jr8p
v6HBpQvRQGJnCL+rkbTBWuECQUmKgkCR3mfBBcKrQB39rj6P15/B0RvDQJxXbT9V2bLBxIrWQHtN
fkCraW3BUT4MQclkm0BN3HrBNCvGQNKIqz+P2KbBgWrYQOIvdEAfzoLB9/W3QG/aNUBtvqTBN+yt
QL6uhUCcc4jBO3+qQP3iZUBkXJPBYqaJQLq8PEBFWKLB6cM1QJ1GZkD0IpTB/L3yQIPNVUAClJjB
Wk76QMQAl0APJIbBfl/dQF0xv0DlQ8fBVPIIQfnhuEBmbLjBj3KYQLael0CVZMbB5AUBQdKfikCg
zajBYvqGQE0VV0Bge7bB1KfBQO8pIcCS0q7B/mGUQKlYtr/9L7DBjq+kQKxQ5L9bEZ3BQuDaQIYS
n7+WIJ/BCfHyQOooI78kWbLByO3MQPlsS7/QDb3BFTUFQSwllEC5zljBDTUKQQtLRUB6iWbBUqaJ
QAOf4z7y2qHBIZ2wQGTPFj+NWpfBZvfXQMDjyj/SmLfBqMuhQAFmhT/NibXBPrHHQAJNRkCpwWXB
GAXFQG4/nEC4ymjBBTcOQQRWvUCgonbBCNYbQaDijUC6cX/BGObnQGlwoD9HbaTBwejgQEe6MUDe
yITB5C+TQKFnc0DWkoPBZsSrQDa4qECKGonBwKhkQEPaLUBQf6fB9j8BQBRAWkB4dJjBglgwQIDg
e0DzoozBSOjQQNWHtkCO8b7Bqw3xQCYErUD+crfBIPioQLDzoUAFSb7Bm0zpQIQHj0CKSa/Bv+ig
QONChECPEbbBJ7fAQMK2dUDeVK7Bk5vMQPyBTkCoEJvBpNeDQDczV0DaJpnBOym5QOqXy79a6KnB
stbZQN8ke79QMaLBxqizQEOVMb+Tz7PBzxfqQKAV0EBvp3jBhUbLQCqq0z52uJ7BVu+lQFoCOj8J
obDB2jfRQDWspkDWQ3bBZZTdQPtC4ECGk4fBFiHGQCKIrj/onajBKYnQQHiql0CPkobBQoK3QKgA
NEBEaKXBVQewQJomaEAKbIjB+yerQJEeWkDb6JPBgmeJQMkPNkCwqKLByY05QG/6cEAl9pTBaRjz
QGVDTECBIJnBgdnGQFaOvUAJt4zBWN3WQJ6czUALM8XBgeAHQVbBvEBw9bfB/WiQQNv2qEAYG8TB
mTgBQag/h0ALsKnBajSCQAX5aEDCprXBYFzEQOlbJcCnc6zBWS6aQL5L2L9LzqXBztPcQGAW0L/4
GZvBYg35QGnKZ78XN6bBdkTSQN4wJL/wIrjBhBObQHWnkL+ODbnB7KvgQKNK50ClSWzBmF4GQWwz
ykD2pHfBVlasQDZ5qT5Pk5rBEzfjQGC2Vj9FPZnB0FekQKIGrT/V27fB/SSGQF+bLj8a3qzBnePh
QEfRj0CsymvB3bywQKlYrEBpGnDBrs/IQGaQ/EAK7obBRWv6QI+D6EBKLozBC2jlQGqCuD8Em6zB
NIPwQKm5i0DruIjB2U67QLfnLEBkmITB2geRQLO9ekDE9YTBqrtjQAYVIUDlZqfBjjAEQHa+akD9
TpnBIqI2QDbkhECImI3BTnPVQOhYrECrL8DBwaP1QCneoUD9xLjBmUysQK6ymkByF7/B8H3sQLyw
hkAgFrDBPh+jQKxCfkA+f7bBfrjCQHSra0DRpa7BojfMQOh1VUDzmprBtmKDQGjRWECSgJjBGd+8
QIHxtr+0Oa/BhOOiQGPzi792KaXBqz/mQFQDGb+FmK/BTfinQAJr7UCkAZHB9u6XQNzPzD5i7KTB
dRDcQBTvZz+Ncq/BwPWTQLFVykC3RorBfz7OQDzw1kCOB5bBARnBQG8doz/kfKXBw1y6QNnMrUD1
F4fBEQu3QA7hNEDvvKTBt+KwQMjuekAvN4jBcRCrQOauYEDOZpPBT0uJQNbaREBKiKLBxng2QEhy
YkBG7JPBRXvyQAwWVEAfaJjBeWLeQFIbu0Cqt43BaFbcQO3rwUBwtsbBC74KQWK4rkCyvbnBJrWT
QKJQokAZ28TBHr0CQe4wfUB8eKrB476DQNu+YUBQ2rXB6R7FQGDoH8DSI6/BdoGpQFd6mr/0WrbB
qReFQOXp1r/jLaXBcM61QI6HrL+SBp7BGhj6QL6WWL/CmqjBE+L3QNKqVr/P9rbBBJWRQDnZ+ECn
KpfBlDeyQBBABEG5AIzBx1qDQA1OIz/1zavBZMCGQB5eID+odZ3B0zT6QE6ivD/oRq/Bpf/JQFVJ
lT8StbbBqViEQITL10CqJIPBXNl4QHcMuEBR9Y7BQUnEQEs3xECoDZ3Bv77mQFJU7kAabJjBHHnU
QPr6gj+5a57BJO7BQLdEtEBFTn3Bkc/LQB+9VkAAzYTBZ3uTQPkLbED6v4PBB/hjQHfnQEC2/afB
AeMBQGEDWkAGXJjBbywxQPnRcUB7L4zBpU3VQO6itUCIDL/Bs5aqQDinqUCYJL3B4mD2QMrmo0A+
17jB8s2gQJBcjEAl87TBVcvsQIZQhkDetLDButPBQAx+dUDkga7B/q7MQHIYUEBSKZvBQzeEQO8T
UkCV+pjBTMCzQM6Xxr+XmKnBtT/UQEK5fL9Fm6HBRRSyQBzTLL/ntLPBQdznQCh7x0DITYvBh/TH
QPRf4T7kfp7B//6lQEZERT+857DBjAO6QBjJw0DRGo/BNqHjQPhOw0AkM37BAG7FQFa1rz9Si6jB
F1WmQOwCpUDG24bBdpi3QNYyNUDLhqXB3HaxQNSnakAumYjB2sGrQDacUUAAv5PBGJqJQDrdN0Bh
z6LB2Bk6QGdaaUD8oZTBRynzQBxrU0CTQ5nB1Da5QGj8sUD+uHnBsbDcQGZvzEAuRsXBqjyRQOH3
tkDy+sHBy5cLQTcDrUAsUrrBLOZ/QNg2g0A9jbPBqTUDQYiNcECTF6zBrja9QD60JMDl1KvBy+aT
QIRQyb9Y2qXBE7PUQBQrz7+jZprBOTj0QFWOe7/PSaXBYLDRQG2XLr8AlLfB7BKaQJLzir/8PbnB
lbf7QDecrUCBnY7BN671QKqb5kAuh43BGYuoQIMn2T7HhprB/R7gQL1xVj978ZjB5P6mQLrAsD/l
OLjBMWiFQMnWSD/FlK3BN92pQKkO40CJ947BD224QLpUtkASOpfBpl38QDuMrUCSAHjBmSbnQMjm
4kArpHbBYHLlQO+ytT+GLqzBxV2DQNEEqUC9tYbBXAPTQJzkX0CqTIbBXHOcQPgzQ0Doi4PBxNBj
QELXJ0DRzKfBmR4FQAaeZkCEG5nBgaE2QO/cfECgBo3B

>  <OMEGA_E>  (2) 
XkorPxwyKz/6uTM/DHEzP+ZeMz+MKy8/vBkvPzwJLj+k+S0/vCotPw==

>  <OMEGA_NBR>  (2) 
     13253

$$$$
50158056
     RDKit          3D

 52 55  0  0  1  0  0  0  0  0999 V2000
    6.8423    5.7403  -23.8228 C   0  0  0  0  0  0  0  0  0  0  0  0
    9.2551    5.8481  -16.4262 C   0  0  0  0  0  0  0  0  0  0  0  0
    7.8090    4.9176  -23.2144 C   0  0  0  0  0  0  0  0  0  0  0  0
    5.4866    5.6115  -23.4685 C   0  0  0  0  0  0  0  0  0  0  0  0
    9.2337    4.4456  -16.2891 C   0  0  0  0  0  0  0  0  0  0  0  0
    8.0672    6.5469  -16.7264 C   0  0  0  0  0  0  0  0  0  0  0  0
    7.4224    3.9712  -22.2460 C   0  0  0  0  0  0  0  0  0  0  0  0
    5.0961    4.6722  -22.4960 C   0  0  0  0  0  0  0  0  0  0  0  0
    8.0226    3.7433  -16.4407 C   0  0  0  0  0  0  0  0  0  0  0  0
    6.8584    5.8427  -16.9045 C   0  0  0  0  0  0  0  0  0  0  0  0
    6.0636    3.8497  -21.8578 C   0  0  0  0  0  0  0  0  0  0  0  0
    6.8316    4.4383  -16.7566 C   0  0  0  0  0  0  0  0  0  0  0  0
    6.3718    3.2031  -19.4535 C   0  0  0  0  0  0  0  0  0  0  0  0
    4.1040    3.3306  -19.1175 C   0  0  0  0  0  0  0  0  0  0  0  0
    5.9230   -1.6363  -20.8754 C   0  0  0  0  0  0  0  0  0  0  0  0
    7.2403   -0.8460  -20.8477 C   0  0  0  0  0  0  0  0  0  0  0  0
    4.8987   -0.9402  -21.7893 C   0  0  0  0  0  0  0  0  0  0  0  0
    7.0073    0.5985  -20.3819 C   0  0  0  0  0  0  0  0  0  0  0  0
    4.6300    0.4978  -21.3137 C   0  0  0  0  0  0  0  0  0  0  0  0
    5.9394    1.3453  -21.2503 C   0  0  0  0  0  0  0  0  0  0  0  0
    5.6607    2.8419  -20.7601 C   0  0  2  0  0  0  0  0  0  0  0  0
    5.5631    3.6589  -17.0615 C   0  0  0  0  0  0  0  0  0  0  0  0
    5.3662    3.4585  -18.5196 N   0  0  0  0  0  0  0  0  0  0  0  0
    4.2369    3.0345  -20.3894 N   0  0  0  0  0  0  0  0  0  0  0  0
    2.8757    3.5025  -18.4897 N   0  0  0  0  0  0  0  0  0  0  0  0
    7.5849    3.2690  -19.2841 O   0  0  0  0  0  0  0  0  0  0  0  0
    7.1409    6.4698  -24.5611 H   0  0  0  0  0  0  0  0  0  0  0  0
   10.1820    6.3882  -16.3013 H   0  0  0  0  0  0  0  0  0  0  0  0
    8.8488    5.0125  -23.4907 H   0  0  0  0  0  0  0  0  0  0  0  0
    4.7439    6.2351  -23.9439 H   0  0  0  0  0  0  0  0  0  0  0  0
   10.1451    3.9101  -16.0679 H   0  0  0  0  0  0  0  0  0  0  0  0
    8.0834    7.6227  -16.8199 H   0  0  0  0  0  0  0  0  0  0  0  0
    8.1671    3.3321  -21.7950 H   0  0  0  0  0  0  0  0  0  0  0  0
    4.0531    4.5755  -22.2328 H   0  0  0  0  0  0  0  0  0  0  0  0
    8.0030    2.6707  -16.3155 H   0  0  0  0  0  0  0  0  0  0  0  0
    5.9536    6.3771  -17.1539 H   0  0  0  0  0  0  0  0  0  0  0  0
    6.1168   -2.6505  -21.2547 H   0  0  0  0  0  0  0  0  0  0  0  0
    5.5157   -1.6979  -19.8554 H   0  0  0  0  0  0  0  0  0  0  0  0
    7.9403   -1.3381  -20.1564 H   0  0  0  0  0  0  0  0  0  0  0  0
    7.6726   -0.8322  -21.8591 H   0  0  0  0  0  0  0  0  0  0  0  0
    5.2919   -0.9128  -22.8162 H   0  0  0  0  0  0  0  0  0  0  0  0
    3.9564   -1.5075  -21.7725 H   0  0  0  0  0  0  0  0  0  0  0  0
    6.6626    0.5809  -19.3374 H   0  0  0  0  0  0  0  0  0  0  0  0
    7.9588    1.1470  -20.4447 H   0  0  0  0  0  0  0  0  0  0  0  0
    3.9293    0.9781  -22.0125 H   0  0  0  0  0  0  0  0  0  0  0  0
    4.1807    0.4622  -20.3103 H   0  0  0  0  0  0  0  0  0  0  0  0
    6.3376    1.4118  -22.2735 H   0  0  0  0  0  0  0  0  0  0  0  0
    5.6257    2.6750  -16.5737 H   0  0  0  0  0  0  0  0  0  0  0  0
    4.7016    4.2129  -16.6604 H   0  0  0  0  0  0  0  0  0  0  0  0
    3.4731    2.9493  -21.0292 H   0  0  0  0  0  0  0  0  0  0  0  0
    2.0288    3.4011  -19.0116 H   0  0  0  0  0  0  0  0  0  0  0  0
    2.8391    3.7277  -17.5160 H   0  0  0  0  0  0  0  0  0  0  0  0
  1  3  2  0
  1  4  1  0
  2  5  2  0
  2  6  1  0
  3  7  1  0
  4  8  2  0
  5  9  1  0
  6 10  2  0
  7 11  2  0
  8 11  1  0
  9 12  2  0
 10 12  1  0
 11 21  1  0
 12 22  1  0
 13 21  1  0
 13 23  1  0
 13 26  2  0
 14 23  1  0
 14 24  2  0
 14 25  1  0
 15 16  1  0
 15 17  1  0
 16 18  1  0
 17 19  1  0
 18 20  1  0
 19 20  1  0
 21 20  1  6
 21 24  1  0
 22 23  1  0
  1 27  1  0
  2 28  1  0
  3 29  1  0
  4 30  1  0
  5 31  1  0
  6 32  1  0
  7 33  1  0
  8 34  1  0
  9 35  1  0
 10 36  1  0
 15 37  1  0
 15 38  1  0
 16 39  1  0
 16 40  1  0
 17 41  1  0
 17 42  1  0
 18 43  1  0
 18 44  1  0
 19 45  1  0
 19 46  1  0
 20 47  1  0
 22 48  1  0
 22 49  1  0
 24 50  1  0
 25 51  1  0
 25 52  1  0
M  CHG  1  24   1
M  END
>  <OMEGA_C>  (3) 
+PPaQFWwt0Aglb7B9BQUQUoju0DZaIPBp+P5QC5dnUAUt7nB05GvQLiRs0Bmv7vBGL0TQTdCjkAG
UILBJBMBQW+A0UCiz4XBsITtQGwnfkDp97HBBROjQKyClUDn97PBllwAQYCRb0CfhoPBu3fbQKT3
ukCAPIfBDAnCQD9idkC63K7BVJzaQEIGjkCWDYbBBebLQOv+TEDYoJvB3FODQL8nVUC58JjBRom9
QLdz0b/LAKfBjbDnQHGQWL//x6bBX8KcQLOycL9zUK7B9jvgQB45GT8XDqPBSCmUQH7b/j6LgqrB
TQ++QEMyrD+FAKrBiyS1QIzhNUDIFKbBvQSyQNgrakD/fYjBurerQHZXXUA7KJTBnJSHQOw0QkBu
HaPB8gs4QJcpYEDY6pPBrLfyQOM2UUDjRZrBJoLkQFkIz0AlfcTBRukiQVdszEAcaYLBnZQNQW9m
oEDp7LvBNM6XQBqGx0Acjb/BS1IiQVA+ekAWi4DBg1UBQY7t80Atj4bBl6wCQbJAVUA9XK7BMbOB
QONqkkCz3LHBHgwAQRjtKkAlhoLBgIO+QN8QzEBKO4nBoLzDQHOiKcCTCarB44CwQE5V2b/l157B
uRb+QINFq79AQKHB8YX1QB4LVb9Y367BXFepQFatab+rh7bBTTZ9QBr2wL/9La7B3jPVQLqyFD8X
s5rBT67+QJXPkj/LjqPBZ3l7QFFkej+OGbDBRsiFQGqi7D6Re6LB4s3KQHG2tD8OMLLBagW0QCsz
K0DwloTBmHOWQHjQhkBpSIXBDEheQJvAPEDiO6jBFdgBQOSqWUDOF5jBd7M1QFmTbkDeIIzBEcHV
QAQotUD1n7/BMtnyQGR29UBRAYbBOz70QLUerUAIm7fBdTGuQLqin0AycL/BMEsFQeYjz0CYv4XB
lebFQC4W9ECo+obBeijrQJLSj0AOYK/BhrakQE+8gkCzHbfBNVv1QHd6p0AbXobB2qewQCJjzECf
xIfBA7zCQOUSdkAL0q7B1FHIQMHppUCFY4fBUxfNQK1WUkB/JpvBfReEQMaUVUAK+5jBa9izQGHG
y7+v76jBUGPYQLyxeb+zXaLBJoiqQBNzPL/U6bLBw3bNQAaW7T76B5/B/aSfQCk2Nz9L0K/BzdfD
QMLUrz/w7ajBvuC3QMQLN0DrqaXBVdSxQFkrdkCpj4jBHOKrQPoJYEDx9JPBWMmJQEKNPkCn+6LB
kkU4QD92YEDvR5TBFWrzQPQsUkAhBpnBcavcQHfNy0AT68XBcIkBQeryCUG8dIXBvVcJQbZ3vUD4
w7fBQQiXQH9KpUBzscXBdoMWQZ4w0EDWE4XBbrmzQNW8CEH8HofB2JYBQUEFiUCJZqnB2VCGQFSW
ZEARDbfBXMYDQdEeikCvD4bBiEuOQGRpy0CAqYjB2wy9QHDDJsBVdqvBXd2WQBuL0r+g9aPBIKDd
QJqWyr+TJZvBTrv1QFx/d7/bOafBF+/GQGlGPL+ZHLjBzkaPQDv0lb8uQrfBRxqxQBbb4z420pnB
vLzoQC/HYj+xm5rB+EebQJIgpz/+KLfBC7yBQC/+Nz+JLKvBhPjgQDtYtT+/263BuDzFQPNAREA9
sYTBzVaSQNyseUBIp4TBIgFkQF1zM0DrJqjBcScDQLChVkAukpjBzOkzQD4eckBcnIzBJOf9QErp
90BDWovBAefLQPQjpL/4A7HBV74KQTwJ20DioZHB0ubQQDvZ9UCaQ4vB1q3XQBDG0b/lgabBPGOz
QNrA+b0O0rLB5g0AQZPQu0CHsZfBUEq7QFSq10DZp5HBKevLQKooUb+B053BWMGmQPc2Lj/ZHqrB
nKPSQMsrukB7ApjBvy60QMQmuj66nZ/B13XLQAquWED67ZzBxe6DQKMoYUC3sZjB1cPkQLdZoEBD
q8HBHVbqQELDyEB707rBScm5QHikikAGFL/B2cDoQC10vUCu5K7BdZC2QMR2fkDKIrPBFyq+QLeq
pkC0savBWIa7QCC3mUABYJ/BMRSoQGIooD+jL5bBZhSoQPcCLEDkFpnBtoWNQC+clkAkgJzBJTY3
QGJHSkAu8ZTB5EXvQHk7O0D7i57BtiMHQaPVB0HwmIbB3avVQDAF879nrbfBJP8bQSbY3EBvzJHB
Idu+QJjCBUERRYbBobzpQHu+IsABG6XBRUyqQH5XGz4d3brB1TwJQUWypEAJL5zB+7yYQK341kA6
uJHBuBXVQNKoi78RypXBmrCSQCGNxT/peavBHGzlQAowqUCBL8rB8Q3/QKH1iUCd9r/BP7MEQW6U
10APrLzBuXXQQFJy30CjrbzBFY6fQEOVoEDYKcHBkPC2QOpZWkDJ1sPBBNkBQQAPqEBLCK3Bp8jr
QDoY20AqNarBh2+WQB+sZECMi7HBqLjOQHNvTUAySrHB0PqjQC9rvUBnMK3BoN+HQDT2eD/aa5PB
8kC/QNaQiz9LsI/BU+9wQAh3rkB3Wp3BBn4HQH3rdEBSCpXBtPYsQJcxD0CwJZLBhFYCQd7i8kAa
K4jB6bHQQNpimr/E17DBds0FQbmnxkBiEYfBFRnpQCIfAUFPNJDBh9TVQK6i0L+UKabB5Em8QIaA
nDysErPBt0j3QJm/qUBwBY7BIbnUQGZk5UCUNZfBXkDHQFZpUb/1sZ3BbgCtQNDJUT9IoarB+hzc
QATAuEBBWJbBimmzQNyp1z4w4Z/BaovPQBKAVUAbqZvBOpCHQDuRakAwDZnBLxLCQHMlnECv88HB
XtbsQAGtkUBCd7zBwJGqQFXqv0Dj27vBPtzlQJyGhEAxwrDBd4OiQGraskCpJ7DBpfHMQGIip0DZ
O6rBx8fEQOXSmUASAZ7BTPOjQK4spT/tqJbBPgKpQCDALkBECJnBYq+WQCChm0DhLZvBbn05QJok
WUB785bBG5zyQL4jMkDGFJzBlD8KQcuIBEFl2oLBdmfcQLIM6b8JUbfBCEsQQXzeukDg3YDBxozj
QFsaEkEzAJHBFPPkQDD5JMBnd6TBJ2C4QN8wsD4OQbvBXFn8QDjKh0D+CI3B9kq/QD9g8UAjSp3B
6kLLQFJ3kr8hhZXB+lOcQMzF3j9WXKzBjEDIQBW5pkCnM8rBveytQH2SfkAvFMLBE2r8QOhmbkBk
w8DB4sYAQcgdrkB3t7zB8zW+QJge3UD6ArzBc7KLQEk1xkBkyL/BSoLTQM39TEDTlrDBHKACQbXf
fkBJ/KzBeiSTQFSwzUC886vBOh+NQDfnlkBTCLDBnufgQDIfxEA6F6rBVOmBQAoiij/+L5XBAp+2
QF/bhT8Odo/B212FQNiEtkAg7ZrBpoIOQPtHhEAdAJfB+OEmQFIxHUAmZJXBzQ4aQVnZpEBYlovB
AkXdQHQV2b/Km67BTdQaQb9GgUB2dJLBiewHQaCSv0BDjIvBtPy9QKuggb/Xn7TBikffQHMhw78C
bKPBsGoJQTkrcEB1LpnB69zsQKGBtkBtSZLBBZWgQFHmJL7JdK/BlQDCQCZ9K79iPJ7B0XHtQHIN
kkATCZnB9VKiQIBG/zswOqTBmvvBQKrvMUA9u6LBzMWGQEBcYEBbfJnBpfPMQAAYrEDN0sLBXCn0
QAqxtkAu17vBzjijQPlttUDzsbzB7mTzQOoenUBDVLHB9z+hQNhum0BJQLLB9NnIQKZRpEAv8arB
pNvGQJWviEB9ZKDBg06GQLYXhz+B3Z7BVaKaQPi4GUCHV57BtueeQMVwkkAcfprBJ1k+QE9qX0Ci
Z5TBKH/aQFyXBkB6I6jB1VwnQaatq0BaWIbBu7XzQPV5FsAlkrLBUdEoQSH7WUDYj5LBbGsHQVgd
20C2VYbBsI28QEAqkr/hMb3BxUP3QAoVA8Dw0p7BjTsKQbn2OUDlhp7B+2XRQAV8y0CxT5LB766I
QG4buj6CE7TBiMTDQABWCL9orZXBmuDNQA+/v0DbHsrBSNrNQM4DikDiA8XBcroIQSaurkAOSsDB
mwD0QGoX2UCy+bnB2MuhQLe/10COxbrBqsOHQBXMrEDOwsHBKIT2QEe6dUAmMrPB5UIHQcFKp0DX
VKzB7vmDQDQppEDj4K3Bk2WgQGxMckAFPLTBxbrHQP4yxkBVkqjBQIRQQOXjkT8XZqPBepZ+QF0K
OT+UqZbBZUSXQFhZr0CCpJfBZsYmQAicikClOpHBe/wcQJ7uKECG7ZPBdpgQQfXn0EALjIrBW4fZ
QLqPuL8ZtLDBIgkWQTgVqkDZgo/BEOX4QMGK40AQdIzBP4LSQDYY8L+PHKbBidzHQASzZr4DO7TB
xkkHQfyhlUDGQpbB+B3bQL8Hz0BxLpPB5o27QCIxiL8z4p7Bdw6vQPsUDD+GLK3B6xflQJwop0D/
+JfBaL+qQFzKMT7tTqLBqBnIQNLPQEC2CZ/B6Y+FQN5YZkCo1pjBY0XSQNVSmkCrvMLBDxH1QMFB
r0CRwbvBpaGlQLdnokDT7b3BPW7zQIYCnkAmOrDB+/GiQEUxkUAqarLBGlrGQHVhpEDsCKvBYBHE
QME2kUCOV5/BOaSUQLnYjD/bUZrBVhygQKQXIkCC4pvBe42YQBbel0BT5JrBNsM5QKLhXkCQa5TB
GkHnQM/UFUDMoaHBM9wbQfdy4ECXRYXBOnPsQOHBAsAOGrbB9pAlQWD3m0BwIo7BxsfwQBPXAEFI
vojBwb/eQAJKNcDBhqPBw1TNQIo/6D3lUbzBcbwLQdFpcEBqNZrB/na8QDHL3UASs5TBY9i2QNPi
sb8Bu5bBUyGfQNSetz+yErDBs5jTQCYIqEDh1crBtBDYQCNKb0C5KMPBe1YKQQ87qEADNb/B/vrv
QEoV0kCRnrvBP0qfQD8HxUC/3b3B/XONQAcxkkBC4MLB3v36QMlEd0BhVrDBILEFQXELr0ChYqvB
mmuDQNRomUAEFa/BA5mmQMJhXEBum7LBnJDAQOsCx0C+aKrBt51jQBrufT8cPpvBwQCeQI8PTT+E
LpLBCVeLQNaPtECcnZnBJkYYQMu2iUAjmJLBDMIgQKb3JEDREZPBQia8QPpD9kBMU4fBUu3PQBq8
wb8p1rPBiuiqQAIrzkAwjoTB+tTJQCjt/UCW3pHBut2lQEcquL/iy6/BHjTxQBZXTb9cxa7BjB6n
QNXLrUCfVYzB8jnGQFyl3UDeqZnBkBidQJiSKL/SqKbBsHjoQCtuprxao6XB6my0QCwRtUBHCJfB
aHO+QPgVLz1ke6HBAljIQPJ/UkD025vB+O+AQDAlMECUnJzBkH3dQFuek0ABQ8HBbM31QBDVrUBi
xrjBBOGsQLjPlEBFMb/B9CTrQBJ2nUDMhK3BsgOiQI10hEDU3rPBbty5QNAqn0DmPavBGPauQETM
kEAhW5/Bnvq0QFY0Yj8BpZfBpG6qQN+5EUBcjprB3CeCQFtjgUDftp7B+EQ3QGqK/z+OMpzBpK7u
QGQJTkA10JnBbd6+QIaPB0FnXIHBvqfWQAVmB8A/z7rB34+gQOs1yEAJ5XjBxCTXQNhVDkGU/ZPB
Q1qMQKFf/b/Is7PBMbIIQW8fW7/84rHBjO+ZQJkWj0DPIYrBkxPRQG+440CTuaHB3qJ5QPS8GL+b
nKPBMfgAQW8CCD/dz6HB1hXkQDUVoUA+OcnBWY3oQEhxZEAS+sDBQTYMQWfGqkACK7rBo3LsQFOr
z0CxarnBiX+hQPz1tUDvAcDBHbOcQKV2gEAmIMXBQyf2QE1QeEB0yKzBXNT7QCx4sUDamafBRZ9+
QAAlh0BNj7LBgberQOt1RUAzL7PBYJivQLupwECvGKzB2rCZQEzt4j5KWJPBFknRQB9zYj/raZLB
dq9QQP3Zk0AhvZ/B5j79P/eIG0Cji53B/UA6QM9rgj83jZrB0128QFTj9UBW0InB0VLUQFh0qr/i
5rLBNc3gQMw45UBD747Bh3SUQGia4UAPA4vBUe+oQDgtn7/u36/B0zz0QEBbOr++jqzB7QHdQJ5U
wUDOnJXBJXqQQEiqvUAgsZHBkXSdQACoDr+QeKbBk8/oQACJOb0aJKPBqYi0QFQ8rkAUZZfBJXe9
QABC6DzmBqDBp/3HQIAlSECMNZzB7YGAQJhBKUBgap3Bk3zUQNQvnUDWl8LBoyv4QIJ1nkCcJLrB
O7urQBwPs0DIZL7BPXrpQGgWikAmkK/BA3KcQJgfnkBR7rPBX+e/QPRWn0DEMKvBVz6wQODOi0BO
CaDB/yKxQKDPVT/EWJbBiW2oQKAnDUDOzJnBd5ODQDBQeEDKzaDBwpo1QKCt9D/sL53BNyfuQAiE
QECyHZrBEga/QMspCUES84TBKB/dQJJw7r+bGLrBLaj/QCUG9EDAuo3BgahxQEuu7UAAyobBO4iQ
QEbp2b/qxLTBYbUKQfYeSr+s7K7BtB75QLEwtEBmapnBUeNjQIzJrUCme5LBNm54QF8w9b7JMKTB
45kAQeo32D7TS57B/XDfQPzjrUDB1snBlDLNQOtNd0ATjcTBwwsKQRDLjECALb3BN5QAQQr5v0B8
qbjBr4uyQAAT1UAR57zBtVeSQO0/sEDMcsTBF1fjQI+yT0BG6bDBy4cBQULNjUAvl6nBziWAQOds
r0D7+7DBa9yTQKYyeUBlirXBfV7HQNc4wUCMtKnBz1OUQGRfzz5rpJLBP4XLQPfAVD+HhZDBuAtW
QGB/jUAljKPBt/L9P2rEFEBKup/Bvuc1QAVweD9xe5rBqRO9QHC490ALPIfBuYLQQOCOxL9siLPB
X3u/QFdszECdO4TBati1QJFSAUF4/JHBniblQKzY47/ssqnBk1SyQOJc/b4fX7TBdEO7QKIKrEAm
/YvBw4KxQMlr4kBDxJnBH/TbQEOKeb//uaDBms6oQCCGmj4yZavB62y1QHJotkCr9ZbBMSy+QP14
rD2djaHBUg3IQG5GU0Cq+JvBwDiAQL6SNECTJZzBb/HdQF4jlED/GMHBI2v1QK2or0DStLjBlU2t
QAcDlEDwDr/BVRzrQAInoEBZVq3BwSWjQBKvg0Cjs7PBcti5QMvFn0CQMavBhAavQCf4kUC0PJ/B
DFizQBi5aD/gqZfBNIapQEFrFECFRJrBqhSCQCOEg0BxVJ7Byjo1QL8eBUDyrpvBrX7uQDjVTEBO
H5rBpMfAQKdCCEHvSYHBudXXQDtZCcDJa7rBxJTEQOr8w0BI53fBrZuzQFjxEUGlSJTBhgn8QBRx
JcDECKnByHyiQH6bnb4w57vB6Xq8QPDiikDIkYnBTSKrQPYm60AU+aHBOLnrQJh9lb8BMpnBVxSR
QPelij9JBKzB5jTkQJFAoUDSHMnBGv7pQD04ZkCAqsDBChAMQV1brUCJDrrByzfrQBEu0UA5jLnB
QfCgQBzItEBY77/BQLedQGkDfkB98sTBO6v3QOQKf0ALUqzBPZT6QPymtUCJiqfBoV2AQEvzhEAA
Y7LBf0iuQCngREDy67LBFT2uQOvAwEAjNqzBSVCXQIG17D4MuJPBRdfOQGh0Yj9KLJLBaR5RQKt3
lkCuP5/BuNj5P697IUAjD53BknQ3QCdGjT91+ZnBLT/AQFBx90AAm4fBQ1DRQKQvyb9/frPB14nf
QIAQ8kDol4/BA/ScQEKP20CmJ4fBy+ziQAhG7r+LYKnB0561QABm8b58vLTBL2rbQGQH0UCGMJfB
+3KYQFjUukCbzI7BYwrZQNQDhr8pgqDBe5qrQEDKrj5u4qvByxC3QMjNtUBSHpfBa8G9QIA5jz1z
t6HBezzJQKzOUkAVWJvBA5mBQOAqNUCIO53BM7bSQLJmk0B/esLB7aH3QAzYlkB+Y7rBh7erQFZK
rUDyo77BqXzpQCzeh0BMOq/BAbScQOidnUATmLPBwz7BQIykoEAiI6vB90myQPCZkUC8c5/BURey
QNDdZT/y5JfBP9+pQFhAFEA1eZrBvwOFQJw7g0Dvvp/BVKI2QHjXB0AhT53BKyLvQFjmSkAk95jB
C1XDQAN6CEHy04HBeAzZQBdcDMCPSrrBRcT6QCaoA0H35Y/By0aFQCtJ30Ao7oDB3AT4QKlYLcCZ
aqjBEg6oQEmBgL4PfLzBIx/0QJBgzEAvHp3BUvB6QN5OpUAUWI7BCmLmQDuLo79BwZjB3/2VQIJ5
lj8m2KzBsWTdQIXun0CjQcrBWoLJQB42Y0A7WsPBPDMJQczCgkA+Hr3B/RIBQaxhuECd6LnB3Y+0
QEVKz0BnF77BDnmRQBF3qUAubcTBTNnhQBETS0A0l6/B7/oBQVoNjUAbk6nB2KGBQHd3sUAy8rDB
N1SSQD4seEDyQrTBpEDKQFmRwkDHearBYBqVQO9P8T5EQJTBBrDMQBp9WD8hJZLBIZFYQHAblkBr
nqHBfzQAQMgvJUA7X5/B7/01QHXJkz8gTZvB

>  <OMEGA_E>  (3) 
ZqsvP3TSKj+bkYw/o6iLP37Aij/yRIg/mhOEP25nhD+0LYU/K0KGPw==

>  <OMEGA_NBR>  (3) 
     27351

$$$$
50158059
     RDKit          3D

 52 55  0  0  1  0  0  0  0  0999 V2000
    6.3822   -1.3159  -21.9358 C   0  0  0  0  0  0  0  0  0  0  0  0
    7.3030   -0.7067  -21.0658 C   0  0  0  0  0  0  0  0  0  0  0  0
    5.2212   -0.6249  -22.3273 C   0  0  0  0  0  0  0  0  0  0  0  0
    7.0687    0.5962  -20.5932 C   0  0  0  0  0  0  0  0  0  0  0  0
    4.9806    0.6767  -21.8542 C   0  0  0  0  0  0  0  0  0  0  0  0
    7.8379    3.9072  -16.3284 C   0  0  0  0  0  0  0  0  0  0  0  0
    6.6906    6.0187  -16.7789 C   0  0  0  0  0  0  0  0  0  0  0  0
    9.0985    5.9905  -16.3707 C   0  0  0  0  0  0  0  0  0  0  0  0
    5.8954    1.3031  -20.9749 C   0  0  0  0  0  0  0  0  0  0  0  0
    6.6581    4.6176  -16.6283 C   0  0  0  0  0  0  0  0  0  0  0  0
    9.0637    4.5855  -16.2449 C   0  0  0  0  0  0  0  0  0  0  0  0
    7.9076    6.7091  -16.6173 C   0  0  0  0  0  0  0  0  0  0  0  0
    6.3117    3.1045  -19.2176 C   0  0  0  0  0  0  0  0  0  0  0  0
    4.0589    3.4730  -19.0244 C   0  0  0  0  0  0  0  0  0  0  0  0
    6.7203    5.0457  -24.1998 C   0  0  0  0  0  0  0  0  0  0  0  0
    7.8081    4.6854  -23.1670 C   0  0  0  0  0  0  0  0  0  0  0  0
    5.3571    5.2958  -23.5280 C   0  0  0  0  0  0  0  0  0  0  0  0
    7.3722    3.4970  -22.2935 C   0  0  0  0  0  0  0  0  0  0  0  0
    4.9411    4.1015  -22.6509 C   0  0  0  0  0  0  0  0  0  0  0  0
    6.0328    3.8338  -21.5812 C   0  0  0  0  0  0  0  0  0  0  0  0
    5.6275    2.7498  -20.5217 C   0  0  1  0  0  0  0  0  0  0  0  0
    5.4059    3.8520  -16.9415 C   0  0  0  0  0  0  0  0  0  0  0  0
    5.2958    3.5840  -18.3880 N   0  0  0  0  0  0  0  0  0  0  0  0
    4.2021    2.8743  -20.1775 N   0  0  0  0  0  0  0  0  0  0  0  0
    2.8422    3.8965  -18.5121 N   0  0  0  0  0  0  0  0  0  0  0  0
    7.5214    3.2570  -19.0870 O   0  0  0  0  0  0  0  0  0  0  0  0
   10.2056    3.8812  -16.0705 F   0  0  0  0  0  0  0  0  0  0  0  0
    7.9361    8.0579  -16.7206 F   0  0  0  0  0  0  0  0  0  0  0  0
    6.5661   -2.3145  -22.3036 H   0  0  0  0  0  0  0  0  0  0  0  0
    8.1911   -1.2401  -20.7603 H   0  0  0  0  0  0  0  0  0  0  0  0
    4.5130   -1.0956  -22.9930 H   0  0  0  0  0  0  0  0  0  0  0  0
    7.7857    1.0642  -19.9349 H   0  0  0  0  0  0  0  0  0  0  0  0
    4.0900    1.2031  -22.1644 H   0  0  0  0  0  0  0  0  0  0  0  0
    7.7987    2.8407  -16.1628 H   0  0  0  0  0  0  0  0  0  0  0  0
    5.7870    6.5601  -17.0170 H   0  0  0  0  0  0  0  0  0  0  0  0
   10.0368    6.5171  -16.2784 H   0  0  0  0  0  0  0  0  0  0  0  0
    7.0257    5.9562  -24.7362 H   0  0  0  0  0  0  0  0  0  0  0  0
    6.6185    4.2158  -24.9145 H   0  0  0  0  0  0  0  0  0  0  0  0
    8.7338    4.4197  -23.6986 H   0  0  0  0  0  0  0  0  0  0  0  0
    7.9931    5.5566  -22.5215 H   0  0  0  0  0  0  0  0  0  0  0  0
    5.4267    6.1957  -22.8991 H   0  0  0  0  0  0  0  0  0  0  0  0
    4.5962    5.4509  -24.3071 H   0  0  0  0  0  0  0  0  0  0  0  0
    7.2359    2.6081  -22.9270 H   0  0  0  0  0  0  0  0  0  0  0  0
    8.1466    3.2944  -21.5390 H   0  0  0  0  0  0  0  0  0  0  0  0
    3.9877    4.3289  -22.1516 H   0  0  0  0  0  0  0  0  0  0  0  0
    4.8207    3.2086  -23.2820 H   0  0  0  0  0  0  0  0  0  0  0  0
    6.1862    4.7751  -21.0332 H   0  0  0  0  0  0  0  0  0  0  0  0
    5.4245    2.8952  -16.3991 H   0  0  0  0  0  0  0  0  0  0  0  0
    4.5346    4.4402  -16.6176 H   0  0  0  0  0  0  0  0  0  0  0  0
    3.4481    2.5464  -20.7466 H   0  0  0  0  0  0  0  0  0  0  0  0
    2.0017    3.7493  -19.0336 H   0  0  0  0  0  0  0  0  0  0  0  0
    2.8051    4.3490  -17.6212 H   0  0  0  0  0  0  0  0  0  0  0  0
  1  2  2  0
  1  3  1  0
  2  4  1  0
  3  5  2  0
  4  9  2  0
  5  9  1  0
  6 10  2  0
  6 11  1  0
  7 10  1  0
  7 12  2  0
  8 11  2  0
  8 12  1  0
  9 21  1  0
 10 22  1  0
 11 27  1  0
 12 28  1  0
 13 21  1  0
 13 23  1  0
 13 26  2  0
 14 23  1  0
 14 24  2  0
 14 25  1  0
 15 16  1  0
 15 17  1  0
 16 18  1  0
 17 19  1  0
 18 20  1  0
 19 20  1  0
 21 20  1  6
 21 24  1  0
 22 23  1  0
  1 29  1  0
  2 30  1  0
  3 31  1  0
  4 32  1  0
  5 33  1  0
  6 34  1  0
  7 35  1  0
  8 36  1  0
 15 37  1  0
 15 38  1  0
 16 39  1  0
 16 40  1  0
 17 41  1  0
 17 42  1  0
 18 43  1  0
 18 44  1  0
 19 45  1  0
 19 46  1  0
 20 47  1  0
 22 48  1  0
 22 49  1  0
 24 50  1  0
 25 51  1  0
 25 52  1  0
M  CHG  1  24   1
M  END
>  <OMEGA_C>  (4) 
DDvMQDVuqL93fK/BgrLpQFjsNL/NhqjBVhSnQML5H79FnrLBHDPiQCKgGD/xvqTB/GCfQCM7LT9u
1a7BZND6QIwPekCLoILBzhnWQIGZwEAsO4bBWpMRQRayv0BC94LBXqe8QO7Lpj+tzKfBUA/VQBLD
k0C1BoXB3AQRQSW8kkCJ9YHB6gr9QKGw1kAp8ITBEPnJQOqwRkCNvZnByOKBQExGXkD/MZjBegzX
QK92oUAkmcHBNtz5QH3ulUAaVrnBEm2rQGN3qUBHObzBvujrQPzOX0AXWbLBrB2eQF4/g0AINbXB
UAzBQEBcdUBkpqzBghS0QEz9L0BhLKTBOP2sQJKHdkAviIfBEnepQPZgZUCWGpPB3neGQA70N0Cf
a6HBv+Y1QJBfeUDZGJTB6K7wQIRyUEAdspjB8kkjQfRleEB8kIDBhvT9QPXsAEHiw4XBlR3SQKog
FMDVbbLBpg4DQTC7nr8oFabBNWqQQO88jL+u8bfBHiT5QMk2iD+lep/Bd+GCQNb9mT+1ULHBzY75
QNHNNUB4TYHBJS+5QLrs0UDZIojB3ZYgQXOM0EA8OoLBRNLgQJSZvkCn48XBgcrTQCDohkD+UMfB
wr0LQR9ujUCklr3Bfcf/QADQsUAiLLTBhaetQO9CxkBvMbfBMRSTQCturkDwdMLB3YznQLzrJkCN
arfBVVgCQb3WUkDuT6zB+TZ/QCmGikBkNrHB90KaQEZaTUCQQbrBo/XFQFDNmEDwQ6jBkJWtQApL
OUBwMYPBnBuRQC4WjkDk8ITB2qxcQFn4IkAf+aXBFBwAQBv0b0DFRJjBrYYzQGQri0Aw+IzBM6DN
QD8gtL8Dw6zBDHjwQGhHCr86HKvBL3ejQFaSbL+X5avBaiXpQNwFTz8hiqjB4PSbQEpw2D6/SqnB
m+XrQBdSnUBfQnjBJ8PwQKxsr0D/DI/BNdgVQS/ewEDtLIPBhsK+QOC9pj8PdafBpabaQHAbm0CH
jIbBZu8JQWA2sUBo2HTBzR0NQTRWv0A5io3BUHrLQLiBRECJ+JnB+5+DQNr0YEBG2JjBPhq+QF8u
rUDtuMHBX0DVQETNgUCsDcLBExHDQEMewkBMoLbBQjTEQG1rR0DdSbnBPTiyQJZxpEDIuq3BeN7I
QEZ/b0BT363B6gy3QHAWMkDBxKTB3oWwQChig0D6c4jBkVGrQEqUaECwqpPB3zCJQBT3QkBElaLB
LOY3QDXrdUC3i5TB9dfwQIn7NkD7cpfBduERQdGrtEDTzGDB6YUYQUUazUB4EpbBSD7TQC98HMAw
sq7BJmcIQV4tab9L0avBic2IQOuTy78yPa3BPPoBQR7AvD/ZYKfB1BF3QOD4ST9yr6jBs4baQKnO
j0Cc72rB7n/hQLKpskCbwpbBRqElQRkAzkCQ64HBcevLQM5swkBx1MfBzOabQIpCqEDOZsPBjhDQ
QJDaZUBG7MnBhbX3QB34hkCazcDB8SDlQD/XyEApLbXBQuSwQNFB4EAuerbB0ymiQEZkOkCI07rB
6k7WQLIVC0AmkLnBjve3QP2zs0BF7qXBDKOPQPW4n0CK3q7BLCXrQKu+eUAqVazB7GKvQLbqTkBn
GoPBw+iVQKIdmUCmiobBgh5jQL/eOEDe06fB3tsCQKN0bkCl7JjByN4zQKI6hkBDE43BGnjKQAAk
yb9MQqrBl1btQNRoMb8kWqnB71qgQKw7ib83DarBxQXmQME/LT9p4qfB2+GYQNTtmj7moqjBJtv1
QGOGpEDB84jBfJ2vQILpxUBNEYfB3+jvQFck8kCCYYjBR7C7QHC5lz8XHqfB9AXJQIvVoEAYCojB
0ZcEQVMDzUA1cInBOzDDQA2O7kCYB4fBaXDMQH/BTEApcZzBt12EQC69W0BesZnBVsnGQDd1xkA7
a7XBunCbQEt3r0DaVrTBrhfpQEvfr0C4oa7B5n6fQBvRgEAYCbjB7dXtQFkZgUC5OrLBc+7CQOuy
T0Cc6rHBvMa0QBCkLEDVZqbBnVG0QDZNa0A/Y4nBFq2sQDZdW0BS35TBxbiHQPBSQkAJr6PBKmg8
QDAocUB4qZTBF8vyQEjMR0AmgZrBefMZQQ8O0EANDYvB4fiqQH8VCUEA7IXBN/jPQIF2KMAIHqvB
+dMGQT0yib/LyKnBdKuFQMrM37/0+6rBSm4AQTlDrT9qVKfBPBxxQFM0Lz+NtajB2LMEQSEOiEBO
R4nB60eNQAMww0DRWobBCsH+QFurCEG2mojBG7jQQEIyxkBq3L3BpWPDQAq750DprLLBeDWRQPUm
sEDE66vBD4GDQJnuv0DGTrnB2vADQTV3wECFn6/BqZPfQCm8sECAKabBGq2AQC1GYUACurbBZjan
QPeHgEAEn8DBXRv6QLO2gEANerrBxW8CQS44YkAV6azBALnIQLjRFUBStrbBbJDJQIpxOUAgKobB
JKyVQMoZakCyD4XBrVxeQAEePkB3yqjBfTMFQAfDbUDZr5jBG6s8QDP8gUD5A43BYkDLQA/3wL/w
uqvBAIPuQNUaJr+gY6rBUFyhQPJFf7+wCavBdOPnQLsQOD+UVKjBhJKaQExWvD794KjBqKn/QOYj
fEBkO4TBXI/bQL7cwkBMMIbBxJ8UQQ3nv0BB6YPB1M69QFv/nj+LX6fBeLjZQHi3lUCZ84XBFb8T
QfHgkkBqx4PB95cBQe7m10B914TBxMPLQKC1RECdV5rBZLaDQJ05X0A5D5nBXGe/QMV+tkCIQb/B
ROnEQOq5hkBNBMLBYoHVQJtcwUAzk7TBSH6zQJ0PVECC/LjBCCfEQOQspUCodqvBzkrJQKAoaUBq
Gq7BaNy2QCxGL0DM6qTBmgOwQHx3fEB3SYjBLHGrQEYDZkBWz5PBXFuJQNpzQ0CX5KLBLL43QBeK
c0ClzZTBukzyQB+jP0BvsZjBhvYlQbMVd0CRToPB+2sCQfmSAUHVnYTBlVLQQKK0I8BTSq3BAlQH
QR8Ohb+X8KrBsVWGQOzh07/TKqzBgYgBQftOsD9BeKfByax0QMuAQD+IXajBjQj+QHSJN0BmQoPB
gLW+QIBD1UDlZYfBUNojQRYN0ED4TIPB1anNQH32yUCfqcXBZBOdQFnWvUCZm77BRmazQFhof0An
csnBox/nQMS9f0BtLcPBTyP4QL73u0DqYrXBEJPPQKYt40A1orLBF8yQQOdMXkBgPLjB97m5QGew
EEBBArvBJOLVQNpsrECoFKTB8QOiQI1SrEBFRqrBVazrQMVTW0Ai3K7BhTivQLk1QUAyioPBbROV
QMngkkDu84XBzeljQO7bPECCSajBXBcDQDZLbUCoSJnBkRgzQEoyhEAhQ43BDHrLQMRCwb8qkavB
lGXdQGj/Yb/ZkKLB7E2wQIg5Sb/Jb7LBZGzUQIAa7z5nd6DBAKSnQKDXEj/OcLDBRFj4QHSTdkAN
LoDBYID6QMS+r0BGro7B5F8eQX7nmEBZF4bBVFa6QOhXnT+wjqfBUOLiQMp+k0CuE4jBAI0SQTDG
fUCbBn7B8rwTQZrasEBmB47BqNnJQGhgUED2GZzBaNaBQJSZXEAMs5jBvJfnQJpDuUAdt7vBNOe4
QFK+vkBl+7fBbHvxQN7ViUBqBb7BeOuvQDqUo0Ck8a3BMPjoQPgWXEDPFrTBJPG5QDSSZkA58K/B
QAqxQDx/LkBenqXBTH+zQB7/i0BpSorB9DurQPTlbUC4z5TBFBqEQKzSN0A/K6LBiF83QNQzb0B9
dJPB9PjwQKSSTkBXXZvBwr0cQRh5UUCEdm7BahYfQeZQyEBEJJXBkonSQKj9IsDTN63BaBLyQD82
uL89Q53BhguiQI48o7/DQ7nBuHLhQHIZbz+UY5nBWZiSQGlMjz/cuLXBXXvmQLwNTECuEnbBEP7p
QKd5xEAGOpTB8JUvQeF4mkB9bYXBJp7sQGIJzEB3DcPB7Dr9QMjjxEB5abXBWh2zQAKl4EBoG7bB
EkejQDeWtEDKcb7BPwvdQO52fUBToMTBh6cJQamzhkBhU8DB5wnEQOU5r0AJVqfB8vuNQN7upkAb
w6vBpW3uQMePGEBSK7bB9zb/QDomb0Dlsq3B51akQC7QT0D2RrbBmHmmQDIDb0A464PBegGjQJYX
q0DWMorB+JBVQA3KJECdcabBBNH+Pw2KYEA24JbBk344QEqehUDFQ4zBz5vLQAveuECZt8HBvu2p
QKFLnkAzTL7BAijsQFyAxEAzg7rBTKOoQKqLj0BbqbPBpgzrQN7KtUA34a/BOnubQCj2Nb1XeqzB
1zzNQEqWQL/ffJ7BG03VQBgizb9Rr7DB6fTIQLFcm0C1QKzBrCypQAACnzqOtaHBjWqxQNiRWb+m
8LPBtUTjQOabxr8m96XBimnHQI3bM0AeuKDB2CWHQMn1X0DVq5nB5W4UQdvvm0Db+obBPLn9QCJs
s0AQ2YXBfc8bQYE9m0Bwu5LBggDbQJznnkBR9ozBoKIKQXSQhkDrxpnBaTvpQM53nkCP3pjBMR7G
QHWkikB8oaDBCpiUQPEPez8q8ZnBjKCgQIjVGEBQVJzBQ3maQJ6ck0AzlZzBhwM+QEIGXUAV4ZTB
hsvjQK0PCEASuqTB3ESkQO8TZL/JP77BzwYDQSeXEMCF36LBenbMQO9QxEDU3cnBsgeRQOEzlUB2
18PBYQkDQdrI2EBiJr3BIsaOQBwIdkC9HLHBqSkCQUCnvkBva6rBxy6AQJfOCT/4/q7ByuzXQHgT
N7/TRpbBGhjmQP37DcBGaLbBfYwgQUN7rEBHHoLBT54SQdqwdUDaHoTBUFjzQC3xsUD/5HrBVvcA
QRYN1UCwOYjBAaceQW05vED4dJXBGLoqQbm7iEAIX5PBY2LVQOqre0A0S4rBETa9QJJqsUCzN4zB
3/0PQcV1h0AWKKLBxXYIQdg2SkBcRJfB/WbuQHLUv0BMXJvBkzRjQLMIYj9bfprBbwqfQBQVPD+z
xZHBum6NQIrGsEAjH5zB2wMeQNOgiUDdcpPBZUokQIauJEBH3ZLBasDLQBVoukDfeMHBlHa3QIdX
k0B1H7/BBzTeQAmj0kARMrnBDaO1QBlyhEB8grTBVNzcQO+qw0Ael67BrtGbQIATa7ylXqzBsLPN
QI+RPL8JdJ7BslXVQBjwyb8kr7DBgxLJQD7wm0B6E6zBi8GpQGgnvzyin6HBH36xQNeWUb8Q4bPB
PHzjQE5gxL/T+aXBohbIQIczNUDGbqDBSrmGQEmvX0At2ZnBQTPNQDd+pkC9moHBbey8QHjoxkAm
9YnBdxnZQGQ3dkAfnIbBuIfbQGELy0CUs5PBmgb6QLuUgUAhnI/BA43pQHJTn0AJyZjBX9bFQOo5
i0C+b6DBX2KVQCE3fj+CzZnBZa2gQA83GUBEb5zBndOZQG54k0DtwJzBPrA9QKebXEDT6pTBDnvm
QP7ACkCTrKPB8SCkQJJyWr8GLL7BvRgDQdjfD8BB7qLB3ybNQGvFxUDIn8nBW0GpQDO9gECzesXB
93HtQCXR8EAu/LrBfkelQH6lTUD6wLLBywXrQGiQ1kAjSKjBb4yAQOXFEj8o1a7B0H3YQBKxNL+y
P5bB6/TlQHxTDMC5cbbB5rXpQPLbs0CSV3vB3uyzQDhRoUBXPHfBJlydQLRjvEDX1IzBYee5QO5s
5kDFHIbB8+DmQMt5TEDHaoDB0im8QNAiWEAN7InBfDfLQHn03UAf55nBo3/4QDQI3EBpEJHB/IUL
QTLqj0DJJozBW/AAQQBLRECWDJPB6aUCQbtFpkAu6p3BmsxkQO0GYT9tI5rB+LWgQGBIQz9HrZHB
bD2MQLZssEAzf5zBt+8dQHlniUC9YpPBohskQDIyJECB55LBC6j1QN0uLj9EN23BtpgHQft2Sz+F
oX/BtAXJQJstVj/Ptm7BXC/8QNfhiT94vonBa8i1QBAojT+oTYHBdZLTQB4VfkBd+bDBxIOwQDPa
w0AlHrPBZdDVQCpXokBSL8LBOizPQDKSnj+HqYrBHoW7QGQJoUDNe6zB51XhQJm/f0AImLvBefy8
QCUQxEB0+r3Bt+jNQFTrOECDo5nBg4WFQG3sS0C5zJfBt1vFQIpYTb97z7PBMHWaQA/wTr+Wz63B
OKnqQNTGYr9H1avBTsyXQGJfvz6P8qXBqTDpQPLSiT62uaPBoUW9QMzyuD6tp53BO3y6QCRyyz+4
gpXB0BCwQAqNokDXk6DBfsGrQOFOb0AgrpvBBAyNQA8x/j/67ZPBZQw7QO7xckBOv5fBnenzQOyP
SkBKz5rB92H5QNhePkAlY7/By1+xQM3g5ECsYsTBaCUCQen88T5B613BUrcYQYhhKj8ahH7BHnS1
QMl7QD8liWDBpwYIQfwblj+3xZDBtnCTQLYrmj/P04HBj3XbQB6JR0AmDKzB+YaeQIBi3kBk46/B
kerfQF0Lo0ATcsrBxqXGQNFF1b8uP7nBqR3IQFXxAT6+eLjBpTGAQLPlOr/norPBEWiXQIEI4L9/
VKnBg7foQHSg6788fqfBWIQEQeOsVr/KQ7DBbyKZQGcVqD+Ug6rBwXtyQLU9oj5LmqHB32cBQdgu
9T2Yz53BwJTuQAxwmz9OBajBAvq5QI6ADr8v4JjBb1/JQLUetEAcUpzB0nuRQKmas0BarZ/BHQhu
QKrPtD8rYJDBEKcIQOxaVEAtopTBc+wzQPnLlkDJ0prBj0bMQM6iukBPrMHB0u7tQDARokDjZb3B
p7eoQJv7xECZRbvBGe7rQE6Tk0BlvrLBWnSmQKFltkDBo7DBd1KbQEwmDb0iXazBoNPNQJGUO796
gZ7B3E/VQOzvyb+Zu7DBRdPHQN3lnEDKRKzBS3upQMCxRjxxo6HB7CGxQBkFVb/K47PBurPjQKJR
w7/nC6bBpXLGQB4fNUC2K6HB95OGQIZjX0DawJnBA6zoQLk4gEASiILBqHHHQMUNoUDDf4bBHHb6
QPGYSEDApYvBn63YQKz9u0AbCJDBBfsFQVW1gEAc2pTBgwnqQFB2oEBng5nB8UPFQBxYi0A6vKDB
3TeVQIi+fT/P3ZnBwAWgQAY4GUDGopzBugiaQKV4k0DCVJzBWq89QIgXXEDFxJTBP8PjQF30CECq
qaTBbZKjQCpGX78fKr7BPl8DQdODDsD5C6PB577NQD+KxUAQ3cnBFKoEQU5SmkDOS8LBaxiPQMcr
2EBeh77BJw4DQTIzgUC1eK/BsSaLQL6ivkB0wqvB9oR/QJarCj9GzK7B5tbYQJ+ZMb92UpbBBAPm
QOcTDMBUgbbB0LABQSeLkUCbjX3BiWLZQBGXVkAWJ3nBkIaqQGHej0AmF4nBJ1W/QL+/tkDEvn/B
+kEKQWFgIEDrhojBhrrgQK+HH0Akw47BQ3++QHA10EBRCpPBIdLyQOhq0EBQF43Bz48TQeFnk0D6
xZHBjoALQRVjV0BzWZvBc4/7QHN+tkDgy57Bd4BkQExVXj/lGprBUuugQMF2Rj+nv5HBTUCNQAqW
sECtbpvBYOseQOgkiUCX8pLBk0kjQCuGI0ASAZPBiRLQQPLGt0CRzsDBW6+zQB6Rl0BNa73B+Wvo
QGJkzkC7OLnBOXmvQOYejkA0c7LBbX3kQCbmxEBTQq7B5c2tQOh6hL/Eu57BucrDQLDrWT9VtqnB
4XLPQCCSs7+aK7DBjbzHQN6opEAkq6rBf2myQCA2uD5Z+5/BtS+7QAB39L9C8abB7zLUQAAKg7yM
dbHBnUPOQKQMWEAwNZzBbRuGQHRzZ0AkKpnB7rsFQbKm0EBvPYPBubfbQEpE3EBGUYTBoo4QQVr6
zkBiS47BZ/bDQL5nvEDgnYvB/PcEQdrDrkBba5XBkULZQFJIukBq1JbB1X/BQEoVmkCQop7B3SGm
QAjCoz+CppbB9eWoQGxvLkDEJZnBg8aSQP6wmUAAfpzBWq44QKwtVEBzKZbBAXzxQHzCNkAeh53B
kQ+1QNByT8A466XBkQPoQMCv/T6nLLrB4yfTQCAev0DpNsnB9BahQFsNhkAQPcPBOjb+QJwg50AV
0bvB74KZQKLXakDb7K/B7IX3QMNK1kB4gajBKwOgQECVt7/Qe5fBmlfEQEo+9T+DJ6vBi0XbQCUO
BcCYObbBtcENQeHv6EBGlXzB+yoHQbQnsUDNwH7BD+XMQOjG20BlrHjBxf3YQLOS/ECXvofBOuQP
QczY7kAwBJLBWFshQQUxxUDuWI3BPdLEQFRvnEDX8IfBPoSiQFTGxkCYg4zBzKYMQcB4rkAYVp3B
UToGQQjRjkCFx5HB4W/XQNtY2kCAbprB1/+EQLuIhj+RTpTBm7i7QOyiiD/l6I/B7eh+QKTpskCW
cp3Bo3YLQGO0gEC7dJbBj9kpQN0XGUCWtZPB

>  <OMEGA_E>  (4) 
0EU8P6QiTz+mRE0//jZGP7TQRD8clYs/Z06LP+Ygiz/iN4s/+LqQPw==

>  <OMEGA_NBR>  (4) 
     36382

$$$$
50158053
     RDKit          3D

 60 63  0  0  1  0  0  0  0  0999 V2000
    6.3129   -1.2702  -21.8442 C   0  0  0  0  0  0  0  0  0  0  0  0
    7.2451   -0.6520  -20.9953 C   0  0  0  0  0  0  0  0  0  0  0  0
    5.1716   -0.5637  -22.2686 C   0  0  0  0  0  0  0  0  0  0  0  0
    7.0337    0.6670  -20.5646 C   0  0  0  0  0  0  0  0  0  0  0  0
    4.9536    0.7590  -21.8378 C   0  0  0  0  0  0  0  0  0  0  0  0
    5.8711    1.3897  -20.9646 C   0  0  0  0  0  0  0  0  0  0  0  0
    6.3076    3.1658  -19.2274 C   0  0  0  0  0  0  0  0  0  0  0  0
    4.0382    3.4137  -18.9751 C   0  0  0  0  0  0  0  0  0  0  0  0
   10.7908    4.7458  -14.7394 C   0  0  0  0  0  0  0  0  0  0  0  0
    6.8259    4.7384  -24.4284 C   0  0  0  0  0  0  0  0  0  0  0  0
    7.9291    4.4314  -23.3974 C   0  0  0  0  0  0  0  0  0  0  0  0
    5.5487    5.2429  -23.7299 C   0  0  0  0  0  0  0  0  0  0  0  0
    9.0108    5.1179  -16.5179 C   0  0  0  0  0  0  0  0  0  0  0  0
    8.5157    3.5956  -14.4982 C   0  0  0  0  0  0  0  0  0  0  0  0
    7.4379    3.4070  -22.3607 C   0  0  0  0  0  0  0  0  0  0  0  0
    5.0405    4.2199  -22.6958 C   0  0  0  0  0  0  0  0  0  0  0  0
    7.5055    5.1476  -16.8002 C   0  0  0  0  0  0  0  0  0  0  0  0
    7.0120    3.6331  -14.8560 C   0  0  0  0  0  0  0  0  0  0  0  0
    9.2706    4.8649  -15.0071 C   0  0  1  0  0  0  0  0  0  0  0  0
    6.1371    3.8952  -21.6393 C   0  0  0  0  0  0  0  0  0  0  0  0
    6.8734    3.7931  -16.3726 C   0  0  1  0  0  0  0  0  0  0  0  0
    5.6387    2.8606  -20.5492 C   0  0  1  0  0  0  0  0  0  0  0  0
    5.4066    3.6866  -16.8554 C   0  0  0  0  0  0  0  0  0  0  0  0
    5.2825    3.5101  -18.3318 N   0  0  0  0  0  0  0  0  0  0  0  0
    4.2078    3.0651  -20.2298 N   0  0  0  0  0  0  0  0  0  0  0  0
    2.7939    3.6449  -18.3972 N   0  0  0  0  0  0  0  0  0  0  0  0
   11.6049    5.3603  -15.4821 O   0  0  0  0  0  0  0  0  0  0  0  0
    7.5235    3.2488  -19.0937 O   0  0  0  0  0  0  0  0  0  0  0  0
   11.1980    4.0488  -13.7707 O   0  0  0  0  0  0  0  0  0  0  0  0
    6.4715   -2.2872  -22.1714 H   0  0  0  0  0  0  0  0  0  0  0  0
    8.1241   -1.1910  -20.6740 H   0  0  0  0  0  0  0  0  0  0  0  0
    4.4598   -1.0385  -22.9276 H   0  0  0  0  0  0  0  0  0  0  0  0
    7.7609    1.1408  -19.9220 H   0  0  0  0  0  0  0  0  0  0  0  0
    4.0798    1.2960  -22.1764 H   0  0  0  0  0  0  0  0  0  0  0  0
    7.1864    5.5116  -25.1228 H   0  0  0  0  0  0  0  0  0  0  0  0
    6.5918    3.8219  -24.9897 H   0  0  0  0  0  0  0  0  0  0  0  0
    8.8072    4.0234  -23.9195 H   0  0  0  0  0  0  0  0  0  0  0  0
    8.2090    5.3613  -22.8808 H   0  0  0  0  0  0  0  0  0  0  0  0
    5.7698    6.1912  -23.2182 H   0  0  0  0  0  0  0  0  0  0  0  0
    4.7670    5.4078  -24.4860 H   0  0  0  0  0  0  0  0  0  0  0  0
    9.4745    4.3122  -17.1059 H   0  0  0  0  0  0  0  0  0  0  0  0
    9.4531    6.0831  -16.8056 H   0  0  0  0  0  0  0  0  0  0  0  0
    8.6191    3.5357  -13.4047 H   0  0  0  0  0  0  0  0  0  0  0  0
    8.9682    2.7050  -14.9586 H   0  0  0  0  0  0  0  0  0  0  0  0
    7.2273    2.4556  -22.8711 H   0  0  0  0  0  0  0  0  0  0  0  0
    8.2264    3.2533  -21.6094 H   0  0  0  0  0  0  0  0  0  0  0  0
    4.1602    4.6349  -22.1833 H   0  0  0  0  0  0  0  0  0  0  0  0
    4.7585    3.2930  -23.2167 H   0  0  0  0  0  0  0  0  0  0  0  0
    7.0411    5.9656  -16.2299 H   0  0  0  0  0  0  0  0  0  0  0  0
    7.3367    5.3083  -17.8752 H   0  0  0  0  0  0  0  0  0  0  0  0
    6.5320    2.6962  -14.5370 H   0  0  0  0  0  0  0  0  0  0  0  0
    6.5316    4.4825  -14.3485 H   0  0  0  0  0  0  0  0  0  0  0  0
    8.8916    5.7320  -14.4464 H   0  0  0  0  0  0  0  0  0  0  0  0
    6.3810    4.8308  -21.1149 H   0  0  0  0  0  0  0  0  0  0  0  0
    7.4468    2.9876  -16.8546 H   0  0  0  0  0  0  0  0  0  0  0  0
    4.9378    2.8236  -16.3600 H   0  0  0  0  0  0  0  0  0  0  0  0
    4.8767    4.6067  -16.5681 H   0  0  0  0  0  0  0  0  0  0  0  0
    3.4631    2.9518  -20.8875 H   0  0  0  0  0  0  0  0  0  0  0  0
    1.9627    3.5477  -18.9445 H   0  0  0  0  0  0  0  0  0  0  0  0
    2.7309    3.9083  -17.4346 H   0  0  0  0  0  0  0  0  0  0  0  0
  1  2  2  0
  1  3  1  0
  2  4  1  0
  3  5  2  0
  4  6  2  0
  5  6  1  0
  6 22  1  0
  7 22  1  0
  7 24  1  0
  7 28  2  0
  8 24  1  0
  8 25  2  0
  8 26  1  0
  9 19  1  0
  9 27  1  0
  9 29  2  0
 10 11  1  0
 10 12  1  0
 11 15  1  0
 12 16  1  0
 13 17  1  0
 13 19  1  0
 14 18  1  0
 14 19  1  0
 15 20  1  0
 16 20  1  0
 17 21  1  0
 18 21  1  0
 22 20  1  6
 21 23  1  0
 22 25  1  0
 23 24  1  0
  1 30  1  0
  2 31  1  0
  3 32  1  0
  4 33  1  0
  5 34  1  0
 10 35  1  0
 10 36  1  0
 11 37  1  0
 11 38  1  0
 12 39  1  0
 12 40  1  0
 13 41  1  0
 13 42  1  0
 14 43  1  0
 14 44  1  0
 15 45  1  0
 15 46  1  0
 16 47  1  0
 16 48  1  0
 17 49  1  0
 17 50  1  0
 18 51  1  0
 18 52  1  0
 19 53  1  1
 20 54  1  0
 21 55  1  6
 23 56  1  0
 23 57  1  0
 25 58  1  0
 26 59  1  0
 26 60  1  0
M  CHG  2  25   1  27  -1
M  END
>  <OMEGA_C>  (5) 
owPKQO6Wor/3wK7B99fnQNPnJr9Q9qfBa32lQGJPEL8MJrLBtBPhQJjAKj9lhKTBz4OeQJxOQj/R
s67BxN+7QC3jsT9mt6fBk9fJQEidSkDL0ZnBVTmBQGd6WkD0zJfBN6csQaHdl0Bi1GvBg23aQFCh
l0BVbcPBP7v9QL3NjUDTLbvBCo+xQNXFp0DI1r3BJywQQR/Go0CnJITBXUAIQbQeZkCO+GfBAQPu
QFYMWkDP4rLBE0yhQJcJh0D/kLXB4SzwQEW5pEDIZobBtmLgQCuEaEArsm3BaVQUQRetm0AzHXDB
wGLEQO9KeUBhHa3B0/LbQM3CckAk+4LBAXC0QMwUN0C/ZKTBvwKtQBrxa0Dr14bBnQqpQMykYEB2
p5LBlKaGQDAqRECP1qHBBtAyQDlGaUCILZPB1a05QZCHq0CitnfBY8DwQFvsT0Dmv5jBBiszQcmP
gUDCVFzBuhbPQCZhEsAZX7HBQvwBQRdzmL9BZKXBkbaOQF3thL/Na7fBRln4QEsHkj9EYJ/BEo6C
QCDjpT8rabHBKPflQGdfsEBq+8jBoe/SQI+ZdEDv6sfBM+oMQci/gEAKW7/B51cDQSiQq0DzC7fB
mqK4QH8exkDuvrnBfouYQPYMrUBj48PBspcXQbP9iUDk2IjBDEAXQcWowkDecYbBu+cJQZtIYkCd
eVbBnX0PQRYeLUCFVm/BFUbnQKEoHUAa+LbBe58DQZo2UEAF4KzBCyCFQFtRlEBMd7HBbEWYQEfB
UkDRu7nBElHhQFnmvkDD1oHBlMbqQIzdqUB2AI/BGQbRQMWNLECvl2jB4wLRQM1wj0BFk2XBMkQO
QfJst0B+JGfBTDHMQCOWmkA+66jBN0zuQPM0P0BC1obBLQKeQMq1NEBJ4YLBLg6cQH5qk0B1i4TB
wqNdQFjqPECIGafBrzj7P8wMY0BdjpfBeMYuQDUiekAZeovBD5DKQO+ioL+ehK7BkBjqQKmPEL9/
u6jBIeKjQKgMHb92JLHBjxHjQEC4Qz8GmaXBHlmcQCwlNj951K3Bzqq7QOTltT/06afBvE3JQLEE
TkBzI5rBOO+AQGK6WkCwsJfBRz8uQQOHo0CvXXHBh2TiQPsylEBqb8PBdHz9QC9/m0BHWbnBW1ey
QH5Ll0CvyMDBcp0QQUf2qkCJOYbBQCMLQU5reUAIymrBGpLxQCWidkBfjrDBXNilQFjibUB0B7jB
JZvwQPcXqkBi5IfBTmnlQOxXeEA2GG/BO9sVQRNapUDLZ3TB2MbAQFX3ekCvpq3BsELeQM/NfUBw
pYPBflazQKkcOUAToqTBnsquQBDjcUCZDYfB0zOpQAZNZEBu1ZLBJpqFQMhzRUCV0aHBbQgzQH8B
ZkDIs5LB+u04QT57hkCUdnrBjybwQA+TT0AV6pjBYQ03QT6/v0AH+mXBhPvPQPu+EcDT87DBeOED
QTtCh7/AsabB7+CLQLXekb9Yt7XBk+T7QJMqpj+rXaHBo9l8QPaBmD/q0K/BBIzqQJehrEDpbsnB
2FfpQEZ0aEA7rsbBZsIPQW+gl0CaYLvB3eX3QLEnvECkYLbBix+rQJTXt0Cv9b3BgK6fQEGPkECj
DcjB0f8XQfPFkEAQzYrBHAEXQRjIyUCmB4nBdeMNQS12eEA6aFnBzmMSQRdGQEDoEnLBFij5QLes
NUBwXrPBATsCQTF1gkA3WanBEcGDQF0mdkCwGLbB2UKrQButLECWDrvB9d/hQM/PxEDfgIPBOGnp
QP42rUCNeJDBDnjXQKCqPEAl4mjBLzzWQBizl0CQLGfBj7YPQVBwwUCwwWvBUhu6QKjVnUBGnKrB
GNLwQLwMSkBNZYfBUMGhQMbvOUBY0oLBlc+cQAi7lUCCuITBObtaQIJ7PkAf+KbBTtX5PwPqXUAL
2pbBt4EwQFQzdkAV+IrB5ufJQJhzoL8XsK7B3inpQIXyFL8xqKjBf5ujQMLtGL+2bLHBUUTiQNSe
Pj+TY6XBCEacQAadOT9mBq7B4GG7QA1dtT+u5afB/lfJQPuvTkC3JJrBeuKAQB3QV0B8mZfBuSEt
QS/+T0AJw2nBuUrjQPJ9lEC2UsPBiZz+QPKdmkCuPLnBhE+zQNA5mEDDoMDBXWkLQXqmlEBZgm3B
IA0PQd1cGEBFYoDBYybyQAURdEARm7DBH0WmQOVPb0Cz97fBmgLmQDwxlEDL7HHBG5LtQHPBGUDO
NYLBqLUUQfT6TEB1jmzBLm/BQDGCekBCm63BWyLeQE8weEBqcYPBBG6zQIDpOEApnaTBIvKuQEcy
fEBJW4fBkQupQMHlXEA3lpLBQa6FQEUoRUCjzqHBH/cyQN11ZUCEspLBqZ44QfMxcECgSXjBhSrw
QB3AUkBX+ZjBeCA1Qe8xMUB671jB+EPPQANvEcCEOLHB90IDQfz8ir8biKbBn8OLQMgPjr/hJbbB
h8f6QHFwoT9U6qDBPVJ9QKDUmz/cGrDBVM3rQB8xrUCIOMnBD6jpQPdEaUADtsbBnEYQQbRHlkCW
TbvB6qP5QFsmu0B5HbbBlqqsQK6+uECMsr3B6HygQGgtkkCm6MfBH3kTQVBupkAIYnrB5V0OQYOm
pEAQHV7B3mMUQfCwqz8qmH7BxigXQbJONECsXofB1s/4QJA7M0CKmrPBabQCQTEQgEBNZanB4EeE
QHqieECV/7XBvQ6rQN41LkCAGLvBq03VQAzxg0BRvGTB6yDaQDw0tUD5WHPBA9vlQLyY6z+YhonB
SlvdQCUy+D+eq3bB3sUNQYR2LECEkl7BtZy7QGyvnUCngqrBURTyQFgWi0BsponBEUGbQLuDVEAz
AoLBgg6kQJCHn0D574bBTg1bQBvnP0BjA6fBSRb6P6FNYUCg+ZbBS0QwQFhsc0C35YrBqDbRQLgi
uEAy7cDBWBKxQOTFmkAUDr7BxHHsQHQFyUDuCLnBLEirQKRMj0DuQbPB6rznQHBpvEDETK7BchLG
QLBxoECAK6vBbqTMQAhQSkBg+J3BlqaEQNgIVUDLbZrB+ubbQOBv878EqrbBjE7gQOxb6kDaXITB
MJDjQDQK+0CS74/BtJPtQCTsukAanoPBUFPgQCB1tD5Mi63BSG7QQJDq1781NaLB4G7IQOhA30DU
epfB+l/TQHQLn0BcYIvBUPOvQOB7Mj8Trq3B7iagQHAtp79JD6LBUFHoQJibk79+UKzBeNvXQHjZ
r0A8FZfBwHOYQICeYj7baaPB/BW/QNwSk0A6XJ/BLJCmQIC8fz9/JZnBLDGoQMjMHUD8vZrB8NSQ
QFTAkUAc0ZzBoNg1QMBrPkDkypfBhgLeQBhGp78/jr/BVObxQBAfMkAs5p3B0kfRQJBSR8B2IbbB
UvTUQCquwUB8LcnBR8ucQL8AjUBdJcTBZIECQcq030DiN7vBYCWSQG9fckDkHLHByvL9QMQZyEA6
XKjBmHz1QMR//UCsbX7BGg6/QFus7UDbmIHB8+7XQNseDkEWPZDB0pcCQeD/+UAEh5LB+9wHQdYJ
uEA/oIXB/ULoQNyRr0D8yXbB6sPuQKEVMT/AGLXBLnvvQJ+5YD8HzqbBPsbfQJLbob9yC5vBKyrT
QPQhMsBBCqLBM7SmQLvU4EBi/pTB34vLQFNi60A5tJ/BMhPfQNzDe0De/IrBMHmxQOP6n0AWBYnB
916sQJfg5D+DXq7BUCWhQKNFWD4zp7TBN/qPQMnI6r+QoqjBEV6SQOf/z78BYJrBSGYFQTCnpr98
AavBG/75QNE0r0CTOZnBUuBrQEmLxD51jaTB4KaPQDmZRz9As5LBsJjGQEeHJj8yy5bBBuF6QCs0
q0BL5pzBu/cHQBsGa0CroJfBOrYnQHKOAUDLD5bB

>  <OMEGA_E>  (5) 
EsJjP3CWZT98y2U/CG6VPw==

>  <OMEGA_NBR>  (5) 
     40599

$$$$
50158052
     RDKit          3D

 57 59  0  0  1  0  0  0  0  0999 V2000
    6.6184    5.6149  -23.9386 C   0  0  0  0  0  0  0  0  0  0  0  0
    7.5929    5.2280  -23.0012 C   0  0  0  0  0  0  0  0  0  0  0  0
    5.3153    5.0919  -23.8542 C   0  0  0  0  0  0  0  0  0  0  0  0
    7.2646    4.3278  -21.9717 C   0  0  0  0  0  0  0  0  0  0  0  0
    4.9830    4.1883  -22.8288 C   0  0  0  0  0  0  0  0  0  0  0  0
    5.9466    3.8121  -21.8582 C   0  0  0  0  0  0  0  0  0  0  0  0
    6.3222    3.0550  -19.4476 C   0  0  0  0  0  0  0  0  0  0  0  0
    4.0838    3.4017  -19.0976 C   0  0  0  0  0  0  0  0  0  0  0  0
    6.8202   -1.4113  -20.9616 C   0  0  0  0  0  0  0  0  0  0  0  0
    7.1622   -0.5121  -22.1612 C   0  0  0  0  0  0  0  0  0  0  0  0
    5.3982   -1.1157  -20.4635 C   0  0  0  0  0  0  0  0  0  0  0  0
    7.0668    0.9715  -21.7771 C   0  0  0  0  0  0  0  0  0  0  0  0
    5.2812    0.3503  -20.0412 C   0  0  0  0  0  0  0  0  0  0  0  0
    5.6584    1.3205  -21.2121 C   0  0  0  0  0  0  0  0  0  0  0  0
    5.5626    2.8153  -20.7490 C   0  0  2  0  0  0  0  0  0  0  0  0
    9.4809    7.1269  -18.2969 C   0  0  0  0  0  0  0  0  0  0  0  0
    7.9473    7.0635  -18.3923 C   0  0  0  0  0  0  0  0  0  0  0  0
    7.4010    5.9459  -17.4861 C   0  0  0  0  0  0  0  0  0  0  0  0
    5.8601    5.9630  -17.4942 C   0  0  0  0  0  0  0  0  0  0  0  0
    5.2726    4.8632  -16.5805 C   0  0  0  0  0  0  0  0  0  0  0  0
    5.6008    3.4319  -17.0551 C   0  0  0  0  0  0  0  0  0  0  0  0
    5.3405    3.2564  -18.4929 N   0  0  0  0  0  0  0  0  0  0  0  0
    4.1665    3.0842  -20.3637 N   0  0  0  0  0  0  0  0  0  0  0  0
    2.9078    3.8047  -18.4838 N   0  0  0  0  0  0  0  0  0  0  0  0
    7.5115    2.8575  -19.2227 O   0  0  0  0  0  0  0  0  0  0  0  0
    6.8705    6.3132  -24.7229 H   0  0  0  0  0  0  0  0  0  0  0  0
    8.5956    5.6231  -23.0721 H   0  0  0  0  0  0  0  0  0  0  0  0
    4.5690    5.3845  -24.5779 H   0  0  0  0  0  0  0  0  0  0  0  0
    8.0208    4.0265  -21.2619 H   0  0  0  0  0  0  0  0  0  0  0  0
    3.9854    3.7773  -22.7800 H   0  0  0  0  0  0  0  0  0  0  0  0
    6.8856   -2.4657  -21.2680 H   0  0  0  0  0  0  0  0  0  0  0  0
    7.5365   -1.2205  -20.1489 H   0  0  0  0  0  0  0  0  0  0  0  0
    8.1865   -0.7324  -22.4963 H   0  0  0  0  0  0  0  0  0  0  0  0
    6.4564   -0.7186  -22.9792 H   0  0  0  0  0  0  0  0  0  0  0  0
    4.6803   -1.3195  -21.2716 H   0  0  0  0  0  0  0  0  0  0  0  0
    5.1733   -1.7613  -19.6018 H   0  0  0  0  0  0  0  0  0  0  0  0
    7.8249    1.1929  -21.0115 H   0  0  0  0  0  0  0  0  0  0  0  0
    7.2569    1.5856  -22.6697 H   0  0  0  0  0  0  0  0  0  0  0  0
    4.2450    0.5508  -19.7314 H   0  0  0  0  0  0  0  0  0  0  0  0
    5.9590    0.5328  -19.1942 H   0  0  0  0  0  0  0  0  0  0  0  0
    4.9255    1.1725  -22.0189 H   0  0  0  0  0  0  0  0  0  0  0  0
    9.8565    7.9291  -18.9491 H   0  0  0  0  0  0  0  0  0  0  0  0
    9.7752    7.3319  -17.2571 H   0  0  0  0  0  0  0  0  0  0  0  0
    9.9081    6.1648  -18.6161 H   0  0  0  0  0  0  0  0  0  0  0  0
    7.5239    8.0277  -18.0747 H   0  0  0  0  0  0  0  0  0  0  0  0
    7.6567    6.8607  -19.4337 H   0  0  0  0  0  0  0  0  0  0  0  0
    7.7559    4.9723  -17.8549 H   0  0  0  0  0  0  0  0  0  0  0  0
    7.7611    6.1022  -16.4585 H   0  0  0  0  0  0  0  0  0  0  0  0
    5.5124    6.9446  -17.1397 H   0  0  0  0  0  0  0  0  0  0  0  0
    5.5070    5.7984  -18.5228 H   0  0  0  0  0  0  0  0  0  0  0  0
    5.6805    4.9967  -15.5676 H   0  0  0  0  0  0  0  0  0  0  0  0
    4.1791    4.9795  -16.5537 H   0  0  0  0  0  0  0  0  0  0  0  0
    6.6635    3.2272  -16.8587 H   0  0  0  0  0  0  0  0  0  0  0  0
    4.9799    2.7196  -16.4919 H   0  0  0  0  0  0  0  0  0  0  0  0
    3.3862    3.0310  -20.9869 H   0  0  0  0  0  0  0  0  0  0  0  0
    2.0622    3.8648  -19.0142 H   0  0  0  0  0  0  0  0  0  0  0  0
    2.9053    4.0354  -17.5108 H   0  0  0  0  0  0  0  0  0  0  0  0
  1  2  2  0
  1  3  1  0
  2  4  1  0
  3  5  2  0
  4  6  2  0
  5  6  1  0
  6 15  1  0
  7 15  1  0
  7 22  1  0
  7 25  2  0
  8 22  1  0
  8 23  2  0
  8 24  1  0
  9 10  1  0
  9 11  1  0
 10 12  1  0
 11 13  1  0
 12 14  1  0
 13 14  1  0
 15 14  1  6
 15 23  1  0
 16 17  1  0
 17 18  1  0
 18 19  1  0
 19 20  1  0
 20 21  1  0
 21 22  1  0
  1 26  1  0
  2 27  1  0
  3 28  1  0
  4 29  1  0
  5 30  1  0
  9 31  1  0
  9 32  1  0
 10 33  1  0
 10 34  1  0
 11 35  1  0
 11 36  1  0
 12 37  1  0
 12 38  1  0
 13 39  1  0
 13 40  1  0
 14 41  1  0
 16 42  1  0
 16 43  1  0
 16 44  1  0
 17 45  1  0
 17 46  1  0
 18 47  1  0
 18 48  1  0
 19 49  1  0
 19 50  1  0
 20 51  1  0
 20 52  1  0
 21 53  1  0
 21 54  1  0
 23 55  1  0
 24 56  1  0
 24 57  1  0
M  CHG  1  23   1
M  END
>  <OMEGA_C>  (6) 
AcrTQByts0BMgr/BVfnyQBZMp0B0ArjBRReqQI7wokB+1b7BRXfoQKF9ikDxxa/Bt3SfQIwGhkBq
obbBqkq+QMD5c0CE3a7BUU/KQHaFQ0DAlJvBba6CQKm1WUDex5jBtj7aQK6ltL9ksafBkDDlQEwX
A78qSrHBGb6sQMDNjr9XtaPBPCPiQPW1eD+TN67B5f+oQORVsz5qVKDBVxG1QNwEqT9NsqnBJAGy
QPQtNEAD/qXBlrEXQXwP5EAdYJLBlFD+QOwH4kCFI5PBq9TsQPxEvkB144vBOIa7QP7QvkAF9IvB
ZbmoQFqfm0DPpITBdTmzQPSkW0DWcIjBQOWqQJBoUECP8ZPBmlOFQMtiRUD16KLB6Rk6QPeAc0Dq
3pPBj17wQJbgNkAtyJnB0drbQAoGykCZyMXBiIcJQVTws0Cgk7jB3DSSQP9NrECDn8TBK1UAQXTZ
gEBkGKrBeRF/QKK/cUCDPbbB3VbcQMzOHcDeJKrB/SrxQE84nL8KMaHBwPsCQQWBO79r+LPBg5rO
QLL4N7931bfB0MSVQNblqL9RLKrB94ulQL9w4b9z0JzB7WX6QLOvmD+CF6jB7jjoQCT2yj+YW7XB
4taHQD3+DD/x2Z3B9q++QPhiCD/RjZnBe52dQAETlj+sJrDBF7QdQU67/UDNl5fBYGccQZSe6kB2
DorBbIceQQRGxUDH7ZTB3cPwQItxAEHmmJDB9wP1QIaK20A3eJvBRjD4QPQcn0Dg1o7B51r4QARF
w0ACq4PBwmWwQPo53kAiHonBFjmwQOSMuUDELpTBX8a1QE3ln0AJFXnBaruFQGFYn0ADboTBvjvV
QKqKTkCK3obBsVufQCMOLkB074PBLbdYQKX7QUA35afBiPoDQK1Yd0AFHZjB0+85QCUigUAnFozB
qIvPQOywtECNMb/B9BbxQNLlqEB6SbjBDYumQG4Ao0CSyb3B0q7pQE+Ui0BF8K/BRuyeQB7jhUDI
arXBTkjAQI6LdECAQq7BePrMQL6qT0D41ZrBsB2EQN7cWEBzK5nBvke3QJ6Wxb8w76rBdD3QQPxF
g7/3NqHBANO9QJAyHb8hmrTBYsLBQE7UyD6aYp7Brl+vQMBuUT9u/rHBMo3HQLUIrz8iFajBcve3
QGioM0DOL6XB0YMjQXgz5UA0ppLB1/sPQQ9Mx0C9PJLBrsv5QB/u3UBMp4zB1FjQQPsqw0AfIY3B
7i3TQPWOmkBr/oXBWhCvQI8adUCvYojBrE2rQChCYUDP5JPBZAyKQJ5SM0DtaqLBxkQ5QLNDckBC
OJXBdlDzQBnQS0BlxZjBL0fVQOZNy0B1kcXBYk0IQdFftkC8ZLnBCeCMQOXHq0DwI8PBP98BQSIy
gkCIxarBm9h+QIR5cEAfbLTBa6zCQNleI8Do+azB+gKVQEHSyr8+86jBo2/KQJY/2L+FWZrBlp/y
QIQGgr8BGaPBCPTfQIhNGr8ewbbBoP+qQJAWfr+0ZLvBPsWfQAKxvD6/GpzBQuzUQGkvQj80nJfB
xPe1QEK0uz+56LjBMM+MQEwVUT9FVLDBC9npQAJ+tT+xBarB/+IwQVe71EBZn5bBbGQfQVskAUFm
KJfBsDsoQV787UDzdYrBr1YLQamGvkDmb5rB8y0UQVE6qkBzvY3BtQ8BQRx/40CgN4TBDhH0QGrM
/EADopDBu3e1QEYD10AgXIrBw7HKQHNLuUADdZXBUB7yQG7KikAtb4fBWRHRQOBEpECFGnvBmIq1
QOxhOUAxBITBjJuQQMtFiEBTnIXBj7llQGcdGkA58abBn0YEQEI0aECLhpnB4VM1QORRh0DjEI7B
M/PTQDPjs0AgiL/B9wX1QJz3pUAPu7jBYgWqQBS0pEBnAb7BQCzsQLxBiUAcVLDBV/igQE1GiEBQ
kLXBC9TBQBSAdUAFdq7Bmb3MQHC2TUD+z5rB8Q6EQBYNT0Au25jBhSOzQE6bwr8yKqrBsobSQODa
fr/+vKHBWN+zQEh4H7/bJrTBcI7GQDiO2z5Wi57B4M2nQP79UD+ARrHBQfnFQGwVsT+KfKjBKgi4
QKolNUChYaXBYPG0QMST8UBxfajBIrqsQJ2t8kBeWZzB/2G1QPBVxkA8vZfB+uWpQI/NwkCssIvB
hxrCQHrnnUCG+IXByCKwQKBLYUBxFIjBNlqrQIo6TUBpeJPB/N+JQDbnNkBKwqLBlLA6QNaZa0C1
wZTBHQnzQKSOVECG1JjBUb/aQFcvykAW6cXBXaUKQVlUsUDL9LnBTbqQQJfdrkAeUcPB7vACQUNg
fEDIQqvBV7qAQAw+eUAbebTBrk68QDHMIsDcb6zBVaOSQKePw78qyabBrVPRQCV00r8po5rBLh3z
QHcygL+LEKXB9jjUQM8sIr+WnrfBX96cQPNogb93C7rBe5amQM2X1z6V3JrB3xveQPBGTT+cuZjB
FFGqQHrUuD+iebjByaqGQMStVT+JT67BHJjmQFkJtz+pxavBXsyuQAu2CEEN6avBS2jWQG966EBv
/6nBTX+fQG8I2kAAPazBYizCQBsUBUFUk5jBY0OLQDS2+0Dl0JrBpjeiQD/SrkDzM5zBTJbXQHMF
v0AOupjBxCWyQKQp4UA0vofBf0qHQOcTvUAO9YrBGpzjQD6EnkDVqYjB78/AQJvco0CGm3rB9wbG
QKA6MkDgfYTBO4yQQCtUXEA0P4TB1sxkQCG6J0Cf2qfBLB8HQN2tbkCkepnBg3Q2QFIZfUBoFI3B
te7SQI9qs0AAPr/BOnnyQEQfpkAY77fBWfuoQCF1o0CpY77BgAvoQEM0iUCutK/Bem6eQLNxhkDF
MrbB/py9QPLrckAJn67BhNDJQEBCQUAXcZvBDKaCQJq+XkBK3ZjBmDTcQCiKtb+3cajBkejkQAos
/r5EC7LBkF6vQCR1k7+84KPBKKPhQL3jej+Lwq7BsH2rQCf3nD6fS6DBvDa1QOyqpT/jsqnBLoyx
QJHvMUCE1KXBOS4AQRm7CUFfSpDBSPcMQb6R60B9wZPBAasIQQipxEDRbozBxzniQMgytkC44ozB
wmbcQDckjUAnIYbBOv6xQH5UbEA8mIjBhi6rQC5bXUAuJpTBX8iEQDhwQUDXqaLBRWU6QCtheUB1
7pPB67nvQPI5MkAtvZnB2OraQCrbyUCrgMXB+GAJQVwhskBuo7jBjNKQQNV/rUDQCMTBmj8AQWbK
fUCoK6rB8I98QPTgc0DprLXBBk/eQODgHcAODavBNkL0QOJRnb85M6LBA6MCQcbBMb/QHrXBO0PN
QKUNNL9iWbjBN0aXQI/Irb8UFKrBh9ypQIL457+2+ZzB6tj6QIcOmj9v4qjB8hjmQDgkzj9u4rXB
eL+KQJuc+D5sZp3Btl3CQKJA+z5txZnBd72cQCFtkT9a5a/BJ8cDQZwWF0Elu5XBWerdQP4nBkG0
lpDBjK8EQW0rDkENFIjBSWkIQfYq40AR/pvBqCMeQdUx80Bqe5PBWOkSQQXzqUBCAY/BZ6EMQTFu
zUDVJITBk6TNQLSyz0A+rInBtUXZQDObr0AvPJXBcgr3QLtebkBM2YfBEOTcQJTdlUC6NXvBIgSy
QDMiLkDWeITB132XQAHhiUB0jYXBLN9WQPL5NkBKXqfBot4CQJbedkC15ZfB2+g7QFOMh0CTaIzB
fHrSQCbRs0DER7/BY6fxQOjAp0CovbfBavaoQDKYokAWp77Bx1TnQJKlikD7iq/BnX2eQImVhUDR
c7bBQFG9QFCIc0C1qq7B63bJQKD9P0Dsd5vBS4GCQBSzW0Ckz5jBNLTdQMOnsb9rGajB+v3mQPzP
874hurHB8hqwQJmgkr/d9KPB0IXiQFpEgD8woq7BoQurQCyXnj60dqDBPn+1QFirpj87z6nBLVqx
QAg7MkAG6qXB3NQpQXfLnkAUs5HBtaQTQeOosUCUJ5TBwqwDQaZCpkBEM4vBcCPaQKMft0CNAI7B
dv62QOC1okBW7obBuzmyQDLLY0CjlYjByAWqQKTHTkBO25PBBoaEQErzQUByxKLBVCg8QODPe0CL
6JPBhzbvQMJNMEDHq5nB4WjaQF5FykC3isXBNckIQTHatEB6PrjByxaRQManq0CLecTBfJb/QLsU
gUBK36nBK1Z9QIlecEA/FbbBCe3gQKUaHMAqkKrBUr/0QO7Plb++raHBLOcDQXAuKb9ojLTBxTTQ
QMTVNL9BLbjBtQmZQLPLrr+/XarBKPCpQAkt5784F53BGCX7QMkooD9Cq6jBMyXnQMSazz+iz7XB
dNqJQEBV8j6t153BpvTAQKveAT+UwpnBJZ6dQMZakj8kJrDBfwA1QZk8p0AEKpjBFL8vQffhq0Cm
FYrBgJ4oQZyGd0BAF5HBr/AUQees1EAgx5TBG9ANQT6OpEC6yJvB7wsDQdtHg0DKRIrBmAUJQc3l
tEAtqIPBCZXZQMAC2kD91ozBsUzTQE+rr0BQbpbBkgK/QMmmqEDe+3zBUD6YQOcLskDI1ojBpOrP
QE8BREBLBobBQ1qXQHmJTEBQs4PBb3RWQLoLOkD9kKfBZYUFQH1LgEATCJjBfUI+QGkYh0D1P4zB
ZTbUQFaPtECRV7/BdRv1QFYLp0DzcrjBqWiqQODCpEB4/L3BYT7sQLDHiUBtMbDBi0ShQOzrh0Ds
p7XBuvfBQNAfdUDJhq7BUszMQFS2U0BrLpvBPsmDQLuuWEBzMpnBZRO0QHixwr8FIKrB2+DNQGW8
fb+flaDBNfm6QOUQIb+dAbTBhKjAQL0A5T6NBJ7BI6utQOgMUj+Aq7HBX53GQFZtsT/B8afBoOe3
QDMlNkBqYqXBgacoQdLh0EAuSHnByWQVQcFYs0Al+XzBWzMAQXJkyUCIx3XB5KrYQD7Sq0Dkf3fB
Ls/WQJ5WmEDQ44bB5euuQBwMe0D8zojB6iarQNuoaEBpT5TBnuOJQLdYOEABvaLBegc4QF2iZkCq
lJTBESzzQGUpTUDzP5nBBgrbQEIPy0CerMXBdpoKQbsls0DufrnBikSRQCLOrkBCW8PBLeoCQfmT
fUByE6vBUB6BQMS2d0DrrbTBAIu+QBzoIsBu+qvBY9+RQMeAw7/YC6jB9NnHQC9Q0L/nkJnBHSzw
QLblgb8jj6LBeQbdQG9TJr/BOrbBVqOnQAwUgr8PrbrB0syeQAoJ6j7OnJvBSn/UQCdIUj+3ZJfB
lm+0QLVouD/+vLjBji6LQJFTWT8I7K/BUtnoQFeGtD+C+6nBl183QeidwECfeX7BU40mQTSA7kBH
R4HBbdgpQWm32EAwKmjBOFQUQRyJq0D5DIfBUp8XQVHAlUCUtXPBa/QBQZuE00DNA2XBfRL7QIGn
5UBY7X/BSAnbQGMjkkC8hWvBrn27QIuivkCZl3TBC3LXQDRsskD0y4zBnxLzQCHTg0DE/YfBdmix
QJafPkDzVYTBtYWSQDtGj0BrGYbBkxVlQKTpI0CWk6fBssACQJ6rV0CAmZjBY/ozQDqnf0AZPI3B
OHXWQD1FtEDuZ7/BwxT2QPx7pEB+crjBrOmrQFZEpkALW77BKyjrQIsOh0DsXrDB88ugQEhJiUCF
NLbBuBLAQGRAdEC34a7BDaLKQHLYP0DAWZvBos+CQBR0U0BprZjBChPSQH9Tvb92c6fBpljoQK4r
Dr/hi6/BR9CiQGeLi7/5SKbBf1PlQFC9Zz/B8qvBKfWeQK7OtT5yaaLBFvG1QH7Qqz9IMqrBggmz
QKYlNEBgCabB20MAQS+O3UD9057BRdTQQJfI6UDG6Z3BLjy2QO6ayEBmpZfBUULKQEVsvECHoozB
5F2tQNyUnkBF3IXBkMayQM7NXEAKbojBhqmqQFL4R0Bdt5PB302GQEqDRkDa/qLBYmU6QAi/bEBp
tpPBcCnxQCBFRUCXm5nBn9TeQIcay0Bwi8XBK2sLQUb2rkDmTLnBkrmTQPTGsUCc0MPBOu0BQYdh
dED5QKvBRRqAQLjffEDzgbXBW0XUQEo9IcAvQqrBK//hQLCssb/7op/ByB4FQUhEV78FMrDBvdLY
QBzZKb+gZbfBOdKSQHBFmL98Fa7BpmeTQOof4b9vdKDBE/b2QEMjgz9vZKTBYsXzQF/yxT+XHrLB
9sV5QK3aHz+y6qHBSZutQNBb4D4UcJrBVXqlQMG3pT8V97HBS9UIQexh9kDaXKPBxDkHQcja2kAX
xpbBv70BQUizvkCi/6LBKHHOQFZnBEF1zJnBH3nDQCun7EAABqbB+yeWQFP11UAuPZbBl4qzQOdr
q0AlhZzBDeToQJYTrEAdFY7BPf/PQGH82UAhFIjB4xi1QBGTo0Clu3rB7cuLQDZtp0CcUIfB1b3T
QCzZSUA8dIbBcTicQGdCOEDEc4PBZLBbQDPHSEBhJajBM3YFQCYgdkCvDZjB8BQ5QEObdUCRyovB
V5HWQJRoskAVAL/Bezb3QPpqo0BhO7jBqlysQDiZo0CZsr3BLqTtQB3EhUBhI7DB2XWiQJeZhkCp
d7XBlN/CQPMocECQbK7BlcDMQEnaVkAHI5vBa/6DQKmtWkAzLZnBPNizQEg3yb+Tu6vBhkzEQNQ8
i7+X2aDBpWfCQCrzHr/vsrTB6re0QFcasT6DyZ7BP2+0QBnTVD/9fbLBX6TFQI4MqT+DhKfB4wS4
QGhZM0DVLKXBjNH5QCy98r7gyonBFGT7QKq1AD5rxnzB9h7VQOpwiD82cXfBMN3VQNBVE0C75oLB
ZcSuQNZ7TkB+g4HBo++vQGR0i0BQ74nB0zqrQEf6dEBR5JTBhPyJQJsGN0AujqLBn+A4QH2xZEAH
TZTBDgTzQJDkV0B16ZjBhuLdQFlQyUDHNMXBw88LQRCyrkCJQbnBgYCTQLSMrkDvCcPBQ4MDQUeK
ckAyLavB/gKCQGyudkA5grTBlHzAQHYTJcBMUa3BHKuQQEaqzb96kavBxSS4QLsW4L/ahJrBan7n
QJ2cjb8I1KDBqoHlQDvlJ79BS7XB2zy0QNTCc79pTrzBpYWRQDPUtz6L257B1VPAQJhbLT/g6ZbB
1wfBQPjJvT+F2LjBzEWRQObbYT+7c7LBSM3oQDyQoj8RoafBS+cKQdK1j7/6CYvB7l7cQFRXiL9w
u4rBVib6QOm6rT5Kt4/B9Wv7QIbbM792MXHBrpkMQZawMz8rKXvB8vK2QIKYBT9S+HnBO1rXQFrG
sD/lnWbB2eDyQK5YOEApDYHBo/3WQATy+z8ZSIvBUEiRQGjrKEDMioLB9E2vQA2lakAi5nLB4Z+V
QP3toUBxUojB8LLOQC9inEBHUYnBBChlQMxMIUA0SafBfuMDQDYDUEC595fBp9Q0QBhMgEBzHo3B
QeDUQP5/tEDJcL/BDa31QKR4pkBflbjB5e2qQMYZpUCbFb7Bz5DsQLcsiUDtWbDBs4ahQFJsiEAA
vLXBfiHCQPKRdUAlmK7B+wTNQCLfUUDdBpvBqF6EQPRMUkCJ6ZjBIX2zQAmpxb+esanB/5PUQCa7
eb8h3aHBz1awQEo+KL+vt7PBTDLIQH405T7rkp7BOJakQMYiST/ouLDB2QPFQNdUsT/sjKjB4wG4
QECLNkB9eKXBbkzuQO603kAVLJ7BYXnxQBTx6kBzPJLB2EbhQGIfx0ApvIrBVDWwQCs8wUAEc4vB
xbWgQEDkm0AzU4TBnlWxQGCPX0AyDIjBSuirQDjnUkAqo5PBhBCKQJCbOkB706LBOU45QAhIZkCi
pJTBxXLzQPJ+U0BPCZnBwOLbQAsUy0AkvsXB7PMKQZc1skDYo7nBJOSRQJVQr0D1dsPBNhIDQY8R
e0BhUqvBo0KBQJVgeUAmv7TB6Su9QB/II8DSEqzBlg6UQOTKyr/VvqXBS+3VQACGzr/ss5rByiz0
QE40db9bvaXBrGHPQDSMKL/J3bfB05WXQNobiL9nELnBgQGpQEQu2D4LgJrBoZjgQGPVVz+KE5nB
86ikQOOVsz9+AbjB2GqEQB1iSz+bJq3BF6vkQBrztT+lY6zBfDf6QMFJ+UCtHKPB7NkAQU74wUDo
r5/BRrXMQDgh2EDCOaDBJJQJQUKw8UADUZDBtCneQJbsA0Hc2pDBAOLwQLzfqEBr+ozBX9DpQIZZ
z0D/coLB5n+gQC7t3kCq0YjBJG2nQEaFukDWzZPBheerQGaJoUBFNHjBMgl7QBVSm0AEcoTBfo/T
QPalWkDzFYbBdI6fQJM/LUAByoPBfdlkQOIGLUCd8afBO/IEQLXkYkBYOZnB+2A0QD4UeEC++4zB
xeLSQMK8s0CcYb/B8dDzQC0Lp0CFZrjBFEKpQB+Go0Co/73B1SzrQOI6ikBSBrDBjV2gQAcQh0Dy
j7XBfxjBQNYYdUAPVa7BLbvMQPlYT0Di3JrB69qDQGSmV0DUCJnBIa63QOzNyL/9QqrBx6TYQFew
e79ceqLBeXqyQIO/J7+UE7TBgcbKQLsy1D4T2J7BBkOlQBQiQz+At7DB+8HFQGLcrz9doajBH6K3
QBaPNEAjSqXBkfnhQFxhD0E1fY/B7n4BQQbI+0CbQpLBZa3/QDyS1EBvw4rBGszTQGVevkD4oovB
wTHUQGFAlEDfIIXB/sauQCJebUCkJIjBsR+rQCvXXkCqypPBCKuJQGqwNkDSiqLBnJA4QNezbUCn
05TBuz/zQPaYT0Aw9pjBgIzZQHHoyUDhy8XBoOUJQfFus0BkeLnBiBCQQNXwrECfbMPBXWgCQQTl
f0BH1arBTFyAQPBBdUAklLTBlX/CQMf3I8Df56zBeqyYQKna1L8pKqbBXlnbQEn10b8OdJvBvuH3
QPVFar9Of6bB7RbRQNMTG78mZ7jBGruZQNWEib9MXLnBcfCrQBYFrj5tpJrBtxLjQAKkUj/7YJnB
R9ajQG9rsz8+3rfBF3uFQDaNOD+x8qzBywHlQN14uT/doqzBNqjlQDXsHEGmCJXBlHnBQDjHCEEn
N5DBAD3nQGjpFEFBPYfBMYz9QBMu8UBdiprBz6cRQTm5BEF3kJHByGgMQeR+vUC+64zBSDYCQVs4
30DMdYLByNq6QM6300CedojBMwDNQEoqt0DEFJTB+HPyQNVdg0A4rYbB0ejRQGEOnEAJInnB/ICz
QGI3L0CwLoTBXtmQQMNBhUA3SIXByV1kQLXEIUBATqfBTHMDQAShZEC1JJnBXqE0QP1Vg0Aoeo3B

>  <OMEGA_E>  (6) 
nEItP3bwKz9sEig/DJcxP5wXMj/yyio/kJ0nP3hzKD9Udig/tNsoPw==

>  <OMEGA_NBR>  (6) 
     57731

$$$$
50222475
     RDKit          3D

 49 51  0  0  1  0  0  0  0  0999 V2000
    6.7955    5.7563  -23.8351 C   0  0  0  0  0  0  0  0  0  0  0  0
    7.7762    4.9569  -23.2176 C   0  0  0  0  0  0  0  0  0  0  0  0
    5.4413    5.6025  -23.4851 C   0  0  0  0  0  0  0  0  0  0  0  0
    7.4052    4.0089  -22.2441 C   0  0  0  0  0  0  0  0  0  0  0  0
    5.0660    4.6600  -22.5098 C   0  0  0  0  0  0  0  0  0  0  0  0
    6.0475    3.8609  -21.8624 C   0  0  0  0  0  0  0  0  0  0  0  0
    6.3715    3.2015  -19.4652 C   0  0  0  0  0  0  0  0  0  0  0  0
    4.1083    3.3486  -19.1209 C   0  0  0  0  0  0  0  0  0  0  0  0
    5.9736   -1.6288  -20.8562 C   0  0  0  0  0  0  0  0  0  0  0  0
    7.2836   -0.8294  -20.8649 C   0  0  0  0  0  0  0  0  0  0  0  0
    4.9292   -0.9514  -21.7609 C   0  0  0  0  0  0  0  0  0  0  0  0
    7.0466    0.6158  -20.4126 C   0  0  0  0  0  0  0  0  0  0  0  0
    4.6510    0.4870  -21.2927 C   0  0  0  0  0  0  0  0  0  0  0  0
    5.9494    1.3502  -21.2601 C   0  0  0  0  0  0  0  0  0  0  0  0
    5.6583    2.8446  -20.7676 C   0  0  2  0  0  0  0  0  0  0  0  0
    6.2075    5.0999  -16.8063 C   0  0  0  0  0  0  0  0  0  0  0  0
    5.6148    3.6925  -17.0894 C   0  0  0  0  0  0  0  0  0  0  0  0
    7.6926    5.2723  -17.2145 C   0  0  0  0  0  0  0  0  0  0  0  0
    5.3763    3.4306  -18.5250 N   0  0  0  0  0  0  0  0  0  0  0  0
    4.2341    3.0295  -20.3883 N   0  0  0  0  0  0  0  0  0  0  0  0
    2.8828    3.5508  -18.4957 N   0  0  0  0  0  0  0  0  0  0  0  0
    7.5809    3.2012  -19.2707 O   0  0  0  0  0  0  0  0  0  0  0  0
    8.4923    4.1664  -16.7750 O   0  0  0  0  0  0  0  0  0  0  0  0
    7.0823    6.4870  -24.5768 H   0  0  0  0  0  0  0  0  0  0  0  0
    8.8149    5.0707  -23.4909 H   0  0  0  0  0  0  0  0  0  0  0  0
    4.6883    6.2092  -23.9660 H   0  0  0  0  0  0  0  0  0  0  0  0
    8.1612    3.3895  -21.7845 H   0  0  0  0  0  0  0  0  0  0  0  0
    4.0241    4.5428  -22.2511 H   0  0  0  0  0  0  0  0  0  0  0  0
    6.1673   -2.6470  -21.2248 H   0  0  0  0  0  0  0  0  0  0  0  0
    5.5856   -1.6787  -19.8281 H   0  0  0  0  0  0  0  0  0  0  0  0
    8.0014   -1.3072  -20.1819 H   0  0  0  0  0  0  0  0  0  0  0  0
    7.6954   -0.8244  -21.8849 H   0  0  0  0  0  0  0  0  0  0  0  0
    5.3078   -0.9275  -22.7934 H   0  0  0  0  0  0  0  0  0  0  0  0
    3.9937   -1.5289  -21.7266 H   0  0  0  0  0  0  0  0  0  0  0  0
    6.7283    0.6060  -19.3597 H   0  0  0  0  0  0  0  0  0  0  0  0
    7.9914    1.1715  -20.5049 H   0  0  0  0  0  0  0  0  0  0  0  0
    3.9318    0.9526  -21.9826 H   0  0  0  0  0  0  0  0  0  0  0  0
    4.2203    0.4545  -20.2810 H   0  0  0  0  0  0  0  0  0  0  0  0
    6.3247    1.4196  -22.2918 H   0  0  0  0  0  0  0  0  0  0  0  0
    5.6118    5.8401  -17.3606 H   0  0  0  0  0  0  0  0  0  0  0  0
    6.1239    5.2959  -15.7271 H   0  0  0  0  0  0  0  0  0  0  0  0
    6.3174    2.9361  -16.7096 H   0  0  0  0  0  0  0  0  0  0  0  0
    4.6571    3.6042  -16.5556 H   0  0  0  0  0  0  0  0  0  0  0  0
    7.7556    5.3452  -18.3102 H   0  0  0  0  0  0  0  0  0  0  0  0
    8.0821    6.1964  -16.7625 H   0  0  0  0  0  0  0  0  0  0  0  0
    3.4661    2.9240  -21.0200 H   0  0  0  0  0  0  0  0  0  0  0  0
    2.0342    3.4545  -19.0158 H   0  0  0  0  0  0  0  0  0  0  0  0
    2.8501    3.7925  -17.5259 H   0  0  0  0  0  0  0  0  0  0  0  0
    8.4704    3.4790  -17.4304 H   0  0  0  0  0  0  0  0  0  0  0  0
  1  2  2  0
  1  3  1  0
  2  4  1  0
  3  5  2  0
  4  6  2  0
  5  6  1  0
  6 15  1  0
  7 15  1  0
  7 19  1  0
  7 22  2  0
  8 19  1  0
  8 20  2  0
  8 21  1  0
  9 10  1  0
  9 11  1  0
 10 12  1  0
 11 13  1  0
 12 14  1  0
 13 14  1  0
 15 14  1  6
 15 20  1  0
 16 17  1  0
 16 18  1  0
 17 19  1  0
 18 23  1  0
  1 24  1  0
  2 25  1  0
  3 26  1  0
  4 27  1  0
  5 28  1  0
  9 29  1  0
  9 30  1  0
 10 31  1  0
 10 32  1  0
 11 33  1  0
 11 34  1  0
 12 35  1  0
 12 36  1  0
 13 37  1  0
 13 38  1  0
 14 39  1  0
 16 40  1  0
 16 41  1  0
 17 42  1  0
 17 43  1  0
 18 44  1  0
 18 45  1  0
 20 46  1  0
 21 47  1  0
 21 48  1  0
 23 49  1  0
M  CHG  1  20   1
M  END
>  <OMEGA_C>  (7) 
l3TZQDUzuEAxrr7B+tb4QLmenkC3vbnBNh+uQJxHs0B64bvBlvfsQJRIgEDp87HBDB2iQGselUAZ
FLTB9ITBQFUYd0Al5q7BAOPLQELlTECwuJvB7XaDQMdOVkCh95jB6Se/QHx90L+G2abB5hLpQDlR
VL9S66bBFrydQFiMc79JFq7B5n3hQGiiHT8PTaPBMtWUQCJV+T5hV6rBuWG+QObRrD+/FKrBuBC1
QGoONkAhJKbBpqPGQAIyo0BTc4bBv6yzQI5RbEAWt4jB5in2QEm2qEA+t4nBvgqsQBCPW0AZM5TB
m32HQITjQUAvG6PBqn84QN4/Y0Ah95PBipbyQEfhTEBUKprBd+AHQfZShUBCM4bBT6LiQFWVz0BC
ncTBvQkNQVZDokBg7bvBTwaWQF+xxkBsur/BOpQCQc7sWECbRq7BGcWAQERekUBGArLBjlrFQCFo
KcBjzKnBS72yQAHf1r8BoJ7BqQUAQSRRp7+edKHB9kD2QKoJU783FK/BsdmpQDNybb/fWLbBaZh/
QIi0w78m0K3BSU7XQLUjGz+84JrBkrn/QDH0lT8WCqTBEaN7QMvbcz9R3K/B8QyHQPiv6D6DP6LB
4GPKQKK0tT+fVbLBIpSzQP/hukCP4orBS/fDQNN3qUBkonvB9SfKQG7oO0AyrYXB+gaVQJerZkDY
cYTBiy34QNYLq0Bie5LBYFABQbRIxkCaGYbB0dRdQDQjO0D9KKjBzy8CQJ4WXUBsIJjBbGg2QLS3
ckD5NIzBrIYHQXynXkBucYvBkuXUQJf7tUDxF7/BtxP0QG6Wp0Di07fBPMaqQPhXpkCfb77B9ivp
QNzAiUAH3a/B/LufQGpjiEDAgbbBr5u+QIhndEAC/K7BmKXJQB7oQkBzz5vBMFaCQDxKV0DN7ZjB
0VvaQKHrtb/VGKfBa8nlQO4SC78XybDBLHWsQLlKkL/5baPBpE7iQOPKcj+D+63BGi2oQAXxsD7b
VaDB8N20QPFCpz+0xKnBOKaxQOIUNEA5O6bBG9zGQCtGgEDXlYPBhKOwQMB/NEAh24jBGNyqQPpQ
qEDNkITBlsepQKbsREDKOZTBzNCEQEhDRkD7KaPBrP07QN66c0C5pJPB8d7vQECcOUCn6ZnBTx6/
QFZdykD6J37BN0ndQK8KzUCFLcXBzToKQd13s0CLXbjBE9ySQNtcsUA5CMTBPq8AQWcffUCVXarB
/fF+QM8peEB9JLbBBvvcQJbNHsCeWqnB66bwQCtimr8IgqDB52IDQZLRQ78yS7PBLKzPQJAvRb8G
Y7fBrh+WQINArb90/KnBncSkQP664L+zd5zBrgP6QIwbmD9rxKfBVvboQNWXxT9rMbXB9MKGQBVQ
Cz/qEZ7BQDe9QHA3DD/ad5nB4u6dQJnzkj+OUrDBZFjMQMxWckAGJ3bBarrlQCEHhkD6j4fBYLvE
QONW9j/C7ofByI2RQOHCKUCI84TBK/KmQHnDsEBhDY3B0keLQNUjokB9/4DBH+NXQBahRUBoMqjB
35IFQJXHfEAPs5fBKwE+QHEvf0DUxovB7w2uQKNt40A0QH/BKtLNQIpauEDZ773BXS7wQBPgqUDB
o7fBNMKkQHS7pkCUh7zBzYPpQGLQiUAX76/B0cydQEMMh0AdurTBfAvAQARQcUBmNq7Ben7NQALN
UED2OZvBpeOEQC4xXkDNyZnBarq0QJABzL9WqarBgu/QQMgqi7+AdKHB7MG5QD/pL7/KhLTB85HE
QBzCsT6hdJ7B4F2tQLZgQj/x07HBbxLIQIOJpz9FRqjB83G4QGJkL0AmQ6XBExikQNrqfkCODILB
QvixQChJl0ClRozBxJq4QJqTJUDmMIHBZ5OsQLAqeUCl0ZXBmt2KQGInLUCmJqLBDj46QND+ckCM
nJXB9pHzQJj0TUDy2pjBGt3lQO6yK0CLToLBRvHSQDoB0UAF28PBZdgHQW5kt0CGubjBH4OKQFKR
sUBqdMHBfBgCQc5DfEAaSKvB/nJ8QKc9c0CRsbPBile+QLaZJ8AVxKzBlQ6TQP+ly7+oGKjBa5rM
QGu13r9rdJrBS6ryQLjqjb9P96PBDkfbQOc0Nr+ZMrfBt+qkQAFNh7+29rrB7mWjQIgOtT4dg5vB
CxzaQILtMz+FGpjBcROzQKQjsj+b4rjBIzeLQJSmSj8stq/Bz9TpQPD9rj/xuKrBX62tQK+BkkA9
GHbBnRSBQDS1d0CvIILBqGOeQHhTtEArJ43BYN/TQKtHoEBkiYvBm++wQOa2CUAxrnLB7sirQPJ+
+D+sjYfB1CloQCFlC0Dg26XBhRQFQOkUXEDTBZnBWgs2QL50jEAkMI/BcdbsQDX8NkB/kYnBEZjX
QDoUq0BcRcDBqlv4QFr1mECpAbrB2XOsQACio0C7o73ByAnuQAdFf0APDrHBN/ahQLA0ikAPvLTB
Sa7CQESJcEADPq7BJUXMQG9RVkBokJrBnz6DQCPlWkAgnZjBdnG2QCBDv79Gwa3BNLC6QPdpj79A
1qHBJinQQOewBb/0zbTB+oCsQHAtqj4c2p/B7YPBQIMYbj83/bLB1vfFQNxSqz/Q/abBJJG3QKYv
NUBnyqTBEzvRQDK6qkCHrIfBaTOwQJjnhUD/pIjBbH3WQJ1KuUByEXjBX9WqQGh3b0CG5ZPBiV+J
QKHIOkCqOKLBChE2QCehZUBSCpTBd6/yQDYdV0AqkJjBC675QBJU1kBCzHbBVpPfQCSzvkAPGcfB
nroMQdh9nkAYErzBxlmTQPd3sUCMd8LBUKcDQSJxY0DnS6zBG8qAQMxFhEBY0bLBWZjCQNT+IMDb
9a7BcYOUQBu1ub9iErDB+4KmQMjQ5b/rDp3BYU3cQCnPnb+QYp/B6FLyQKxiG7+wy7LBp1vLQIdJ
Sb8tQ73BYjOKQFNJ2D6NsKHBD/axQBboFD/mY5fBIFPVQA71zD+P5bfB6syfQFI/gz+PZrXBFPvn
QBoYoT800aTB0lbwQN+Dn0DFsIrBmEfGQN4CxkBkg4zBUTu7QAs7VUCH0YPBCiWRQMgdkUAomIXB
QBa5QEJkyUAWs3LBbrjcQK9anUAQ023BmMZjQCuEKED4JqfBapwBQGWOVECuGJjBT7EwQO1rfkAS
sozBdC/9QF2I30DyamjBxoHVQPyiskA2k7/B0LLzQMpFp0B8urfBIg+sQNYHoUATQb/B1WfoQOS0
ikBhgK/Ba5+gQO9lhEAEB7fBDl++QIEVc0Ax5a7BG7DJQDG6QUAli5vBF4CCQEMZXkBtupjBYdva
QMO7tr9e3qfBzwvoQDUoAL/WI7HBOGysQJk6kr8Fb6TBpIzjQBBPej/Y963BmEqnQKSXpD7S7KDB
RlC1QHZVqD+F7anBjWSxQDl4M0D4/6XB6h3eQFosk0A62YbBU660QME1cUBny4jBQwjfQKpCvkAn
+4zBTrOrQIeEX0BAOpTBp6eEQMnbRUCuy6LByB45QG9uckDBfZPB25vvQIWrM0AOv5nB5KbhQJoJ
uUBYUJjBzhveQI/WyEBo1sXBhs0JQQaAtEAbBbjBsvmUQLl8qUCoU8XBx+7/QGi6gUCFlanBkvCA
QJgzbUCH6bbBMHbdQD1fHsAUfarBYVDwQMn+oL+1BqHB9skEQQL1M7+tRbPBd2rTQDrXM7+4FbjB
ieWWQCilq792NqvB7PmjQHKf5r+utp3B5IX6QFeVmT+8iqfBgMDqQAI+zT90+rTBs3+FQO99AT+r
857B0ia7QMsm/j6qy5nB50OfQLDSlz+mtbDBxq7gQC3vmUD2eHzBLMD5QMDhf0CvaonBmfO3QMqs
M0A5mYTBRG+ZQApuikBBc4XBcZ/BQEcS0EBsGIvBVgL7QPSy0EDOSIrBNcJWQOiHQEAQqKfBJGQB
QCoJb0DfZpfBek06QLg4gkDm0IvBpxviQERY1EDYppvBrAjSQNp4tkC/ZL7BRRvyQD+xpkDlkLfB
PuKnQIP8pkCjiL3BGQDoQPmsh0Cd1K/B2pidQOXsh0AQzrXBIWK9QOvPcED8uK7BThXKQBU/RUAE
1JvBr6SDQNqYZECNYpnBLMrZQPM0v78NlajBXufkQDaSC78Y37HBtBOtQDEcl79zHaTBldniQDE3
bD/2Q67BRuGqQBJpjT5kVaDBKPe1QIfIoD+/pqnBsbaxQFWaL0Bq96XBdfKsQOclZkAdJYLBq9O3
QDS6j0BGwovBgjDCQGOvDUAcKIPBXm6tQBR7dUDq7ZXB5e6EQCdKPUBhoqLBZJA8QGWBeEAr8JPB
kEHvQFQwNEB/f5nBnFq6QC/Quj+8iHPBl73ZQIV8zkD7TMTBE0AJQZhnskAcRLjBH1mPQC3+skCg
08LBz2sAQcykdkDArarBwZJ6QLCyd0DzRLXBl2baQGUIIsDofavBTpzxQCGgr79PLaLB17gCQT23
RL9otrTBt/TNQEOjM78CbbjB5w+VQKnSq7/aaqrBfl2mQJuJ7L/2Up3Bai/7QC9WjD+WD6jBkETp
QLmYyT/gKrXBsFaKQPES+z73cp3Brt3BQIKc2D72xZnBOmieQAOziz9GDrDBrVe4QFucgkCOj3XB
ywiKQDrTXUCauYHBq2mlQCagrUC/JIvBnz/aQGoQl0Dym4vBBMy0QOSr1z/DG4rBZ+TkQGm7FUDu
O4TBNYJWQLwnK0DZ1abB5ckDQNeyaECyDpfBM3Y/QF9Vi0A95IzBtX3HQBFDGz/Nz3TBXvPZQB8v
t0Cazr7BqjT5QGRcnUBg5LnB66auQL3OskAC67vBOEDtQAK1fkCmB7LBK4+iQEzwlEByDbTBwNzB
QD9UdkDH467BTSTMQFQ3TEArk5vBjZSDQECFVECO65jBe/O9QP2p0b9TNqfBxgjoQPmqV7+6CKfB
D+KcQKclcb+Vca7BIH3gQFxFGT+GOaPBh0eUQGnb/D7ylKrBxCa+QL8brD98GqrBCl21QOueNUBg
GabBUjnLQIsNoUCY9obBKpizQCnKa0C6oojBQOGzQJYnx0CwNozB1QKsQOsrWECQD5TBGsWHQLuj
QUBmGaPBsLo4QB0yYkA29ZPB3bzyQG17UUDb4pnBPhuKQHX5y0APx4fBZzTjQK5VzkBWysTBCDQN
QWWQoEBdJ7zB1qaWQG1oxkBzvr/Bo6sCQVjAVkBWXa7B9jyBQNOQkUCu67HBKjHEQJKWKcC5SqrB
RyaxQJtN2r9YCJ/B36n+QOv4qr/FkaHBzp71QGowUr+AJq/BaTWpQEz4aL++rrbBaJJ9QK2Iwb8h
RK7B85XVQAXcEj8i3JrBntz+QH5Wkz8Au6PB8mZ7QDi3eT8xILDBNhSGQHUg6D5FiaLBXLfKQP1N
tT+5TbLBDeLNQIArp0A3pXzB9m3rQE6EnkA8dYrB/xHHQEc6OEDcJIXBL4mUQIPHbkDggoTBe1bG
QOeX5EBRzorBWC6xQMxwwUDj3pTBppNeQEIKPEAGNKjBg48CQCXTXUDpLpjBd3k2QJpncECgKYzB
7T94QCeE40BlFIvBAl3aQOTUtkCk277B23/5QAjRnEA+9bnBnhGvQMbBskAJ8LvBC3DtQC7ifUDX
ErLB0t2iQNsAlUCQDrTBlw7CQKIfdkDJ567B2RXMQG83TEDgi5vBP6KDQKZWU0B455jB33S9QBvl
0b/xTKfB2J3nQPnWWL9ME6fBpXicQFQCcL/ghK7BECjgQE4CGD+MN6PBZweUQJP8/j6ioKrBTwS+
QIX/qz81HarBGG61QKGiNUAPG6bB3TC2QEoMpkCiJYfBMxuzQCFQakDPpIjBmVm9QJPzsEBqhnbB
COKrQG6ZU0Bi9ZPButiHQNzeQUAJH6PBQS05QJs7YkAq65PB35nyQC9GU0Aw1pnBuV7AQCEy3kAD
53PBwLTjQGflzUB92sTBlFgNQTDFn0CKP7zBRiiXQJeAxkBwwL/BxLcCQQ6sVUANaq7BpIuBQNPY
kUB+57HBnKXDQKSdKcBOaqrBoZmwQFQH27/hIJ/B7yr+QJwnrL8ZnqHBXkP1QB6CUr9KL6/Bds6o
QB99Z7+4wbbB6518QIuJwL/aWq7B8hrVQG3OED9u3ZrBY5X+QPBrkj86rKPBixZ7QKn/ez8mK7DB
w8aFQIOv6T6GlqLB367KQPcNtT8aTrLBuSfRQP1nskCr4ovBzEmYQMcEtUDr5InBaiPRQKO5TEDZ
7IXBylWYQEfUUUCf0YPBJVGiQFLGpEDZCW3B+i3bQDjloUBu/XDBeNBeQFtdPUA0QajBX/YCQEzz
X0AWKZjBIzM3QJU7b0DbFozBE8jEQGC85EAdOWXBWUTVQIU8tEAhkr/B+ez1QBLdpkCulbjBw12r
QEu6pEDBOb7BIMHsQK4YikDnOrDB4PihQNVBiEC51LXBsnTCQO8cdkC1l67B6YjMQJGST0DO+JrB
8GiEQAZdTkCB8pjBW7OwQCbew78nw6nBh0DQQEgugb9oXqHBnt+yQBbZKL+R47PB323FQMzb3j4N
dp7BVt6nQD1mTT8xU7HBf8HFQERqsD+/gKjBDzW4QKQsNkAljaXBYiuoQEQ3j0A894LBa+iwQHY7
RkBK/4fBDUrCQP8is0B0SojBV42rQPD3RUCQqJPB1ACKQA4JOkB6/qLBz5E7QNHHZ0BAgpTBAbHy
QOBKV0CE4pjB1sCwQCf1vUBffpLBOl3cQLtjykDn9cXBnA8LQcKzskB+ornB/FySQLGwrkA6pcPB
oBQDQS3FfkBeBavBvsOBQM6ieEDS4LTBzfC4QOJbJMAv06vBAxCQQG6Sv787eqbBjD3OQFtn0b+F
J5rBTO7wQIPHhr/YnqTBnG3TQAsRNb/LNrfBNe6bQOukhb/Ez7nBsGSlQPY57D4Z0prBiSvdQI02
TT+bqZjBYnKrQE7Jsz9morjBn4mGQBo3Wz9Yh67BjpHmQGo5tD/4ravBYOyFQLealkC20YPBOIqw
QCrmjUBc2XTBZffRQINWM0BqHIbBQI+aQJqJF0C+goTBisbBQP6az0DvHYPBBYPjQFdMqECyWInB
uNRkQMezLkAVNqjBSjkHQB2Ta0BPFpnBXTM4QGBRdkCzuozBOEvBQEMj1EBlpJXB4oXbQKIit0DR
mr7BFVj6QEeznEAqurnBth+wQONGs0BBwrvBrdXtQAwmfUCR9LHB832jQDtflUC99LPBF1nCQDv0
dUBs1q7B/APMQHVXTEBOjZvBd6+DQFGEUkC42ZjBPfS8QNRY0r8dRKfB2SPnQOdVWr88BafB8hmc
QIItcL8Sgq7B/HLfQDVZFT8QJqPBS7+TQEMVAD+lqKrB/dG9QD6nqz+eGarB1le1QDZ/NUAQE6bB
ubDZQE8MSEBT4oLBAmayQNH0b0BDrYjBYjfbQATAyj+dX4PBuvirQKJ1UkAE2pPB092HQNjiQUDr
FqPB7/w4QCQgYkCB9JPBXpfyQORRVUCEH5rByxG1QNT4gT9jLn7BJi7lQPFdzkBAh8TBps8NQW2H
n0DZ8rvBVnSYQHdQx0Bykr/B4scCQeMPVEBxVq7BxhuCQPp1kkC417HBlxvDQKneKcBRYKrBQgOw
QH5c278QGp/B4ar9QJXurL/QjqHBYNr0QHdmU79PH6/BFIGoQHiqaL+JvbbB2r97QIIywL/jWK7B
buvTQJqtDD+q1prBTuv9QBD8kD8yeKPBWOp6QKLPfD9+PrDB2UuFQMAo7T7ao6LBzbXKQGqMtD8a
RbLBLPP2QN44YUA5oYbBdrbYQJN6W0Df23TBromVQNTAX0BZEITB3JO2QPPsmkBtzYjBTrzeQE9i
oj8QwovBp832QFEUnT+sbH3BhtteQBgOPkBnO6jBZyYDQFkCYUBFR5jBMnY2QEt3bkCQHIzBQba2
QJBBiz348X7B

>  <OMEGA_E>  (7) 
cDEkP2QlIT8kcSE/kAIiP+LRIj/KjCM/OJcjPwDSIz9cLxo/9OolPw==

>  <OMEGA_NBR>  (7) 
     91262

$$$$
