50215516
     RDKit          3D

 42 45  0  0  1  0  0  0  0  0999 V2000
    6.7173   -0.7351  -22.2459 C   0  0  0  0  0  0  0  0  0  0  0  0
    5.1691   -4.3369  -18.0510 C   0  0  0  0  0  0  0  0  0  0  0  0
    6.1967   -1.6919  -21.3626 C   0  0  0  0  0  0  0  0  0  0  0  0
    5.6980   -3.3794  -18.9285 C   0  0  0  0  0  0  0  0  0  0  0  0
    6.4671    0.6294  -22.0345 C   0  0  0  0  0  0  0  0  0  0  0  0
    5.1387    0.0793  -20.0630 C   0  0  0  0  0  0  0  0  0  0  0  0
    3.8348   -4.2079  -17.6146 C   0  0  0  0  0  0  0  0  0  0  0  0
    3.5583   -2.2256  -18.8418 C   0  0  0  0  0  0  0  0  0  0  0  0
    5.4038   -1.2905  -20.2677 C   0  0  0  0  0  0  0  0  0  0  0  0
    4.8829   -2.3032  -19.3323 C   0  0  0  0  0  0  0  0  0  0  0  0
    5.6719    1.0560  -20.9418 C   0  0  0  0  0  0  0  0  0  0  0  0
    6.3327    2.8489  -19.3710 C   0  0  0  0  0  0  0  0  0  0  0  0
    4.1102    3.0788  -18.8743 C   0  0  0  0  0  0  0  0  0  0  0  0
    6.3593    4.8883  -21.6395 C   0  0  0  0  0  0  0  0  0  0  0  0
    7.2099    3.8021  -22.3150 C   0  0  0  0  0  0  0  0  0  0  0  0
    5.7813    3.4780  -21.8390 C   0  0  0  0  0  0  0  0  0  0  0  0
    5.5039    2.5450  -20.6127 C   0  0  1  0  0  0  0  0  0  0  0  0
    5.7472    3.3406  -16.9607 C   0  0  0  0  0  0  0  0  0  0  0  0
    3.0565   -3.1708  -18.0105 N   0  0  0  0  0  0  0  0  0  0  0  0
    5.4077    3.0116  -18.3515 N   0  0  0  0  0  0  0  0  0  0  0  0
    4.1294    2.8224  -20.1630 N   0  0  0  0  0  0  0  0  0  0  0  0
    2.9622    3.3323  -18.1402 N   0  0  0  0  0  0  0  0  0  0  0  0
    7.5511    2.7858  -19.2512 O   0  0  0  0  0  0  0  0  0  0  0  0
    7.3120   -1.0491  -23.0909 H   0  0  0  0  0  0  0  0  0  0  0  0
    5.7768   -5.1634  -17.7136 H   0  0  0  0  0  0  0  0  0  0  0  0
    6.4038   -2.7399  -21.5215 H   0  0  0  0  0  0  0  0  0  0  0  0
    6.7126   -3.4654  -19.2886 H   0  0  0  0  0  0  0  0  0  0  0  0
    6.8844    1.3610  -22.7105 H   0  0  0  0  0  0  0  0  0  0  0  0
    4.5242    0.3871  -19.2299 H   0  0  0  0  0  0  0  0  0  0  0  0
    3.4232   -4.9525  -16.9494 H   0  0  0  0  0  0  0  0  0  0  0  0
    2.9336   -1.3952  -19.1361 H   0  0  0  0  0  0  0  0  0  0  0  0
    6.6169    5.2388  -20.6292 H   0  0  0  0  0  0  0  0  0  0  0  0
    5.9713    5.7300  -22.2319 H   0  0  0  0  0  0  0  0  0  0  0  0
    7.4302    3.8656  -23.3909 H   0  0  0  0  0  0  0  0  0  0  0  0
    8.0757    3.3744  -21.7882 H   0  0  0  0  0  0  0  0  0  0  0  0
    5.0372    3.3965  -22.6450 H   0  0  0  0  0  0  0  0  0  0  0  0
    4.8255    3.4103  -16.3644 H   0  0  0  0  0  0  0  0  0  0  0  0
    6.3939    2.5537  -16.5453 H   0  0  0  0  0  0  0  0  0  0  0  0
    6.2769    4.3042  -16.9308 H   0  0  0  0  0  0  0  0  0  0  0  0
    3.3236    2.8166  -20.7552 H   0  0  0  0  0  0  0  0  0  0  0  0
    2.0694    3.3276  -18.5906 H   0  0  0  0  0  0  0  0  0  0  0  0
    3.0268    3.5198  -17.1600 H   0  0  0  0  0  0  0  0  0  0  0  0
  1  3  2  0
  1  5  1  0
  2  4  2  0
  2  7  1  0
  3  9  1  0
  4 10  1  0
  5 11  2  0
  6  9  2  0
  6 11  1  0
  7 19  2  0
  8 10  2  0
  8 19  1  0
  9 10  1  0
 11 17  1  0
 12 17  1  0
 12 20  1  0
 12 23  2  0
 13 20  1  0
 13 21  2  0
 13 22  1  0
 14 15  1  0
 14 16  1  0
 15 16  1  0
 17 16  1  6
 17 21  1  0
 18 20  1  0
  1 24  1  0
  2 25  1  0
  3 26  1  0
  4 27  1  0
  5 28  1  0
  6 29  1  0
  7 30  1  0
  8 31  1  0
 14 32  1  0
 14 33  1  0
 15 34  1  0
 15 35  1  0
 16 36  1  0
 18 37  1  0
 18 38  1  0
 18 39  1  0
 21 40  1  0
 22 41  1  0
 22 42  1  0
M  CHG  1  21   1
M  END
>  <OMEGA_C>  (1) 
3vPWQE8uPL+w97HB7GilQKHHisCHaJDBk0vGQJqR2L+q5qrB9lW2QI9IWMCQbZfB1/LOQDYiIT+V
RrDB3G+kQPx0oj0bgaDBHG51QPemhsCs6ozBFLtjQPpvDsDtu5bBLeysQJ0upb9CJKLBWkCcQH1n
E8CFqJrBlYC1QGcshz/biKfBmqXKQDhUNkDb95rBY4aDQHELRUCY/pbBoH/LQK1snEDDHa3B0rfm
QGtVc0A4hbLBywC5QDSXXkA/tq7B3x+wQFfhIkC85qTBGum3QGnMVUCCr4fBup1DQBPvSsCFFZDB
8wutQBy+QEDpz5LB+yOEQPGiNEDOTaHBCJU9QO1DVUAWH5HBZ6LxQLxKMkCMAprBUPzpQHxJhr89
urjBNtu4QNY6pcBftY3BBezMQAxbL8ABLKzBQM3WQNLIXcAPT5rBLk3cQKA2rj8Zr7XBGsaQQNox
xj7d1pnBEhVbQJp6nsBQmIfB9b87QACWsr+nFpnBb73TQFSkp0CVCKXBRRW/QHVct0Dr2rHB28Pt
QHxmd0CSILvBAjYBQTn2V0A8Tq7BnjChQIFfWUDcKLXBdGqaQONCWkBD6oLBnprMQI1vI0C3XITB
P9zIQBm8iUBHcofBnrZUQMJCNECyCqbBlnEEQLb3VECduZTBe7ZBQDVEYUDDR4nB8XDVQIwOPL9V
FLLBpABLQHDcVMAyio/B0GLEQIvl2b8DL6vBEkpkQMy2E8CfnZbB2bzNQCNiID/8MbDB2M+iQFbM
WD10iKDBHPCCQJzWisDWw4zBiqa3QJFGWcAvvJfB0i2rQGdqqL/LWqLBxO+bQAoMFsB+05rBFCO0
QBgRhT/lcKfBt6vJQFqaM0Acr5rBpyKDQLMXTUB7CZfBo8zKQC4OnEAHpqzBoE/mQKnRckBHAbLB
rV+4QHj4XUAQXq7BrRWvQLN8IUDOpaTBsFC3QPqPXEBirofBixyrQI13i8AW0pDBaSCsQLDYQ0DW
qpLBICSDQB93M0CQC6HBir8+QAstakB4kpHBTWnwQGLcKkCDl5nBrY3oQAzShL+B27jBURQLQPxU
VcDnQIzBB5TKQEDyL8B4o6zBR584QF0Awr/fxpjBi3LbQKoArz98d7XBXh2PQJhXsz4U2JnBf2Ry
QGy0o8D8R4fBKKjXQNNkW8Dc+5rBmpjSQDAYp0DkhaTBYKi+QHUZt0C/ZLHBx9XtQBFAd0BwlbrB
AeMAQYc9V0CVtq3BVeqgQMgHWUA45rTB6eSZQKqCZUA0+4LBYuHKQEDwKUDEAoTBW5DJQExgjECG
0ofB0fJRQOUQLUCFlKXBEgYGQJmxbEBqQ5XBFuJDQNqifEBp8InB

>  <OMEGA_E>  (1) 
yHcYPzIfMz8=

>  <OMEGA_NBR>  (1) 
     26123

$$$$
50220795
     RDKit          3D

 50 53  0  0  1  0  0  0  0  0999 V2000
    8.0734    3.9835  -22.6875 C   0  0  0  0  0  0  0  0  0  0  0  0
    3.1658    4.5535  -26.2519 C   0  0  0  0  0  0  0  0  0  0  0  0
    7.2870    4.4524  -23.7398 C   0  0  0  0  0  0  0  0  0  0  0  0
    3.9290    4.0616  -25.1989 C   0  0  0  0  0  0  0  0  0  0  0  0
    7.4816    3.2970  -21.6274 C   0  0  0  0  0  0  0  0  0  0  0  0
    5.3173    3.5480  -22.6720 C   0  0  0  0  0  0  0  0  0  0  0  0
    3.6082    5.7000  -26.8930 C   0  0  0  0  0  0  0  0  0  0  0  0
    5.4505    5.8596  -25.5290 C   0  0  0  0  0  0  0  0  0  0  0  0
    5.9091    4.2346  -23.7322 C   0  0  0  0  0  0  0  0  0  0  0  0
    5.0943    4.7210  -24.8243 C   0  0  0  0  0  0  0  0  0  0  0  0
    6.1037    3.0791  -21.6198 C   0  0  0  0  0  0  0  0  0  0  0  0
    5.2722    3.1669  -18.4439 C   0  0  0  0  0  0  0  0  0  0  0  0
    4.0039    3.3319  -19.0734 C   0  0  0  0  0  0  0  0  0  0  0  0
    6.6191   -1.8640  -20.6056 C   0  0  0  0  0  0  0  0  0  0  0  0
    6.5920   -1.0860  -21.9173 C   0  0  0  0  0  0  0  0  0  0  0  0
    5.4760   -1.4513  -19.6843 C   0  0  0  0  0  0  0  0  0  0  0  0
    6.5838    0.4222  -21.6769 C   0  0  0  0  0  0  0  0  0  0  0  0
    5.4646    0.0561  -19.4402 C   0  0  0  0  0  0  0  0  0  0  0  0
    5.4292    0.8432  -20.7575 C   0  0  0  0  0  0  0  0  0  0  0  0
    5.4742    2.3457  -20.4893 C   0  0  1  0  0  0  0  0  0  0  0  0
    5.5423    3.6068  -17.0446 C   0  0  0  0  0  0  0  0  0  0  0  0
    4.7348    6.3676  -26.5571 N   0  0  0  0  0  0  0  0  0  0  0  0
    6.1691    2.5953  -19.1927 N   0  0  0  0  0  0  0  0  0  0  0  0
    4.1044    2.8372  -20.2936 N   0  0  0  0  0  0  0  0  0  0  0  0
    2.9814    3.8868  -18.4548 N   0  0  0  0  0  0  0  0  0  0  0  0
    9.1463    4.1535  -22.6935 H   0  0  0  0  0  0  0  0  0  0  0  0
    2.2533    4.0561  -26.5600 H   0  0  0  0  0  0  0  0  0  0  0  0
    7.7630    4.9863  -24.5590 H   0  0  0  0  0  0  0  0  0  0  0  0
    3.6032    3.1637  -24.6798 H   0  0  0  0  0  0  0  0  0  0  0  0
    8.1015    2.9349  -20.8113 H   0  0  0  0  0  0  0  0  0  0  0  0
    4.2431    3.3744  -22.6601 H   0  0  0  0  0  0  0  0  0  0  0  0
    3.0491    6.1248  -27.7203 H   0  0  0  0  0  0  0  0  0  0  0  0
    6.3480    6.4212  -25.2859 H   0  0  0  0  0  0  0  0  0  0  0  0
    6.5566   -2.9383  -20.8127 H   0  0  0  0  0  0  0  0  0  0  0  0
    7.5766   -1.6913  -20.0989 H   0  0  0  0  0  0  0  0  0  0  0  0
    7.4627   -1.3572  -22.5250 H   0  0  0  0  0  0  0  0  0  0  0  0
    5.7010   -1.3686  -22.4915 H   0  0  0  0  0  0  0  0  0  0  0  0
    4.5205   -1.7556  -20.1291 H   0  0  0  0  0  0  0  0  0  0  0  0
    5.5649   -1.9784  -18.7277 H   0  0  0  0  0  0  0  0  0  0  0  0
    7.5422    0.7216  -21.2335 H   0  0  0  0  0  0  0  0  0  0  0  0
    6.5036    0.9411  -22.6395 H   0  0  0  0  0  0  0  0  0  0  0  0
    4.5946    0.3161  -18.8255 H   0  0  0  0  0  0  0  0  0  0  0  0
    6.3558    0.3343  -18.8630 H   0  0  0  0  0  0  0  0  0  0  0  0
    4.4828    0.6198  -21.2677 H   0  0  0  0  0  0  0  0  0  0  0  0
    5.3183    2.7958  -16.3508 H   0  0  0  0  0  0  0  0  0  0  0  0
    4.9218    4.4694  -16.7989 H   0  0  0  0  0  0  0  0  0  0  0  0
    6.5908    3.8883  -16.9398 H   0  0  0  0  0  0  0  0  0  0  0  0
    3.3157    2.8417  -20.9309 H   0  0  0  0  0  0  0  0  0  0  0  0
    3.0676    4.2195  -17.4946 H   0  0  0  0  0  0  0  0  0  0  0  0
    2.0822    3.9958  -18.9228 H   0  0  0  0  0  0  0  0  0  0  0  0
  1  3  2  0
  1  5  1  0
  2  4  2  0
  2  7  1  0
  3  9  1  0
  4 10  1  0
  5 11  2  0
  6  9  2  0
  6 11  1  0
  7 22  2  0
  8 10  2  0
  8 22  1  0
  9 10  1  0
 11 20  1  0
 12 13  1  0
 12 21  1  0
 12 23  2  0
 13 24  2  0
 13 25  1  0
 14 15  1  0
 14 16  1  0
 15 17  1  0
 16 18  1  0
 17 19  1  0
 18 19  1  0
 20 19  1  6
 20 23  1  0
 20 24  1  0
  1 26  1  0
  2 27  1  0
  3 28  1  0
  4 29  1  0
  5 30  1  0
  6 31  1  0
  7 32  1  0
  8 33  1  0
 14 34  1  0
 14 35  1  0
 15 36  1  0
 15 37  1  0
 16 38  1  0
 16 39  1  0
 17 40  1  0
 17 41  1  0
 18 42  1  0
 18 43  1  0
 19 44  1  0
 21 45  1  0
 21 46  1  0
 21 47  1  0
 24 48  1  0
 25 49  1  0
 25 50  1  0
M  CHG  1  24   1
M  END
>  <OMEGA_C>  (2) 
vywBQRHyfkD4f7XBOp1KQHy2kUDgA9LBwC7pQDx6jkAO673B2nR7QE74gUBal8nBPWnvQFgBU0Dk
BK3BDCeqQKQSY0BQYLXBAuxmQApmtkD1JNfBb2quQMaBu0BQO8zBUBe9QOyBh0CA273BZgSjQMIS
l0AimMbBzFHDQLUQRUBV9azBgrWoQFiuSkAPjZPBICCAQDM9VUBglpjBqs/TQDaW7r9e2KTBzfHS
QCQBi7+zVq/BmDuvQFjDub+EeZ3Brq7SQPQq2D42aq3BNN6uQGC5ZT18hZvBRrytQALbVz9DD6bB
Cy2vQEAgFkAQ6qPB1lqxQIzVZkBJW4jBfIOXQA/Dy0AJddTB+GjFQIIZJkCWipnBmVeDQB6UNUBY
WaLBRc8+QOvBeECIo5PBaFcSQZnphEBPjLXBtjUQQFjLgUDpetTBSWr4QIuPn0DmeMTBCJpmQKV5
SkA5cMXBq58BQaPUO0B/fabBbMeHQOX2V0DZR7XB4iRDQCv+w0A8w93BNCPLQGp6zUCXScrBec/R
QEsMPMBXgKbBT3PyQJp72L+ByqDBp87uQAS5rb8lM7TBu262QOgsr7+A7rPBJKiQQCC44L9UCKHB
+BOyQLc8/b9O0pXBFVrxQAK7OD9H3qnBwR3QQOLrcD/AHbXBwgaTQJDboT6wmpbB8WLLQPwoqz54
55bBB3OPQEqrHj9OJKrBXC+qQBjuMkBXzoLBZX+dQO8Ej0AXZIbBzufSQLfaeEC6hIfBSTRUQETe
NUB+cqfB1VJEQAYGh0Dm9IvBgUIFQCq7f0DRYZfB3HsHQYwViEAQS7TBeTmpQGC210BUP9TB9AP4
QCGdmEAH7bzB7a/AQDgKyECZpcvBhBL6QCytX0A2hKzBb0m3QBZLcUCPAbbBYAGGQIpawECenNfB
3LKQQCMWjUAHtcrBri7MQMTkkECFyL3BM2i0QPUKokDrvcbBPT3OQHA8UEC0X63B/jesQGr7SEAp
iJTB6hyFQOqCVEAcOZrBbnS4QOQ/87+izaHB29DgQDQhnL+W+qXBVhWQQN5Lnb9xD6bBVKrgQIhq
jj6kmKPBjMePQGzCiT4MsKPBLjm4QOKxdT/K7qfBcgK4QOdxHECGFKXBdkSxQNobYEBBBonB/TZy
QJBRm0BhC9PBEPrKQFtDKEDVOZrBwYKLQOKcOUDyG6TBTVNFQOaFdED9pZXBw4wYQbUbjkBToLPB
gj6yQOo/9UBnMtjBz2AEQTl3q0Be7MLBpHTcQP/G2UBy28jBMRgGQaolRkCP0KXBcBqVQDX+ZEDX
oLbBQENlQGkvy0CDSd7BqnKFQGSGXkByPcfBcJ24QA9IPcC9HKTBOE+4QMMo77/1B5nB1Bb9QNBg
17/9WKLBLVDjQAQhsL+IpK7B/OaNQAZxsb90uq7BA5pnQKxc2b96fKLBtefiQBQy3D766prBRzT9
QLjDPD+xI6fBP4hmQHinOD/eTKfB3S2NQOSk1z4OBJvBJWW4QIQ1YD9KsbDBRgypQFhyKUD4AITB
VU6cQBfOikApCofBt0jSQDPXckA3cIfBmalnQH9xO0CqpqnB/uBFQDQgg0DTy43BlPsNQHJEfEDh
25nBCmICQSeSmEB/ybDBj8psQGgukkDlCtLBPfDtQK6Xo0Dc+LnB4JuMQJZPhkB838jB3oDxQEIj
f0C15ajB0JmwQLg2eUDZYLPBOu2AQFDUuEB/zdbByli0QE4Fx0A9JsrBDt3DQCGclUDARLvBvDes
QJYMoUC4zMTBr23HQCQsY0CZMarB+i2gQNaHXkAX1JHB0EB0QDIyXEAvHJjBsUaaQBqBwb924qfB
6KGrQLhNjr8d8JzBZiGuQCpxLb90z7DBTySmQCx6xD7I35rBDa+oQL6YUT+9yK7Bble6QFAbnT9P
zaPB1/GyQOLILUA2x6HBtcOgQO5jfEAMf4bBUHCfQI2i00CAE9PBPznCQM4NREAy0ZbB1LeEQAKb
PkD/pKHBxIIpQBhldEBkR5TBgMMSQZp4o0BKx6/BzjQ7QPWwe0D3WdXBYGT9QBAdt0AWDcDB4++E
QGNJUEBd/cTBXcEBQRU+bkCVw6HBb8uPQOArY0BDV7TBkhhhQPqSw0BV+N3BpJnMQEZS3UDnYMfB
aaagQCrBJMAAUqnBBNNuQKcwsb/0+qfBeyibQCJB178sr5bBRqvNQPK4r78TcZzB1U7QQGT9ab9x
d7HBBmifQP93cb9derjBKuiDQOZbHT8gNprBfbW0QDB3Iz99KJPB2g+5QP2bsD+7HLXBbpuGQHLI
iT/MT6/BRATdQJ9Ehj8cxqPBMSKbQPyARkAYIoHBf+aHQOAslkC9QIXBtL2/QAN3jEDapITB3BVd
QHAVN0DrfafBLccjQEDnhEDDmozBBJznP7M+ckAm55jB63QEQV1Yh0AZcbDB2t6gQPS2y0DHitHB
umfxQInnlEAvTbnBaOC4QKgBv0Bvu8jB+qX0QJmSYkBrK6jBjmGxQJqubEArnrHBHqp7QAL2skAs
W9TBCbaJQITrg0DPisbBcqXFQJpmjED147nBQUutQM93mkCuFcPBsuPIQLeQUUAxwqjB2OanQNun
WEA31I/BIICAQAW0X0DPgZXByYbLQHSNqr8F467BXJOdQEP0Ub8Lhq7BnN7jQIolfL9Hr6TBftmb
QKWALT+rLazBKELiQCYfAz8VUKLB0A+0QF7vgz8u4KHBGVWzQM5wIkCc75/BPUCtQHPddkDvloTB
ODZjQFhFj0DbD8/Bs6XGQJRSNUAjR5XBaK+GQAECP0D/H5/BMww8QCbHgEBNKJHBZn4VQaT6jUDt
+6/BtFepQOAR6EAmEdbBNdQAQbYTpkCEr7/BTYTUQDzj0UAqXcbBDpkDQYqpTUAuS6HBR0KPQFcw
X0BDB7LByhtUQDN7u0BeKtvBZvx9QDg1TkCffMLB54PLQCnLGsDuC7DBrwvcQOoWZb9Cy7XBdriN
QPZgg7/SKrbBZbyLQDKBrr/3VqjBZhvWQHbkxL/M7p3B/KACQQBBp7+Ob6XBhpqpQGX/nD8M9rLB
dK10QKX4fT/1gqvBLWfyQHqCNT9cr5rBcDj0QDKfhj+TgKjBYcOjQEyxCz/lIJvBj5elQFY6Q0D3
FH7BWQSYQMxylkA/EIPBqjPOQECqhUCvRoPBZI5dQD/cPECKmqTBf/w8QDAEjECFf4nBIUcEQFIC
g0CtWpXBKOgGQftWTkCbWbbBMralQFv+BUH86rXBfhsCQd0gkkCFM7jBEUauQEz84EALB7TBgSH1
QIfVHkBjMq/BNEHJQOWSjUDWv6vBlMDHQIovE0EAkbjBmsn3QOXZ7kANh7fBJPDhQAhUpUAf57LB
PADYQGbi0UCo1LTBqNrSQNw7RUD95anB4F2oQJwuPUCf45HBQbODQJITTkDzVZjBvnSwQEfAA8Ds
95/BnDHbQPXyt78zIqPBdeGKQD8up79856TB5sncQAD6Uj2WbqDBkVOMQFg2Oz48N6LB9y+3QJZ+
UD84cqXBeIm4QIp4EkDYR6LBHBiqQJCVUUCsPYbBdbTwQHhsDEEDbLnBlAjIQIQpGkD+B5fBt7WM
QERXNECGJKLBdHFBQJQBcUBjY5TBrEEUQQJ1MEC1ebrBV22FQIU6DEG5U7XBfuELQZM6pECtzL3B
GB2UQGmiy0CW77HBhtL8QHTXtz+MzK3BhHeuQEFanECOl6fBgsrCQCMWJEEIHrrB5YIMQVYd5UAr
R7jB85ivQKTgRsDAf6LBPGKtQNRPA8DwOZfB9Ez1QESz+r8mB5/BgFvgQPBEyb8Fv6vBk2OLQIqb
t791nq3BcHNZQFQv3r/7CaLBcFPcQHxuMj75tJfB2Cv7QKT58D5oQ6PBn+ljQDquMT9rT6bB8wyH
QLTboD4pmZnBazG6QH5vQT/ZL67Bs8CeQIABG0C8mYHBTP2VQDh5hEBfhITBeufKQDBUYED354PB
QipuQOjQOUDQJqjBkJk9QJicgEDdf4zBvqcNQNmUfEBOIpnB

>  <OMEGA_E>  (2) 
8m1EwUEEP8E2jT3Bl15DwbKYQME=

>  <OMEGA_NBR>  (2) 
     17614

$$$$
50158051
     RDKit          3D

 53 56  0  0  1  0  0  0  0  0999 V2000
    6.0611   -0.7726  -22.4176 C   0  0  0  0  0  0  0  0  0  0  0  0
    7.2270   -4.9550  -15.7306 C   0  0  0  0  0  0  0  0  0  0  0  0
    5.8093    0.6026  -22.2480 C   0  0  0  0  0  0  0  0  0  0  0  0
    6.3425   -1.5821  -21.3010 C   0  0  0  0  0  0  0  0  0  0  0  0
    7.1134   -4.7150  -17.1633 C   0  0  0  0  0  0  0  0  0  0  0  0
    6.0648    0.3496  -19.8418 C   0  0  0  0  0  0  0  0  0  0  0  0
    7.7082   -3.7971  -15.1733 C   0  0  0  0  0  0  0  0  0  0  0  0
    5.8875    1.1978  -20.9589 C   0  0  0  0  0  0  0  0  0  0  0  0
    6.3267   -1.0171  -20.0067 C   0  0  0  0  0  0  0  0  0  0  0  0
    7.5198   -3.4219  -17.3743 C   0  0  0  0  0  0  0  0  0  0  0  0
    6.3881    3.1770  -19.4515 C   0  0  0  0  0  0  0  0  0  0  0  0
    4.1351    3.4890  -19.1871 C   0  0  0  0  0  0  0  0  0  0  0  0
    7.5196   -2.7115  -18.6504 C   0  0  0  0  0  0  0  0  0  0  0  0
    6.3463    6.1334  -23.5547 C   0  0  0  0  0  0  0  0  0  0  0  0
    5.2422    5.1111  -23.8841 C   0  0  0  0  0  0  0  0  0  0  0  0
    7.5800    5.4327  -22.9620 C   0  0  0  0  0  0  0  0  0  0  0  0
    4.8505    4.3020  -22.6364 C   0  0  0  0  0  0  0  0  0  0  0  0
    7.2037    4.6395  -21.7023 C   0  0  0  0  0  0  0  0  0  0  0  0
    6.0858    3.5952  -21.9998 C   0  0  0  0  0  0  0  0  0  0  0  0
    5.6697    2.7098  -20.7297 C   0  0  1  0  0  0  0  0  0  0  0  0
    5.6465    4.2155  -17.2775 C   0  0  0  0  0  0  0  0  0  0  0  0
    5.4083    3.7462  -18.6531 N   0  0  0  0  0  0  0  0  0  0  0  0
    4.2470    2.8905  -20.3547 N   0  0  0  0  0  0  0  0  0  0  0  0
    2.9227    3.8146  -18.5888 N   0  0  0  0  0  0  0  0  0  0  0  0
    6.5113   -1.7783  -18.8556 N   0  0  0  0  0  0  0  0  0  0  0  0
    7.5768    3.0547  -19.1700 O   0  0  0  0  0  0  0  0  0  0  0  0
    8.4330   -2.8882  -19.4501 O   0  0  0  0  0  0  0  0  0  0  0  0
    7.8737   -2.8774  -16.1715 O   0  0  0  0  0  0  0  0  0  0  0  0
    6.0382   -1.2069  -23.4061 H   0  0  0  0  0  0  0  0  0  0  0  0
    6.9803   -5.8676  -15.2083 H   0  0  0  0  0  0  0  0  0  0  0  0
    5.5548    1.2101  -23.1039 H   0  0  0  0  0  0  0  0  0  0  0  0
    6.5692   -2.6297  -21.4333 H   0  0  0  0  0  0  0  0  0  0  0  0
    6.7758   -5.4168  -17.9115 H   0  0  0  0  0  0  0  0  0  0  0  0
    5.9973    0.7614  -18.8457 H   0  0  0  0  0  0  0  0  0  0  0  0
    7.9199   -3.6392  -14.1261 H   0  0  0  0  0  0  0  0  0  0  0  0
    6.6378    6.6588  -24.4761 H   0  0  0  0  0  0  0  0  0  0  0  0
    5.9590    6.8600  -22.8252 H   0  0  0  0  0  0  0  0  0  0  0  0
    4.3569    5.6459  -24.2586 H   0  0  0  0  0  0  0  0  0  0  0  0
    5.6094    4.4221  -24.6590 H   0  0  0  0  0  0  0  0  0  0  0  0
    7.9978    4.7435  -23.7107 H   0  0  0  0  0  0  0  0  0  0  0  0
    8.3336    6.1898  -22.6997 H   0  0  0  0  0  0  0  0  0  0  0  0
    4.4068    4.9823  -21.8945 H   0  0  0  0  0  0  0  0  0  0  0  0
    4.1113    3.5395  -22.9229 H   0  0  0  0  0  0  0  0  0  0  0  0
    8.0954    4.1131  -21.3313 H   0  0  0  0  0  0  0  0  0  0  0  0
    6.8443    5.3390  -20.9332 H   0  0  0  0  0  0  0  0  0  0  0  0
    6.4844    2.8990  -22.7524 H   0  0  0  0  0  0  0  0  0  0  0  0
    4.7134    4.6240  -16.8622 H   0  0  0  0  0  0  0  0  0  0  0  0
    5.9863    3.3734  -16.6566 H   0  0  0  0  0  0  0  0  0  0  0  0
    6.4180    4.9994  -17.2861 H   0  0  0  0  0  0  0  0  0  0  0  0
    3.4731    2.5961  -20.9153 H   0  0  0  0  0  0  0  0  0  0  0  0
    2.0628    3.5936  -19.0489 H   0  0  0  0  0  0  0  0  0  0  0  0
    2.9108    4.2698  -17.6985 H   0  0  0  0  0  0  0  0  0  0  0  0
    5.8596   -1.6408  -18.1096 H   0  0  0  0  0  0  0  0  0  0  0  0
  1  3  2  0
  1  4  1  0
  2  5  1  0
  2  7  2  0
  3  8  1  0
  4  9  2  0
  5 10  2  0
  6  8  2  0
  6  9  1  0
  7 28  1  0
  8 20  1  0
  9 25  1  0
 10 13  1  0
 10 28  1  0
 11 20  1  0
 11 22  1  0
 11 26  2  0
 12 22  1  0
 12 23  2  0
 12 24  1  0
 13 25  1  0
 13 27  2  0
 14 15  1  0
 14 16  1  0
 15 17  1  0
 16 18  1  0
 17 19  1  0
 18 19  1  0
 20 19  1  6
 20 23  1  0
 21 22  1  0
  1 29  1  0
  2 30  1  0
  3 31  1  0
  4 32  1  0
  5 33  1  0
  6 34  1  0
  7 35  1  0
 14 36  1  0
 14 37  1  0
 15 38  1  0
 15 39  1  0
 16 40  1  0
 16 41  1  0
 17 42  1  0
 17 43  1  0
 18 44  1  0
 18 45  1  0
 19 46  1  0
 21 47  1  0
 21 48  1  0
 21 49  1  0
 23 50  1  0
 24 51  1  0
 24 52  1  0
 25 53  1  0
M  CHG  1  23   1
M  END
>  <OMEGA_C>  (3) 
WfTBQIXLRb8lV7PB60PnQEePnsBYsHvB0+W5QCFHGj/o+7HBevXKQFyDyr+FaKrBJqHjQGXhlsBt
TonBwxLCQAD5sj4EvJ7B16n2QCEDc8DmxXLBmma8QG1QmT+9q6fBenTKQBYvgr/SDaDBjqLwQO7/
WsCi/orBpWvMQEtTS0CjnJvBD1OEQCZLX0Amf5nBTKDwQJiILcAeNJXBghTLQOJExEAScLzB/r+n
QCeOo0ClEr/Bb4/yQFzYrUA0srfBZTebQP6piUBaF7XBT4TmQN92lEBknq3B577CQCUYZkCg/6/B
fG61QNZtLUB/1qXBCLC0QAblhkBUOIrBCRGtQM3Bb0CBOZXBx+eHQDL9OEBp1qLBTQ07QMYidEDY
tZTBbVzQQNmd47802JbBGXXyQBOAQ0AnXJnBnu0GQX7YOMDWmZvBuPX7QDEnOMBVX4HB3DjBQGx8
mr+9P7vBhl7fQBHDu8BJVXPB4MCxQBbmmj/M1LjB5zbSQMBNKMBzd6vBcdPYQKRWrcDYSo/BnOm/
QEnpQj/4w5bBxW/9QKPoaMB4BGLBAGnUQK0U1UAaz8PBILC+QPCE20AcmrbBjmuLQNiqtECtEcLB
aYCzQBKCjUCdRcXB/e3/QAbLl0CLr73BXlYFQTQTxkAJmbXB1QSNQM9un0D9J6/Bvo+DQJKGYkAo
YrfByYYBQZyeg0B9pqrBGgTbQCPZqkA+d6fBQIDPQMmJOUD+BLbBX9SWQML3k0DB5YbBf4+/QK3l
V0DJQIXBnmDNQGf7n0DoSYrBtkZeQAQnJkChUqfBdgQEQPD9ZUApZJjBHUo6QCCiiEB1lo3B14G7
QHkG0r+G4JDBJhyhQBHTb7/xwq7B9XVCQQlde8D+4ZjBojacQBXz4j56C63BKxrGQNG3zL9NNavB
W2owQVs8gsBpLaDBvETiQN4TAz+8iaTBLhg+QZNKNsDLeJLBcjy8QJ8Mlz+2mqfBQjXnQMyRX7/0
FabBREoiQbIwRMBQrZ3B7VvMQIGeSkC3PZvBcy+EQA6HXkDRUZnBUugNQZeUMMDY6qLBOdzMQHwg
wkB3a7zBnkioQKGqokCu577BtRD0QEfxqUClGbjBscObQIEYiUDT27TBI4joQMUpkEDrCq7BsLLC
QKDgYEDLAbDBu921QEYALEABj6XBheazQOUVh0By/4nBIausQL2qbkBa85TBAC+IQPwYOUCJrKLB
XlE6QLtec0DFqpTB+5gGQVeWuL+sMaLBZp/yQPPTSkBhBpnBAAIEQY41asAEW6fBgtAqQX4HFcBP
f5XBtk+IQPTRvr8j1bLBiI1QQZKlkcAblZjBXKh/QPQucj/Q5K/B1FHJQLOIKsARYqzB+IUuQX4s
msBCVqbBivr7QBDRiT828aDBgytIQdFUHsCjH4zBHNDVQKsv00DhyMPB9fjBQB9R2UCHYrbB/EqM
QM28tECSvsHBB8qyQHRRjEAULcXBsdr/QPnqk0DDTL7BcaQGQbklwUBvF7bBYziPQNJfn0Bpz67B
nsSCQFe8Y0DsBLfBm2QCQayJe0BQg6vBdFzfQLaUpkA+qKfB/mTNQGUpMkDVBbbB5smVQJPYk0A+
vobBFyi/QOk1WUDA7YTB/SvMQMmSoEAVI4rBnBdfQHmTJ0APSafB27IDQAXbZUCxepjB+MY4QMLw
h0DggY3B7VQQQbDVT7/MVZ7BYv6vQP51Ub9hkrLB2mEoQQ7qicCXbofB1WGpQIlsDj9SorDBWSPJ
QI6Myr/oe6vBhEQmQT3BecBQl5LBNYfSQB5QwT6SKqDBP5QXQUnTb8Bi/4HB19O7QDUulz8vjKfB
sljaQKiyeb+pQKLBDD8UQR+yR8C8KJPB3DzMQF+oS0CLY5vBfA6EQLTCXkDiV5nBQpEKQbmjHsCg
i5zB1WLNQBSowkCITLzBt0WoQBrCo0A2vb7BVVv0QK/sqUBfDbjBBaWbQF0yikCRsrTBY6ToQN5E
kEBbAK7BMmPCQJ8FYkAZ+a/Bkla1QOkfLEDHkqXB2Si0QAejhkBBAorBiq2sQMEBb0B5AZXB48uH
QA75N0AxpKLBr2M6QEyEdEBOqpTBjU7xQHFB2L+hoprBZZTyQKfGSEASQJnBlsoSQdj+JMCubaXB
/qMLQa3mQcDzGonBM8KhQNyQpL/8f7nB98s0QR/nncDVF4TBGyWWQEOHkT88G7bBjDDPQPcRKMBw
HK3Bq8swQQRChcA5HZnBlAHeQBKdUD9RzpjBFVsUQUKmdsC6GnPBQGTWQH2h00APrMPB2fzCQJX2
2UD+PLbB6neMQEZItkCLgsHB40OyQDRbjUDsDMXB6bX/QGvJk0AGR77B3fcGQUvDwEDbELbBlZWP
QDmHoECUma7B2UaCQF6uZkDJ1bbBt1gCQX4Ke0AxfqvBy8rfQEPBpkBHmqfBiLLMQDecM0A4EbbB
xiCWQIs7k0A1q4bB7oG/QLG8V0BWDIXB/nHMQGsdoECMF4rB3DVeQF34JEBQJKfBX4EDQCWxZkBc
ZpjBUlw5QAz/iEC9kI3ByxnnQOOo0L9lEZPBhvOvQCZQUb/8i7LBeigeQaobf8AufYPBpXupQIvL
Dj+Do7DB49vIQKihyr9HaqvBNcgOQam5SsBzS4nBImLSQAh1wT6SHqDBSQ8tQbzrjMDT0IrBHdy7
QGFUlz8Si6fBXgraQCs9er/fKaLB/FgVQcV9ScD6y5PBykHMQF3MS0BxaZvBRBGEQKPJXkCDXZnB
HaAKQRNYHsBsw5zBV1nNQP3TwkCPTLzBrj+oQCLso0Dqvr7BclX0QF4YqkC+D7jBgKWbQHVMikAP
trTBiaPoQCtikECFBK7BjWfCQBUyYkBf/q/B5F+1QHc+LEC/l6XBwCa0QIaWhkCDBYrB1a6sQA8L
b0BBBpXBr9OHQH4SOECrqqLBFmM6QB91dEAGsJTBGGTxQBfb2L+vl5rBPZnyQIXiSEAmRpnBe1sS
QaQsI8DyxKXB5KYnQWYLecAol5TB7cqhQMh8pL8jfLnBnuEdQUkBh8BLG3bB/miWQKzZkT/CI7bB
acXOQIAxKMCABa3BA+sAQeoBK8Ah/4XBIdfdQKMQUT89w5jBgLs6QeX5oMBYJonBDFfWQPXW00D+
qsPB3fHCQEQa2kA0O7bBXG6MQDtytkARgsHBsj6yQCaPjUC9EMXB0LH/QF7+k0A/S77BnvMGQcbv
wEC1EbbBcZSPQOCXoEAdm67BnEmCQHLiZkDt2rbBZFoCQQ1Le0Dog6vBjcbfQPzVpkDbnKfBQbjM
QNLSM0COF7bB8xyWQPomk0CJrYbBVIG/QMGVV0AqEoXBom3MQDYToED4F4rBxUpeQP8aJUBOLKfB
S4UDQOCeZkDwbJjBk1I5QBXxiECnlY3BFZnnQLx00r+j/JLB

>  <OMEGA_E>  (3) 
DJ5cP6ZkWD8ip1g/VLtYPw==

>  <OMEGA_NBR>  (3) 
     18324

$$$$
50215519
     RDKit          3D

 46 49  0  0  1  0  0  0  0  0999 V2000
    6.7820   -0.4913  -22.3959 C   0  0  0  0  0  0  0  0  0  0  0  0
    6.2920   -1.4570  -21.5020 C   0  0  0  0  0  0  0  0  0  0  0  0
    6.6049    0.8759  -22.1242 C   0  0  0  0  0  0  0  0  0  0  0  0
    5.4226    0.3172  -20.0700 C   0  0  0  0  0  0  0  0  0  0  0  0
    5.1156   -1.7512  -17.9713 C   0  0  0  0  0  0  0  0  0  0  0  0
    4.7605   -3.3531  -19.7629 C   0  0  0  0  0  0  0  0  0  0  0  0
    4.2777   -3.9880  -17.5582 C   0  0  0  0  0  0  0  0  0  0  0  0
    5.6274   -1.0574  -20.3209 C   0  0  0  0  0  0  0  0  0  0  0  0
    5.1602   -2.0632  -19.3440 C   0  0  0  0  0  0  0  0  0  0  0  0
    5.8888    1.2954  -20.9718 C   0  0  0  0  0  0  0  0  0  0  0  0
    4.6635   -2.7255  -17.0558 C   0  0  0  0  0  0  0  0  0  0  0  0
    6.3446    3.2027  -19.3886 C   0  0  0  0  0  0  0  0  0  0  0  0
    4.0821    3.4564  -19.0871 C   0  0  0  0  0  0  0  0  0  0  0  0
    5.3043    3.5074  -23.2130 C   0  0  0  0  0  0  0  0  0  0  0  0
    5.0722    4.7840  -22.3990 C   0  0  0  0  0  0  0  0  0  0  0  0
    6.0234    3.6964  -21.8623 C   0  0  0  0  0  0  0  0  0  0  0  0
    5.6239    2.7783  -20.6628 C   0  0  1  0  0  0  0  0  0  0  0  0
    5.5849    4.0437  -17.1237 C   0  0  0  0  0  0  0  0  0  0  0  0
    4.9694   -1.1971  -15.1939 C   0  0  0  0  0  0  0  0  0  0  0  0
    4.3306   -4.2826  -18.8796 N   0  0  0  0  0  0  0  0  0  0  0  0
    5.3551    3.6754  -18.5326 N   0  0  0  0  0  0  0  0  0  0  0  0
    4.1993    2.9604  -20.3020 N   0  0  0  0  0  0  0  0  0  0  0  0
    2.8679    3.7259  -18.4641 N   0  0  0  0  0  0  0  0  0  0  0  0
    7.5493    3.1413  -19.1662 O   0  0  0  0  0  0  0  0  0  0  0  0
    4.5841   -2.5082  -15.6847 O   0  0  0  0  0  0  0  0  0  0  0  0
    7.2961   -0.8000  -23.2941 H   0  0  0  0  0  0  0  0  0  0  0  0
    6.4233   -2.5071  -21.7177 H   0  0  0  0  0  0  0  0  0  0  0  0
    7.0167    1.6135  -22.7971 H   0  0  0  0  0  0  0  0  0  0  0  0
    4.9016    0.6233  -19.1748 H   0  0  0  0  0  0  0  0  0  0  0  0
    5.4240   -0.7766  -17.6229 H   0  0  0  0  0  0  0  0  0  0  0  0
    4.7994   -3.6020  -20.8131 H   0  0  0  0  0  0  0  0  0  0  0  0
    3.9296   -4.7418  -16.8676 H   0  0  0  0  0  0  0  0  0  0  0  0
    4.5005    2.7626  -23.3080 H   0  0  0  0  0  0  0  0  0  0  0  0
    5.8771    3.5505  -24.1511 H   0  0  0  0  0  0  0  0  0  0  0  0
    5.4784    5.7429  -22.7533 H   0  0  0  0  0  0  0  0  0  0  0  0
    4.1017    4.9551  -21.9102 H   0  0  0  0  0  0  0  0  0  0  0  0
    7.0954    3.9337  -21.9288 H   0  0  0  0  0  0  0  0  0  0  0  0
    4.6406    4.3855  -16.6748 H   0  0  0  0  0  0  0  0  0  0  0  0
    5.9572    3.1680  -16.5719 H   0  0  0  0  0  0  0  0  0  0  0  0
    6.3287    4.8525  -17.0729 H   0  0  0  0  0  0  0  0  0  0  0  0
    4.8579   -1.1672  -14.1000 H   0  0  0  0  0  0  0  0  0  0  0  0
    6.0180   -0.9994  -15.4610 H   0  0  0  0  0  0  0  0  0  0  0  0
    4.3244   -0.4312  -15.6492 H   0  0  0  0  0  0  0  0  0  0  0  0
    3.4296    2.7370  -20.9001 H   0  0  0  0  0  0  0  0  0  0  0  0
    2.0091    3.5425  -18.9424 H   0  0  0  0  0  0  0  0  0  0  0  0
    2.8539    4.1030  -17.5380 H   0  0  0  0  0  0  0  0  0  0  0  0
  1  2  2  0
  1  3  1  0
  2  8  1  0
  3 10  2  0
  4  8  2  0
  4 10  1  0
  5  9  2  0
  5 11  1  0
  6  9  1  0
  6 20  2  0
  7 11  2  0
  7 20  1  0
  8  9  1  0
 10 17  1  0
 11 25  1  0
 12 17  1  0
 12 21  1  0
 12 24  2  0
 13 21  1  0
 13 22  2  0
 13 23  1  0
 14 15  1  0
 14 16  1  0
 15 16  1  0
 17 16  1  6
 17 22  1  0
 18 21  1  0
 19 25  1  0
  1 26  1  0
  2 27  1  0
  3 28  1  0
  4 29  1  0
  5 30  1  0
  6 31  1  0
  7 32  1  0
 14 33  1  0
 14 34  1  0
 15 35  1  0
 15 36  1  0
 16 37  1  0
 18 38  1  0
 18 39  1  0
 18 40  1  0
 19 41  1  0
 19 42  1  0
 19 43  1  0
 22 44  1  0
 23 45  1  0
 23 46  1  0
M  CHG  1  22   1
M  END
>  <OMEGA_C>  (4) 
HgbZQLSJ+77DKrPBvVfJQKN+ur8cBKzBulvTQCo4YD9q/rDBG4atQEZpoj5Zj6DB2rKjQEon4L88
xY/B7FWYQBOZVsBgGp7BkeKIQAo7f8Azd4zBohO0QGFYh78dkaLBsSClQPALBMB2wJrBH3G8QDHR
pT9FxqfBoDuVQChvLsBScojBRgfLQOT4TEDbG5vB76CCQDM2XUBOspjBN72pQP95YEAntLnBrU+i
QMYWmUAdMbPBUL/AQBOSbEDw5a7BIvezQHLQMUBlTaXBVbeyQFhmgUBJ/YjBkgWfQKE7mb8tGnPB
8ZOKQAYLicBiCZfBuFyrQI86a0DPQpTBc2CGQJh3PUCQaqLBTYw3QPF0bkCEtpPBnpPxQFgLSUBo
VJnBBbGSQCyGIMBk9HrBeXnpQBTPTL9PWrrBTovNQJVzIMDcva3B6ojgQCuGzj98YLbBPtqcQI6Q
Hz8WZpnBn5GtQETNRr/H+4zBjJSZQOqGZsA0gabBE397QCS9l8DJ8IbB5wOQQOTOMEDXdrrBdxG8
QGU7Y0BrNcHBCU+vQDDGt0CrBrbBeUGDQO+PnkAXSK/Bag3jQGDCe0Abbq/BqX+UQMhVjEDnZYXB
iqG+QDfASkBYk4TBsITKQAVIm0A/lYjBMXSbQAdnlb91mWHBrpPAQJ3Yf788YHfBZmGKQD3G3L72
YnrBJ39bQG4qL0B5M6fBlpQAQJO4YkD2iZfBsKY2QIRLg0DqTYzB66/DQCE8EL9QfrTBzOnIQL6+
u79U/avBTky9QGSTTT9SabLBlYjAQHCNuT6NQJ/Bb/3eQOGCxL8whY7BvoO/QHU5U8CgUZnBGVbV
QPDAcsBN1YfBj2jHQCMWgb9jS6HBRbfMQIUl+r/JSZjBrXC8QGqepD9svafBgIXjQHd2HcAiJIbB
EkfLQDYSTkCsGJvB08SCQACSXEBNuJjBMoyiQB37fEBA+bfB4lyuQCJ1okB3HLDBrPLBQKCDa0Dq
vq7BhD+0QOcgMUC5PKXBWpayQDC8gUCPAYnBYk76QD++P8CcR2jBm97DQILrhcBJOZHBDGerQDOF
a0AjRJTBg7WGQMNyPEBzaaLBAJg3QBoBbkBNz5PB1drxQFcCS0AWUZnBAc/1QBZXAcC/R3nBlZTE
QNppa7+ipbzBGhnOQHTyIMDZn63B1AG5QK3Wvj8y/LjBOl++QC7ONT8ZF5fBA2PpQLphA7/Tf43B
fJWxQItTaMDdxaDBC5bYQDBskMAzcoHBr0eCQK/gYEAk0bfBBjyuQKEhf0AlRcDB7XnCQEZJvUDt
ybLBl4WWQM0orkDsVarBy73jQHLMZUBFGrHBFjiUQOpFjECFa4XBceW+QOrVS0D4k4TBwgXKQObz
m0ACnYjB4Y8EQTBAIcC0QFrB8ZDaQKKUWMCX4WPBwVEHQebMdMCdzG3BO11cQGm3LUB4NafBRNIA
QPIcYkD8q5fBJlI2QDg3g0DHaozBhr/DQBZyD7+bfLTBGZTIQDg5u79I+KvBUHK9QERdTj/NarLB
MQPAQJinuz7DPp/B17nlQPTCRcDfcJnBuVy4QKoV2r98OI7BSJ7VQI6TasA1B4fBg7jGQNx6gL+f
RKHBcSjMQAy2+L9MO5jBz068QFb2pD/lvqfBAJTqQL9hfsDzupDB/1DLQLsNTkC7F5vB1ciCQNxh
XEDYvJjBq+uiQBH3fEB9ALjBpauuQIV2okASI7DBfDTCQGiGa0D3v67B1le0QEFJMUDdP6XBW3uy
QDhmgUAD/IjBpA0MQXTWrcADSpvBbEW9QJVvI8A85YXB2GKrQKA7a0CiQpTBUcuGQEnGPEDjc6LB
1Is3QP1+bUDP1JPBm9/xQMnKSkBNSpnBhIcBQbtFpMCgNpHBwODEQOrBar8Vo7zBlrvNQFO4IMDK
lq3B/W+5QMBQvz9r/7jB/qy9QHkwNz/9FpfBDn31QN6tUsBe9aDBc96kQIoqUr/rNY3BQB3ZQK27
isAuT4DBa6SCQHbnYEC13bfBX7SuQOIMf0BASsDBV9XCQDRFvUD/zbLBY8WWQH4yrkB0YarBiwbk
QLG6ZUBHFLHB8RSUQOTbi0CeZoXB9MW+QBYGS0C3lITBbebJQEmfm0BvjYjBrRwVQQvdy8BVh5rB
G+v/QP0/scAKoKHBog8XQWGjk8CKWZ3BG5xcQGl8LkBRSKfBxNYAQM7CYUAUt5fBwyU2QNDEgkBU
a4zB/izCQP5qFL+QWbTB+drJQBr+ur9bzqvBO5y6QDOESD/rWbLBcdTBQLhmxD6dM5/BDd/jQKBC
ur+qgI7BJ5/EQPAMUcDY15jBnMbcQMAcbcBwdIfBHorJQJsTfL8lJ6HBWNbQQEpL9L8yFZjB56O7
QCffpD9KvqfBhQ/qQHHuFsCECYbBMRPLQB3kTkC0RJvBJ7GCQEb8XECXupjBuEzcQEhcnEDUpa7B
REHsQN09ZkB09rPBVJW+QGQWakAhWK/BQJSzQDSvMUD3YaXBCxizQIQsg0BwPInBiZwBQViSNcCN
QmjBPZrKQAwqhMDVqpDBUHerQEVbbUC5cJTBFUWGQIAiPkCMfqLBttE3QHgNbEA1mZPB8ZfxQKSB
SkCFb5nB2AD9QGAw8b+zcnnB5BXCQHBIc78fd7zB8gTQQBtVIMBCYa3Be/ezQE+8uT9z77jBh6TA
QNilPj94EJfBlZTtQKHl2L72sI3BJCG2QIbZZ8CXJqDBD0/hQJETjcDy/4DBvGrpQERTpkDy3qbB
qa7VQLLVuEC6jLPBBRfxQCQWZEDWrLzBjGkCQUcRP0AN/6/BFd6kQGrZbkDhUrXBJ+iUQMoQjkDd
noXBumS/QH8FT0AWv4TBabDKQCFGnUB9+YjB7jIJQbdgFcDykVrBOhDkQFGzT8AEU2PBdfYLQZf0
acBg1m3BGCFbQDzuMEC4TafB/7wAQDdQX0AaWZfBtiU3QJ7PgUBEKYzBq1jCQMHPE7/MV7TBDQ7K
QBm8ur+NzavBT5m6QDDXSD+HVrLB3LnBQHxExD54MJ/BUyK+QEu81b9t+I3BqQvrQBo2Q8AZXZnB
DtfgQHy+a8DigIfBFWDJQN1IfL9gJKHBbM/QQMVn9L8CE5jBco67QFjrpD9IuqfBshDGQBEFJMA1
iIXBsiDLQIfyTkDfPpvBLL6CQKEWXUBgtpjB9nTcQFddnEBtnq7BQWfsQCw2ZkCl7bPBpra+QKQj
akCxUq/BPaOzQNrFMUA7XaXBtR+zQOYXg0BUNInBHmy7QD2fT8BGS2bBQpbyQGr2ecBENpHBuoKr
QIdVbUAMapTB7FSGQEljPkAofKLBM+k3QFAnbEDRlZPBj6TxQFaKSkB+aJnB/RSzQBFVE8DxZnfB
tV/CQFRmcr8rdrzB94TQQMYTIMCWYq3B9t6zQMHbuT8z67jBJpLAQJqLPj8mDZfBzuypQNOnTr8a
vozBG2/5QPCIT8AWEaHBsjTnQMESjMB6E4HBz4vpQJVSpkCm1qbBgOLVQIPXuEAGhrPB8UbxQAEK
ZECqo7zBIHgCQSYAP0BJ9K/BGgelQFnwbkBjT7XBvO6UQBH3jUBcloXBPmq/QKvNTkBtuYTBfLjK
QKIwnUBI7ojBqZeqQHnvOsAUulfBPPyvQLW7h8A4BGvBzgfeQEhEUsAeJmPBOURbQLthMUAKTqfB
fNYAQFqIX0DFV5fBzTg3QEPNgUBfJIzB3L+5QAo5H7/LpbPBz6DFQEdru7+GL6vBEFGyQIx9Pj9e
sbHBKLG/QLgV0T6Wwp7BJ7C/QLsx37+aW47B/qr/QJzKE8B0gpjBe/f6QGIxPcADiYbBgpTHQHrH
cL+Gw6DBptHWQOET3b8X9JfB4t+3QLDhoz9UR6fBia3RQBSiF8CjcYXBf0PMQPofTUCa8JrBAqOD
QDgOVUCK5JjBXF+wQKFNgUA1E7jBTDDHQIIcoEBYXbDBpdHLQILGX0BD3q7B8Si2QPHaMUB+RaXB
/iOxQPSseUB3tIjB4P/LQFxgQ8CZ5mXBsoAIQQZUOsBv44/B7FarQMKqWUASrZPBaFCJQGZlSUB/
PKPB0TQ4QHTlXEC47ZPBINnyQPjzUUB1QJnB6xa6QFzAFsCOEXjBsVG2QKWTgr8TorvBBS7NQIof
IMBhqKzBiVGoQCW2sT81KbjB6p6/QBVnRz8DpZbBIYWgQKj+o78Q3Y3BNrAIQVCJEcB97J/BhpQE
QQbgXMBbc3/B7VaNQGkTfED90LfBvXe7QH9rfED7Y8DBgJXiQGYms0DuK7PBsXS0QFv6skDwmKrB
runqQC/vREB1RLHBcd2RQPCDfUAWsoTBXSDGQFbKTUCyQITB98e/QBPVnEDr9YjBnTC2QGSaPcBm
KVjBckfQQHavg8Dm7WnBdCzrQFEiJ8CYyGHB9lBlQJOWT0Av1ajBAYUCQB3KWUAdRJjBz+w0QAOn
ZUCyA4zBprSvQMC7Kb8bfLPBnTDHQPQ5vr+YgKzBnq+pQHSqMj/qDrHBUkXSQGA30j59l6DB5g7y
QDKHwr8bZJDBA1MEQdxoOsC4R5/BxYUQQeBLW8BRCY7BzXPYQMj7c79U9KLBrxzxQE7t5r/WdZvB
jHi7QGaroD+3o6fBhiUFQZpbFcDUiYnBS3nLQJw6TUCY3prBo+eCQBaAW0BqqpjBEhKlQA5HfEDU
5bfBzMGyQEpooUAgB7DBvtnDQHxUZ0AdqK7Bwca0QAaBL0B2DaXB9RmyQL22f0BIuYjBhbIRQVzi
OMAcim/Be+4PQfxzbMAlpJjBulGrQMb6aECVCZTBNDuHQDhfPUDwcKLBUIM3QMYGbUDh25PBPSby
QMR/TkCKKJnBZUQFQeSoAcD6ZX3Bi0OiQKrJib+JubrB/AzMQPDFIcDUb67BwF2XQF4+qT8Sa7bB
Vy3fQCxRUT+rRJnBFUXgQA64Lr8wOo3BYggEQasBScBauafBIucZQffzgcD12YjBGhSEQNHCY0De
wrfBVOCwQOAofUD1L8DBRFbIQCoYu0AHsbLBC4qbQCJlrkDwQ6rBhXTlQPH9XUBjALHBv4WTQD7J
iUAYJIXBsaq+QArbR0C1YoTB2TDJQKJXmkBkMojBOGoQQTI9IsCe7F7BFY4LQXC3esA1nnDBoJAi
QdCnN8DvjXTB/dpdQAV6MUCtbafBfBgBQCjJYkDR3pfBM5w1QN7vgUDMY4zBAfzCQGcsFb/QYrTB
eZXJQHbQu7/hzKvB5/i7QBkoST9DcrLBny3BQM92wz7pRJ/BuOXoQPmdQ8A6C5nBaie8QMJd0b8s
743BFaraQLVTY8AFXYbB74zIQPdWfb9KJ6HBMC7PQFD987+q/ZfBd/K7QPb9pD8+1afBS+PuQIBc
ecBZKZDBkhfLQNmnTkDTTJvBN7+CQKgFXUCpvJjBusrNQIPJo0Bc2q3B78brQHHMgECTPLLBHFC9
QHSua0C3RK/BTnOzQAKIMUAqaqXBWFSzQFJJg0A+SInBivQGQf0SvMDUNYjBwAzCQMOUHMCIa4XB
b5CrQLsybUAHd5TBsTKGQFjWPEDGb6LBSA04QHo9bUAYpJPB65nxQGNwSkBBdZnB7DwEQc6joMCX
c5HBdkzDQOVzdL8Rf7zB13TPQI7mIMDCVq3BTpO2QIeKuj+sE7nB84C/QC2UPj9HJJfBudn3QL+P
UsAfm6DBAWOoQLG1Qb8hDY3BixLfQK0YhsA6937BuerSQIfLsEDixqXBBETCQAFevUDKKrPBFqj1
QDJggUCCrrrBZicDQW+baUCaSq3BQr2nQAksYkCcHrbBnCyVQKUtjkBvpoXBUL+/QBJwT0CzxoTB
yuDKQHdvnUB3EYnBAWARQQIp18B8UYrBtUoOQQuyqcCdqYHByYTuQLIyyMAFoYXB0NRaQEYOLkD8
JafBgOQAQFBYYEA5XZfB8IY3QP3lgkDtQIzBTyCvQEBIL7+kNLPB1dXHQGgcvr9FTazB+pKoQDCF
LT9z3rDBG9PSQFxi3T7Vn6DBPfr1QABIuL9UepDBI/QFQfwINsAPW5/BMHUTQUgpU8A4Po7B8LXZ
QDTHbb/06KLBwOTzQGK8378KgJvBL+m6QOC8oD8TmafBB+UHQbvbDcDItonBlFfLQBJlTkDlDZvB
etqCQPDgW0ASsZjBhD/eQJfQmUBB067B8vbtQGlKX0ALwLPBnSHAQAJ1ZUD3U6/BFjO0QFf6L0Bi
M6XBgZuyQGp9gUAa+YjBCsUVQQhxLcCCJnDBsE8SQabgZcAMzJjBs2erQCYVa0D4OpTBEtmGQOKT
PkAchKLBTLk3QFYra0AyrpPB5vjxQPtnTkDvP5nBmI8IQWIY8b9g2n3B+yehQOTpjr8xULrBRSbN
QHutIcBwLq7BunSVQNWEpD+WLbbB3BPgQNcUWz9CZpnB3NPjQHymHL93SI3B3TwFQWrXRcBWwqfB
gXAdQQv/ecB1IInBqAbrQAyepEA/FafBuEXYQJq4tUD6+bPBj0nzQAvAWkAxbrzBPwUDQe+KOEB2
ia/BtcumQOhUaUD8arXBwi+UQBK6i0BGXIXBSTe/QCiAS0A2kYTBfM/JQADqm0CBlYjBTNsUQauz
FcBAm1/BGAcQQY/yb8DhvXDBsXUmQQHeKsD4snXBbsdcQLuuM0DffafBV/gAQNnUX0CQkpfBmGc2
QDjAgEBkL4zB

>  <OMEGA_E>  (4) 
YIdyP5Z4cj+cAHI/lLxxP7xxcT9aTG8/lj1wP5w5cT8mvHA/

>  <OMEGA_NBR>  (4) 
     48079

$$$$
50215544
     RDKit          3D

 45 48  0  0  1  0  0  0  0  0999 V2000
    6.0930   -0.5803  -22.5495 C   0  0  0  0  0  0  0  0  0  0  0  0
    6.2993   -1.4658  -21.4775 C   0  0  0  0  0  0  0  0  0  0  0  0
    5.8740    0.7874  -22.3052 C   0  0  0  0  0  0  0  0  0  0  0  0
    6.0359    0.3804  -19.9077 C   0  0  0  0  0  0  0  0  0  0  0  0
    7.2855   -3.0601  -19.1482 C   0  0  0  0  0  0  0  0  0  0  0  0
    5.8938   -1.6496  -17.7400 C   0  0  0  0  0  0  0  0  0  0  0  0
    6.8592   -3.5732  -16.8130 C   0  0  0  0  0  0  0  0  0  0  0  0
    6.2680   -0.9905  -20.1456 C   0  0  0  0  0  0  0  0  0  0  0  0
    6.4812   -1.9112  -19.0041 C   0  0  0  0  0  0  0  0  0  0  0  0
    5.8726    1.2890  -20.9779 C   0  0  0  0  0  0  0  0  0  0  0  0
    7.4627   -3.9099  -18.0444 C   0  0  0  0  0  0  0  0  0  0  0  0
    6.3449    3.2290  -19.4116 C   0  0  0  0  0  0  0  0  0  0  0  0
    4.0839    3.4544  -19.0932 C   0  0  0  0  0  0  0  0  0  0  0  0
    6.4307    5.1185  -21.7312 C   0  0  0  0  0  0  0  0  0  0  0  0
    7.3675    4.0249  -22.2792 C   0  0  0  0  0  0  0  0  0  0  0  0
    5.9154    3.6828  -21.9079 C   0  0  0  0  0  0  0  0  0  0  0  0
    5.6070    2.7739  -20.6761 C   0  0  1  0  0  0  0  0  0  0  0  0
    8.3510   -5.1307  -18.1579 C   0  0  0  0  0  0  0  0  0  0  0  0
    5.6004    4.1041  -17.1604 C   0  0  0  0  0  0  0  0  0  0  0  0
    6.0894   -2.4675  -16.6799 N   0  0  0  0  0  0  0  0  0  0  0  0
    5.3591    3.7067  -18.5582 N   0  0  0  0  0  0  0  0  0  0  0  0
    4.1927    2.9504  -20.3050 N   0  0  0  0  0  0  0  0  0  0  0  0
    2.8733    3.7089  -18.4578 N   0  0  0  0  0  0  0  0  0  0  0  0
    7.5483    3.1640  -19.1813 O   0  0  0  0  0  0  0  0  0  0  0  0
    6.1025   -0.9513  -23.5637 H   0  0  0  0  0  0  0  0  0  0  0  0
    6.4824   -2.5124  -21.6714 H   0  0  0  0  0  0  0  0  0  0  0  0
    5.7059    1.4602  -23.1332 H   0  0  0  0  0  0  0  0  0  0  0  0
    5.9822    0.7416  -18.8913 H   0  0  0  0  0  0  0  0  0  0  0  0
    7.7583   -3.2832  -20.0932 H   0  0  0  0  0  0  0  0  0  0  0  0
    5.2735   -0.7737  -17.6202 H   0  0  0  0  0  0  0  0  0  0  0  0
    7.0154   -4.2130  -15.9570 H   0  0  0  0  0  0  0  0  0  0  0  0
    6.5911    5.5251  -20.7218 H   0  0  0  0  0  0  0  0  0  0  0  0
    6.0706    5.9179  -22.3955 H   0  0  0  0  0  0  0  0  0  0  0  0
    7.6761    4.0428  -23.3349 H   0  0  0  0  0  0  0  0  0  0  0  0
    8.1966    3.6500  -21.6612 H   0  0  0  0  0  0  0  0  0  0  0  0
    5.2411    3.5343  -22.7642 H   0  0  0  0  0  0  0  0  0  0  0  0
    9.3867   -4.8555  -17.9099 H   0  0  0  0  0  0  0  0  0  0  0  0
    8.0004   -5.9053  -17.4600 H   0  0  0  0  0  0  0  0  0  0  0  0
    8.3111   -5.5186  -19.1865 H   0  0  0  0  0  0  0  0  0  0  0  0
    4.6577    4.4447  -16.7075 H   0  0  0  0  0  0  0  0  0  0  0  0
    5.9880    3.2429  -16.5962 H   0  0  0  0  0  0  0  0  0  0  0  0
    6.3363    4.9212  -17.1335 H   0  0  0  0  0  0  0  0  0  0  0  0
    3.4187    2.7185  -20.8943 H   0  0  0  0  0  0  0  0  0  0  0  0
    2.0119    3.5075  -18.9240 H   0  0  0  0  0  0  0  0  0  0  0  0
    2.8643    4.0935  -17.5347 H   0  0  0  0  0  0  0  0  0  0  0  0
  1  2  2  0
  1  3  1  0
  2  8  1  0
  3 10  2  0
  4  8  2  0
  4 10  1  0
  5  9  2  0
  5 11  1  0
  6  9  1  0
  6 20  2  0
  7 11  2  0
  7 20  1  0
  8  9  1  0
 10 17  1  0
 11 18  1  0
 12 17  1  0
 12 21  1  0
 12 24  2  0
 13 21  1  0
 13 22  2  0
 13 23  1  0
 14 15  1  0
 14 16  1  0
 15 16  1  0
 17 16  1  6
 17 22  1  0
 19 21  1  0
  1 25  1  0
  2 26  1  0
  3 27  1  0
  4 28  1  0
  5 29  1  0
  6 30  1  0
  7 31  1  0
 14 32  1  0
 14 33  1  0
 15 34  1  0
 15 35  1  0
 16 36  1  0
 18 37  1  0
 18 38  1  0
 18 39  1  0
 19 40  1  0
 19 41  1  0
 19 42  1  0
 22 43  1  0
 23 44  1  0
 23 45  1  0
M  CHG  1  22   1
M  END
>  <OMEGA_C>  (5) 
fPnCQIuRFL9XZbTBL5TJQECgu7/90avB3Pe7QD6UST8HcbLBcibBQEPDwj7oQp/BsCLpQD/YQ8Bx
L5nBNJq8QA4n07+U643BZn7bQMmvZMAVgYbBuJPIQA2Pfb8lKqHBEmbPQMKj9L9/CJjBuey7QID9
pD/H0qfBKM7uQJ07esDWWpDBdwnLQFmnTkAAS5vBQ6+CQDIUXUDjvpjBncjNQO7Ko0CM2a3BccLr
QDzMgEDXO7LBJ0u9QCWza0BoQ6/BemyzQPeHMUCdaKXBkp0FQWAupMBrQ5HBtDazQIJUg0B5SInB
DtzCQInrHcCIcIXBen2rQDU7bUAtd5TBZiqGQKfSPECxcKLBpeQ3QBdfbUCYqZPB+4vxQLl+SkBJ
c5nB4UfDQEqJc7+DgrzBu2/PQA3LIMATX63BVpa2QE7muj+7ELnBz22/QFXWPT9RIZfBmkP4QLAg
UsDevqDBpcCoQIIQRr9E9ozBEH7gQLPQhsAFUH/BnerSQIHNsEA1xqXBVULCQHlfvUAFKrPBQKL1
QLJegUDgrbrBRCUDQXSZaUAQSq3BbbenQI8yYkArHbbB9y8WQe5fm8CCR4/BoAEAQfT3vMAXrovB
EfoEQXOYsMDgfZnBgAuVQAk7jkDiqIXBcp2/QCKMT0AexYTB5MLKQNZ6nUBSEYnBFsxaQD/8LUB9
J6fBs8IAQCV6YEBRZJfBoFA3QJr9gkAmR4zBjozVQMIfBr/0X7PB97rKQEyKu78VhavBq3HNQMGf
Vj9SpbHBmqWwQBUmqT6o/5/BEAGqQDel2789vI7BVemeQG7JVsD80pzBwteRQPCGfsALDIvBDK63
QIINhr+m0qHBYtuqQBz3AsCUtJnB0pi7QF/1pD9N06fBQdqdQFq1LMBTT4fBCe/KQDoPTUA2Q5vB
RqKCQHYXXUDPu5jBKn7XQLfyn0ByLq7B/+rsQL48ckD5X7PBEVy+QEyKa0CjWK/Bw4izQK7lMUAZ
eKXBu7ibQHKLF8DCAHfBADSzQBVNg0CIR4nBz6+SQPQqicDolpXBgnmrQLS2bEAtdJTBVCGGQORF
P0AQj6LBSeI3QNq2a0Drh5PBBoHxQIiXSUBVf5nByCPkQD4XWb/2w7rBz/jQQFHgIMBy4azBPNnU
QFjhxj8k2bfBw7miQNBVJz+HhpjBtY+yQJ0hOb9pF4zBTJWfQGiYZ8D/M6XBL72HQBs8l8DeW4XB
D93hQE7MqkC0OKbBLdHOQNTVu0D5F7PBHJvzQEE+ckC9A7zBf1MDQTYrUEB3JK/B/9ulQNuLa0At
qrXB/md3QBW4/b/SFHPBFAaiQFStUcDSlm3BkOazQF5zzb8RLXPBzxqVQFuajkBPsoXBzkW/QBN8
T0AZtoTBBwPLQHQ3nUAbF4nBpMJaQB1IM0A5Z6fBcaUAQJhzX0DxRJfBnYU3QNo9gUDxDYzBnN/m
QKG2/b6I36/BYFvLQCvzu791kavBO0DfQDJ6Xj+6763Bb72gQILWlD7UP6PBo+U+QCEP5r8Gs57B
ClKaQCuEWMAs2Z3B4kEtQO1vgcDSt5fBPQyoQJRGir9CNqXBTvuKQEQWBsC0j6DBloq7QFS8oz8d
w6fBZC8KQK3SMcDVGZrBftnKQAHATEBAVZvBX6CCQKJTXUBHu5jBYnnHQM4apEAuTa7BJY7qQMvN
hECj7rHBIye9QGqeaEAiga/BYDWzQOX+MEDtcaXBmt0vP4gwIMAUSpjBVYuzQOsxg0AAV4nBdmaA
QAhmisDQjJnBoY+rQCGQbEAkf5TB0uqFQI3TQECpm6LBMAQ4QCF3a0AqfJPBy17xQFJnSEDTipnB
+PYAQQ3yS7/JrbTBVTLRQDn2IMB5Hq3Becb0QDkjzj/VLbHB+UiGQD2tFj/5OZ7BOTglQGY5VL8f
yKDB/5G7QP+zZ8COPp/Bb34EQCTjmcBgWpTBIwXJQGygskBrS6bBnR66QCNdu0AyALTBn0T2QKej
hUBjOrrBk5UCQd/NeUCchazBFRKqQHQ3WED2m7bBZxbzPZv+McDkfJ/BUVepPlQRRsDkcJHBoM8K
P3hht7/nnpbB9oyVQJ+VjkA2uIXB5p+/QP8zT0BhyYTBgG7LQI4KnUA4LonBEU9aQBAtN0CIh6fB
v7EAQOPaX0CGPJfBmdE3QJWegEBX9ovBEnKqQC1FK7+InbLBEAnEQFSVu7+Q6avBlnijQLGSLz+5
DLDBIpzNQNb12j6f4p/BmBIIQZrjG8AtOJ7B6ATjQOKMyr9W3I/B+ssOQQD3OsAyd4vBGGHUQH8T
ab+AaKLB/OXsQAps178i2prBgJu2QPL8nz/v0qbB4DgUQa6yRcBIYJbBSFvMQCQHTUC70ZrBbOOD
QGSnU0DW45jBiG2zQOmle0CpO7jBvt7MQGG9m0A/0LDBgJXNQOgbV0Ai6q7BhoG2QL3qL0DeF6XB
WGsnQcK3esAhjZnBtuewQKP3c0AjeojB9Ez7QE0HDMC9ZojB6lyrQFu/VUDkhpPBWheKQAgiS0Bw
RKPBUU44QH0/W0CQB5TBPNjyQH5NVUCwLJnByyucQDcNjL8BtrnBnw7LQBxSH8ADB67BbHmPQOfb
pT9AIrXBXTnaQM3sVD/7hJjBuS4MQey1IMD/lqbBmnTHQMsegb/wY43B6ZgYQYoFWcAebIXBw0CQ
QMrjekAc6rfB7AW+QNVicUC9hsDBeKbpQEcXrECYzrPBTuG7QMHXsED3MavBP23rQGenNkCWOLHB
VLo1QR3FUcCeypnBMs8pQQoal8Buq5PB97EkQetmi8A+gaHBXbCRQHfmdECIaYTB0bzGQOutSEDp
MITB5XK+QOJ4mkDCjojB7mJoQKh6VUCo9KjBEhYDQKB2WkDSeJjBoT80QIaBYUCEFYzBBq2uQGCs
Mb8PMrPBmFLHQFRfv7/uR6zBpn6oQEAhLD9F7bDBrSrTQOpN3T7vwaDBj2b1QG9Nt7+IeJDBe5cF
QUI2N8DKN5/B6OsSQbpFU8CDBY7BRoXZQNwvb7/k8qLBYmPzQE9+4L+VeJvBgk27QN7hoD9TvKfB
b7gHQXLcDMC/tInBFlzLQPQATkAkDpvBn+qCQEvkW0CbtZjBUz/PQJ8KokBZ963BDf/tQMrQfUCo
8bHBrVO/QP2TZ0ATO6/BrDW0QNXeL0CPPKXBjrwIQYul8r+EsHvBI8CyQKXMgUC/BYnByckRQWwV
Z8AYj5jBkXirQDL9akCNQJTB/9qGQARjPUCreqLBmfE3QDg5bECcu5PByPfxQDHbTkCRPZnBsnWg
QEVwkL80Q7rBOVXMQC9/IsCCG67B+UqVQC+doz+jOrbBJNHgQML8Wz/Tl5nBqh/jQITQGr9LUI3B
qu0EQYyeR8C7mqfBg6EcQZtOesCTzIjBd2DTQOfTr0Bw76XB3RbEQFEGu0CYgLPBG8r4QMWbfUDu
UbrB2wkEQfE2Z0DFwKzBt46qQMB3XEDXMrbBlBj4QEfMHMAEUXPBSG4YQce4DMDOXnXBLHkGQY79
UL/FJ3nBYFiUQF4ajEDbaYXB4m+/QOhtTEDykYTB/erJQLtEnEBRsojBl6ZcQDAHMUD0YKfBFyMB
QLi/YEBim5fBNbs2QNq4gUCPR4zBKXy4QP4fH7/nl7PB/EvEQFTLu78UJavBzKSxQPZVPz9FpLHB
vc2/QDyV0j4/vp7Bf+nBQBxU278AJI7BXxAAQS91E8Bh5pjBz9/+QBgSOcBRxIbBvQPHQIwMcb+V
vKDBbU/XQKp93L+QAJjBy8y3QNlFpD8oQKfBIMnVQPCmFMDNYoXBjm/MQABoTUCA65rB/cSDQF5c
VEA665jBzfqwQIELgkC9/7fBEgLJQLkHoEBbUbDBv1rMQCJVX0CM5K7Bjne2QAIZMkB6RaXBR8zA
QKqJEcCo9XTBbvKwQHYBeEAZo4jBzpcJQaQEOMAgXZDBcGSrQF4FWUBxqZPBrKeJQIwDSkDLRqPB
Lzs4QG4NW0Dc/JPB4PzyQL7wUkDuN5nBkae0QMGGgr9IkbvBLzjLQNSVIMDGnazB/aSnQLZusj9F
GLjBV2bAQAP7SD90o5bB7uSiQO3Bn7+wVI3BuzUIQUPBEsDohKDBqEAHQfKEVsCK/n/BCOKNQF2F
f0BapLfBOJm7QPaifUCiWcDB1cvkQPpZskBmLrPBpRS3QC1Ls0AeearB7vHqQNncQkCKZrHB3bys
QHa1SsCBwHLBXKDZQJrLD8DIfWjBZsesQDmmr79hx3PB7ZiRQIc2e0DFp4TBvfHFQLHaS0DIOoTB
P3e/QGEQnEDAx4jB8VtmQEdIUUDw5ajB8boCQEMVWEDIXJjBr5c0QNPXYkBtD4zB0uqHQM79SkAT
uJTBFUOQQCupikBMuZrBez+cQOfO+j+YWJfB0F3CQKgmRUAEx6XBazS0QNkn2UD4PKXBicbCQKtl
rEBQuLTBRU7JQLHF9kBSa7bBPJ+tQI9diUA3VKPBF922QDEGsEBFzanBkfy4QGuR8j+DF6DBkwy9
QIz5/EDUp6vBmFzbQLB77z4txq7BCfapQN6bk7+P06rBycfyQB0sVL7TepDBjYUEQWoQgb86apnB
1WT3QGKhyj7jupvBTUbPQK4EEz/n7qLBV727QOK+FEHh5KbBMenEQIBhhb9u+b3BAMbLQPcrz0D2
w7rBiCvBQMomBb/8/rLBgJewQPCTCr81qqHB5nmPQO6REMCjEKzBnY/3QPmjiT8xk7PBW7RjQBZ8
TUCVE47BJTaAQEI9qEDRwZjB2eWVQNBniT+8qpLBNdvZQDyfQ0CtHKzBaICrQAYW3UA+75zBi7bE
QG8CjUCsTbjBauPQQH0iCUE6TLvBwB/TQFTTBL96jI3BldICQfzJSj5+y4nBEOgVQYF4lr+RHJnB
t0r5QGs78r+N3ZzBF9EHQZ0CmD+1f5zBL1nbQMnFGEEYlqPBRj6zQBVcIEHUJ63B+6mjQMNIFUHh
eqDB3W6sQAZU6L/eS7/B/jXAQOX5Yr64t8PBcOTkQKlRvb9XHL/BB7miQH3gS78GwJrBcQmAQHjC
KMBhvqXB59uLQDtMK8AKR7PB

>  <OMEGA_E>  (5) 
uopiP+x9Yj9Gr2E//rlgP549YT/AXWE/bUymPw==

>  <OMEGA_NBR>  (5) 
     65427

$$$$
50158057
     RDKit          3D

 57 60  0  0  1  0  0  0  0  0999 V2000
    6.5830    4.3922  -24.1766 C   0  0  0  0  0  0  0  0  0  0  0  0
    8.0220   11.6073  -20.4138 C   0  0  0  0  0  0  0  0  0  0  0  0
    6.2641    3.4310  -23.2005 C   0  0  0  0  0  0  0  0  0  0  0  0
    6.7687    5.7369  -23.8084 C   0  0  0  0  0  0  0  0  0  0  0  0
    8.1395   10.1629  -20.1213 C   0  0  0  0  0  0  0  0  0  0  0  0
    6.2085    5.1760  -21.5110 C   0  0  0  0  0  0  0  0  0  0  0  0
    6.9583   11.7778  -21.2704 C   0  0  0  0  0  0  0  0  0  0  0  0
    6.0960    3.8127  -21.8426 C   0  0  0  0  0  0  0  0  0  0  0  0
    6.6028    6.1352  -22.4656 C   0  0  0  0  0  0  0  0  0  0  0  0
    7.1495    9.5148  -20.8237 C   0  0  0  0  0  0  0  0  0  0  0  0
    6.4105    3.2275  -19.4046 C   0  0  0  0  0  0  0  0  0  0  0  0
    4.1333    3.3006  -19.1283 C   0  0  0  0  0  0  0  0  0  0  0  0
    6.9115    8.0762  -20.8775 C   0  0  0  0  0  0  0  0  0  0  0  0
    5.6305   -1.6376  -21.1243 C   0  0  0  0  0  0  0  0  0  0  0  0
    6.7788   -1.0032  -20.3182 C   0  0  0  0  0  0  0  0  0  0  0  0
    5.2576   -0.7655  -22.3388 C   0  0  0  0  0  0  0  0  0  0  0  0
    6.4296    0.4289  -19.8779 C   0  0  0  0  0  0  0  0  0  0  0  0
    4.8862    0.6524  -21.8817 C   0  0  0  0  0  0  0  0  0  0  0  0
    6.0716    1.3195  -21.1069 C   0  0  0  0  0  0  0  0  0  0  0  0
    5.7317    2.8157  -20.7206 C   0  0  2  0  0  0  0  0  0  0  0  0
    5.2773   10.2521  -22.3513 C   0  0  0  0  0  0  0  0  0  0  0  0
    5.5631    3.8801  -17.1114 C   0  0  0  0  0  0  0  0  0  0  0  0
    6.4548   10.5120  -21.4795 N   0  0  0  0  0  0  0  0  0  0  0  0
    5.3795    3.3797  -18.4842 N   0  0  0  0  0  0  0  0  0  0  0  0
    4.2989    2.9824  -20.3942 N   0  0  0  0  0  0  0  0  0  0  0  0
    2.8940    3.5129  -18.5344 N   0  0  0  0  0  0  0  0  0  0  0  0
    6.8098    7.4835  -22.1448 N   0  0  0  0  0  0  0  0  0  0  0  0
    7.6117    3.3784  -19.2032 O   0  0  0  0  0  0  0  0  0  0  0  0
    6.8587    7.4624  -19.8178 O   0  0  0  0  0  0  0  0  0  0  0  0
    6.6854    4.0972  -25.2105 H   0  0  0  0  0  0  0  0  0  0  0  0
    8.6574   12.3892  -20.0247 H   0  0  0  0  0  0  0  0  0  0  0  0
    6.1462    2.3959  -23.4853 H   0  0  0  0  0  0  0  0  0  0  0  0
    7.0395    6.4671  -24.5566 H   0  0  0  0  0  0  0  0  0  0  0  0
    8.8698    9.7004  -19.4739 H   0  0  0  0  0  0  0  0  0  0  0  0
    5.9879    5.4942  -20.5028 H   0  0  0  0  0  0  0  0  0  0  0  0
    6.5958   12.7050  -21.6891 H   0  0  0  0  0  0  0  0  0  0  0  0
    5.9455   -2.6304  -21.4780 H   0  0  0  0  0  0  0  0  0  0  0  0
    4.7499   -1.7426  -20.4735 H   0  0  0  0  0  0  0  0  0  0  0  0
    6.9704   -1.6159  -19.4249 H   0  0  0  0  0  0  0  0  0  0  0  0
    7.6829   -0.9750  -20.9442 H   0  0  0  0  0  0  0  0  0  0  0  0
    6.1158   -0.7126  -23.0249 H   0  0  0  0  0  0  0  0  0  0  0  0
    4.3994   -1.2157  -22.8592 H   0  0  0  0  0  0  0  0  0  0  0  0
    5.5680    0.3953  -19.1949 H   0  0  0  0  0  0  0  0  0  0  0  0
    7.2940    0.8659  -19.3565 H   0  0  0  0  0  0  0  0  0  0  0  0
    4.6439    1.2631  -22.7639 H   0  0  0  0  0  0  0  0  0  0  0  0
    4.0087    0.5991  -21.2204 H   0  0  0  0  0  0  0  0  0  0  0  0
    6.9439    1.3380  -21.7767 H   0  0  0  0  0  0  0  0  0  0  0  0
    5.0614    9.1736  -22.3649 H   0  0  0  0  0  0  0  0  0  0  0  0
    4.4046   10.7956  -21.9601 H   0  0  0  0  0  0  0  0  0  0  0  0
    5.4950   10.5953  -23.3734 H   0  0  0  0  0  0  0  0  0  0  0  0
    4.5916    3.9028  -16.5959 H   0  0  0  0  0  0  0  0  0  0  0  0
    6.2510    3.2157  -16.5680 H   0  0  0  0  0  0  0  0  0  0  0  0
    5.9841    4.8958  -17.1448 H   0  0  0  0  0  0  0  0  0  0  0  0
    3.5530    2.8682  -21.0503 H   0  0  0  0  0  0  0  0  0  0  0  0
    2.0582    3.4259  -19.0766 H   0  0  0  0  0  0  0  0  0  0  0  0
    2.8385    3.7527  -17.5652 H   0  0  0  0  0  0  0  0  0  0  0  0
    6.8967    8.1058  -22.9227 H   0  0  0  0  0  0  0  0  0  0  0  0
  1  3  2  0
  1  4  1  0
  2  5  1  0
  2  7  2  0
  3  8  1  0
  4  9  2  0
  5 10  2  0
  6  8  2  0
  6  9  1  0
  7 23  1  0
  8 20  1  0
  9 27  1  0
 10 13  1  0
 10 23  1  0
 11 20  1  0
 11 24  1  0
 11 28  2  0
 12 24  1  0
 12 25  2  0
 12 26  1  0
 13 27  1  0
 13 29  2  0
 14 15  1  0
 14 16  1  0
 15 17  1  0
 16 18  1  0
 17 19  1  0
 18 19  1  0
 20 19  1  6
 20 25  1  0
 21 23  1  0
 22 24  1  0
  1 30  1  0
  2 31  1  0
  3 32  1  0
  4 33  1  0
  5 34  1  0
  6 35  1  0
  7 36  1  0
 14 37  1  0
 14 38  1  0
 15 39  1  0
 15 40  1  0
 16 41  1  0
 16 42  1  0
 17 43  1  0
 17 44  1  0
 18 45  1  0
 18 46  1  0
 19 47  1  0
 21 48  1  0
 21 49  1  0
 21 50  1  0
 22 51  1  0
 22 52  1  0
 22 53  1  0
 25 54  1  0
 26 55  1  0
 26 56  1  0
 27 57  1  0
M  CHG  1  25   1
M  END
>  <OMEGA_C>  (6) 
/afSQKOMjEC+acHBDFoAQYe3OUF1T6PBKXPIQPuUW0CZmrnBiZnYQGiUt0CFd77BlDsCQTqbIkFf
+KDBHKzGQOyhpUCbFqzBnareQOJxPEHKKarBKxLDQNUDdECava7BG0rTQIdTxECdubPBe8jkQKM8
GEHllqbBuCLNQKaOTkC3PJvBY0SEQAY9U0DUBpnBDSvdQB84AUEfBafB6iy0QJyc0b+Q/qjBCuzY
QH1qgL+4i6LBkD6oQDD4Q7/1tbLB9b7NQOyY2z73BZ/BjFucQFEEJz+qDa/BqErCQKjkqD/j2qjB
82m3QO00NEDIw6XBP9+oQLEIJEFez7LBlgSyQM9TeEAo5IjB343OQFUxKEEI1qvB0iSsQBlNWECW
35PB9JCJQCPgPkBNJ6PBjTY5QPfTYECKRpTBRurZQJR470CMKLHBFJPzQDI4WEAzoJnBj3rbQNvL
7kDyip7BJu/VQF4cg0Ahr8nBpYQKQf45RkGkMqDBh63EQAtWGUDM4bvBLkPhQIbyzkDsc8TB5+oN
Qbc0G0GAypvBgZy/QGfQr0DNBaTBFBHTQK9HS0FGg63BMEG+QJFYKMD30qvBIP+XQJoM37+5yaPB
VA3fQGfVzr8/ZpvB+dn1QGubeb/RjafB9LTDQAlsNr8GM7jB/MeMQB+bm7+137bB7yyyQBdgyj4U
j5nBQmjpQGuqXT8w2prBiJqUQLmtoT93HLbBiUeAQGJcGT9uw6nB1DTeQBlFqz+4Nq7BTPehQAPH
EkFX67LBGPKMQOK6LEFKrq/BPNevQHCGKUG7/LrBc+6SQJTHeUBcxITB2AfIQH3NTUA7i4TB9X2/
QEyqnEB0KInBCWRjQDiQN0AFZ6jB17kDQJ9BW0DvnJjBO6k1QPwrcECFhYzBmLHcQHCxAUG0YbfB
JsHOQFOLi0BJvsHBXlH9QEynOkF74KrBPLbFQG6tW0Cln7nBdsTWQHZztkDmJ7/Byun9QAiPJUFz
PbDBYfLLQDhGpkCNPqzB+pr5QE4iN0FtDaDB+BDEQBA/dUCntq7BP4TWQOG6w0BfarTB4ur7QNIK
FkH0bKjBWRrNQIMlT0AxJ5vBsjSEQOuiUkAC/pjBw7D5QDOk/UAbEqrBxvWzQG9o0b9h+KjBqRrZ
QOazf7+1rKLBoQinQEP7Qb9OkbLBBTzOQLHs3j5jFJ/ByUObQJLLJz9mvK7B2OjBQGlGqj/F1KjB
uK63QLKxNUDOtaXBHlHyQMOZFkF5XpTBbamxQHyUdUBzuojBWnr4QBMwIUFJ6Z7BFv+rQIVyV0CA
zJPBdMmJQIIcQUA6MaPBgdc4QOEwXkCNN5TBkGDfQH+Y7kAYPbLBwYrzQMzdV0A6d5nB8IQHQbOj
5UCAa6TBjonPQPRRgUCH/snBiWv/QIsNSkHewq7Bruu/QM2UGUAHsrvBQSXdQDdYzUDGbcXB/pv/
QFXPIkFtwrjBUtnJQAQSsUCyDaTBm+73QEoCQ0EvypnB9Qa+QIjtJ8A96avBuT6YQIxG4L8QoKPB
ar3fQHpVzr8xj5vBu631QCNKeL/wzqfBM/zBQOv0Mb+2NLjBPEWLQL+fmr+MmrbBPiezQIBFzT75
dpnBg0PqQOYCXz90DpvBblqSQC5soj81sbXBRex/QHAjFz/PNKnBfjrdQOyzqz81Ya7BLIfyQEYh
BUHDbpXBDTIGQbdDG0HJ747B+HjTQF2UG0HD75DBwIKSQH8qdkCfoYTBEqnHQDpqSkDleYTBMw+/
QNZWm0AxzojBbTpkQD8pPEAZiqjBP4IDQB9JWUC0mJjBwfc0QEdna0CCZ4zB257RQAQ7AkHD9bbB
6UjKQBtbjEA4osHBpC4HQT5zNkETLqnBf4e8QFLZXEAS9rnBcBLZQHHctEAiYr7BPtP5QMTVIkGf
T63BpIjKQO8AokAg4KvBj20PQY/dMUEpPp/BLX6+QPDZcEBg5K7B2R3ZQJ4fwEDQc7PBlc/9QDEv
E0GXnaXBoMXJQIx1QECEl5vBAm2CQBxwWkAku5jBCuntQHpU+kCsZKbB5K7XQKG1wL/8VajBKT/n
QPLTCL/mErHBRIepQC4klr/V2KTBgDDkQLQzaj83IK3B49+lQAkdkT429KDBBDW1QKKwoj8cxKnB
VA6xQMA4MUBZEqbBA1QRQTVjEUHmgZPBfK+0QG7KbUC46YjBrnAKQTK0HEHpap3B8uOqQLpDUkD7
65PBmJCEQO5YRUC076LBOjo6QLhMc0BDhZPBJuTmQAhe6UAUpLDBlaTwQGi8P0AnOJrBB2zpQDLT
5UCOHZ7B4X7JQPQ8hECVB8rB9Q4IQY2tRUGGPa3BQWuwQKtjH0DngLzB3G7kQP5qy0DsR8TB+2zq
QG8TIUHn/rTBw5XIQH8kq0CrjqPBTP4XQSKTPEFe/JnBW5rYQNESIsCce6vBff7sQADPtr/8W6HB
Sl0EQcCoQ7+IErPBBDjTQGp/J78uP7jBtuWTQH/dqL+jsKvB8C6gQFKS7L8CTp7Bmmv5QJuUhT/F
LqbBCVbuQBatyz/ilbPBlkiEQEEIAD/b+Z7B4Mu5QNz10z5HxpnBLJegQKpBkT+k0LDBU6ALQTS+
AEEmvJPBnuUiQbqKEUE3/ZLB24wKQb+GGUGyeozBX6yWQAyid0B4e4TBadrHQHw5PEDZ5oTBg9rG
QO8HlUAnI4nBVOhWQBZBQ0Bj46fBnvwCQKEOdkCti5fBPNE7QFA1gUDdv4vBn2/sQANM/UCavrbB

>  <OMEGA_E>  (6) 
kNdlP4SHZT86N2M/

>  <OMEGA_NBR>  (6) 
     76480

$$$$
50222406
     RDKit          3D

 42 44  0  0  1  0  0  0  0  0999 V2000
    6.6088    5.3327  -23.9660 C   0  0  0  0  0  0  0  0  0  0  0  0
    7.6218    4.9532  -23.0673 C   0  0  0  0  0  0  0  0  0  0  0  0
    5.3097    4.8142  -23.8174 C   0  0  0  0  0  0  0  0  0  0  0  0
    7.3309    4.0812  -22.0015 C   0  0  0  0  0  0  0  0  0  0  0  0
    5.0153    3.9375  -22.7560 C   0  0  0  0  0  0  0  0  0  0  0  0
    6.0122    3.5931  -21.8045 C   0  0  0  0  0  0  0  0  0  0  0  0
    6.3412    3.2482  -19.2937 C   0  0  0  0  0  0  0  0  0  0  0  0
    4.0821    3.4670  -19.0389 C   0  0  0  0  0  0  0  0  0  0  0  0
    6.3814   -1.3696  -22.1247 C   0  0  0  0  0  0  0  0  0  0  0  0
    5.0032   -1.0349  -21.5308 C   0  0  0  0  0  0  0  0  0  0  0  0
    7.5026   -0.6552  -21.3484 C   0  0  0  0  0  0  0  0  0  0  0  0
    4.7688    0.4860  -21.5256 C   0  0  0  0  0  0  0  0  0  0  0  0
    7.2696    0.8652  -21.3243 C   0  0  0  0  0  0  0  0  0  0  0  0
    5.8840    1.1976  -20.7074 C   0  0  0  0  0  0  0  0  0  0  0  0
    5.6468    2.7443  -20.5624 C   0  0  2  0  0  0  0  0  0  0  0  0
    5.5278    4.0922  -17.0636 C   0  0  0  0  0  0  0  0  0  0  0  0
    5.3220    3.5172  -18.3975 N   0  0  0  0  0  0  0  0  0  0  0  0
    4.2267    2.9804  -20.2430 N   0  0  0  0  0  0  0  0  0  0  0  0
    2.8605    3.8321  -18.4960 N   0  0  0  0  0  0  0  0  0  0  0  0
    7.5381    3.2458  -19.0268 O   0  0  0  0  0  0  0  0  0  0  0  0
    6.8279    6.0211  -24.7688 H   0  0  0  0  0  0  0  0  0  0  0  0
    8.6251    5.3317  -23.1953 H   0  0  0  0  0  0  0  0  0  0  0  0
    4.5362    5.0892  -24.5192 H   0  0  0  0  0  0  0  0  0  0  0  0
    8.1187    3.7804  -21.3268 H   0  0  0  0  0  0  0  0  0  0  0  0
    4.0223    3.5228  -22.6643 H   0  0  0  0  0  0  0  0  0  0  0  0
    6.5424   -2.4565  -22.0710 H   0  0  0  0  0  0  0  0  0  0  0  0
    6.4087   -1.0464  -23.1758 H   0  0  0  0  0  0  0  0  0  0  0  0
    4.2221   -1.5187  -22.1355 H   0  0  0  0  0  0  0  0  0  0  0  0
    4.9536   -1.4115  -20.4984 H   0  0  0  0  0  0  0  0  0  0  0  0
    7.5230   -1.0330  -20.3156 H   0  0  0  0  0  0  0  0  0  0  0  0
    8.4670   -0.8642  -21.8344 H   0  0  0  0  0  0  0  0  0  0  0  0
    4.7826    0.8594  -22.5602 H   0  0  0  0  0  0  0  0  0  0  0  0
    3.7907    0.7015  -21.0709 H   0  0  0  0  0  0  0  0  0  0  0  0
    8.0570    1.3418  -20.7218 H   0  0  0  0  0  0  0  0  0  0  0  0
    7.3096    1.2532  -22.3528 H   0  0  0  0  0  0  0  0  0  0  0  0
    5.8669    0.7718  -19.6933 H   0  0  0  0  0  0  0  0  0  0  0  0
    4.5572    4.2038  -16.5581 H   0  0  0  0  0  0  0  0  0  0  0  0
    6.1742    3.4262  -16.4731 H   0  0  0  0  0  0  0  0  0  0  0  0
    6.0068    5.0778  -17.1592 H   0  0  0  0  0  0  0  0  0  0  0  0
    3.4699    2.7919  -20.8688 H   0  0  0  0  0  0  0  0  0  0  0  0
    2.0236    3.7284  -19.0334 H   0  0  0  0  0  0  0  0  0  0  0  0
    2.8159    4.1991  -17.5669 H   0  0  0  0  0  0  0  0  0  0  0  0
  1  2  2  0
  1  3  1  0
  2  4  1  0
  3  5  2  0
  4  6  2  0
  5  6  1  0
  6 15  1  0
  7 15  1  0
  7 17  1  0
  7 20  2  0
  8 17  1  0
  8 18  2  0
  8 19  1  0
  9 10  1  0
  9 11  1  0
 10 12  1  0
 11 13  1  0
 12 14  1  0
 13 14  1  0
 15 14  1  6
 15 18  1  0
 16 17  1  0
  1 21  1  0
  2 22  1  0
  3 23  1  0
  4 24  1  0
  5 25  1  0
  9 26  1  0
  9 27  1  0
 10 28  1  0
 10 29  1  0
 11 30  1  0
 11 31  1  0
 12 32  1  0
 12 33  1  0
 13 34  1  0
 13 35  1  0
 14 36  1  0
 16 37  1  0
 16 38  1  0
 16 39  1  0
 18 40  1  0
 19 41  1  0
 19 42  1  0
M  CHG  1  18   1
M  END
>  <OMEGA_C>  (7) 
+HrTQNalqkBhur/BdeXzQMiAnkDmibjB5eipQJcNmkD2ib7BBJfqQJGZgkAhA7DBs32gQKD/e0A8
DLbBuWPAQMD1ZUCIb67BFevKQBLjT0B7WZrBSaCCQMjjXUCcT5jBrDTMQNpPr79e/7DBfBqgQBt3
hL/9PqzBfhXwQLa5J7+XyarBapqYQETR+D5hNKzB7KDoQLF/XT8amKrBk0m8QCxLmT+qqKXBhbK0
QAajL0Dff6TB2OOwQGbzgkA0gojB1U2qQBAaYUAhLpPBQEGHQLy+PkCq8aHB3BI3QIZAdUDk95PB
7jfxQMK6T0DhNpjB0H3aQBatwECPJsbBgQAKQZidqkAQkLnB7CiRQObaokBGJ8TBSOYBQaTxcUBF
narB7LaAQFR2YUB+ULXB8lrRQLY2HcBokbDBSBTNQIPwhb/+Z7nBZBuHQK5kwr+PFbHBF4SeQDGt
tL/P/KPBgLzwQPY5hL9GhqLBAHkHQYs9Xb/trK7B9gqZQA8DXD8we7TBRZpyQESUMz8+kajBaekA
Qf+/qz87xqXBHujpQI9ooD+M0rLB7L27QHyRRT/Ui53B0tSRQLqFhkD7doTBtZLFQOtGW0DlyIPB
aDfAQKl9okALRonBmBJeQCWuMkBg86bBSYIBQM6ebkBzRJjBEjg0QDFfhkAJiYzB/qfSQILusUBq
gr/B1OjzQDYJpUC7pLjBSvKoQPwtokC+8r3B1n3rQDiRiEBLL7DBKEqgQNIJhkAgb7XBNGHBQLbz
ckA+T67BXjvNQPNIUkBAxZrBXm2EQMiCV0BO/JjBmH2zQOLQxL+5VavBuxTOQJ0uh7+yvaHBN+C5
QMKWGb8B8rTB5mTBQHTYvz5dnJ7BTSqtQC63Vj8sDrLBDNTGQKLnrT9ZM6jBv1e4QHO9M0CqIqXB
c7ewQCvYhED/PYnBXcGrQJFCYUBexJPBMmOKQLk+NEBcYaLBiFA5QAajbEAr1JTBO3PzQOP/U0CD
jJjBSiTZQATqx0Dn+cXBRfoJQUoDsUBh3rnBEoePQEC1q0CiS8PBZqoCQYo9fEB/E6vB6z6AQIHN
c0DxTrTB0am9QPdvI8A5jK3BBm+RQMxOxr/IHKnBD3bIQDX+3L836JrB/TbwQE6mib+K4qPB97zb
QHojHr8TWLfBJ+ilQN+Icr9So7vBpbqfQOBpwj5yCpzBLNXVQLp1NT+o9pfBTaezQAoTvz9F8bjB
hMqKQLFsXT8HLLDBo+3oQOkjsj8EXqrBjVGRQEwFh0AtTYXB1XfGQEUGY0CSSoTBGxi+QOQnpUBs
PorBuDBmQBf0HECPB6fBDVMEQHEKYUAHE5nBT/Q0QIy7g0AKlo3BTMLTQD1jsUDmnb/BOPryQLyc
pUCiEbjBlBiqQGiboEBY3L7BZHXoQCmYiUDpqq/BQ3qfQGpnhED/f7bB5kC+QKiMckDloq7BRivK
QGzqQ0BjMZvB6a+CQNA7XEAfr5jBmvfYQBRuub8kB6nB3SzlQLSn876tDLLBLs6rQALokb/806TB
h/7iQG/Sej+DJa7BRVCpQJcenD4nu6DBfsC1QP1gqD+ctKnBwkOyQLz9MkA9tKXBg7yzQLJxeUBp
ConB18mqQBb8VkA9vpPBIWOFQO6jQkAIpaLBgPo5QMBGdkAK05PBS4HwQDoAPUBuSZnBP8PbQHFN
x0Ct/cXBvosJQe4bskCpubjBpDiSQCNkqUB+tcTBMVgAQQJpgEBh86nB+z5/QNM5bkCgELbBmsPZ
QPeaHsDVHqzB7hPwQHiirL9HcKLB8fkCQc88Mr/hurTBh97OQPp7G797xrjB3IqUQLQ3o7/aV6vB
sCekQOYl6r8pPp7B0Mv6QHJOkD+VxafBGjTqQFl20z/k37TBr2+IQG+YAz/MEZ7B426/QLk42T7Y
85nB8r2eQOdtmD88SrDBG3aVQL95gUAltoTBkPrHQNceTEA2mYTBj3vEQBOJm0Dey4nBGqlYQH/F
OkC4hafBIjkDQAlBdkBT95fBF1s6QHKKhEB7LYzB4tbNQFocuEAQjr7B0r7uQBriq0DrgrfB+Iak
QH7upkBpWb3BaoXmQMs0jkA7T6/B+hKcQMV/iUAOHrXBGua8QLMCekCj663BFYvMQC2POkDPpZvB
7SKFQIApVkBMxJnBLRDEQJqJor8EEKPByzDoQMQjgb5XPKHB6FqZQJ5qC7+69KTBTxLsQPSZNT8C
2KrBJPecQHvMvT74x67B3VzBQApEtj9ap63BGYa1QHdBLUCTd6bBFim1QH5vgUBXfYrBgNmsQPWZ
VUA3npTBtDOIQGr1LUDO9qLBpIE/QHaseUDrt5XB4OvyQGPwOUC3mZnBxU3UQDKzzkAY5MTBnjEH
QXhQuUCYZ7jB/0WLQEtesEBVwcLBdwoAQfFxhED8B6rBe6h4QH6MeECoQrTBUrfLQJdR8b/IGarB
3SrBQAs49b/9+ZvB0T3hQEnnqD5M+ZnBzE0DQYBtSr9dNaDBie5/QNvDpL91UabBXGuRQJSTeD2D
4Z3BhxYCQSW3vD837ajBiZn2QMojCD6E3LHBy3OjQL8+gL493LXBuMx8QI1FZj/c2q/BiQ3GQMHJ
6T9PwrXBV52WQEZriEDoeobBkAPJQLFrWkBARYXBMBLGQIaUn0CqJ4zByo1fQDLlE0D9+abB5Q4J
QDKUdUBF5JnBXB5AQF2ri0BRoY7BHm7NQDaWq0DwoL7Bu6HwQEyun0DuRrjByv2kQDN4mUBuqrzB
OHXrQAjggUBA7a/By5yfQNKKd0DWS7TBXsfCQEDCX0Csrq3BgD7OQFN+UUAI7JnBgwCGQI3OUkDE
HpnBrEKmQAOger+EwrHBXfOTQHOQEr+K0abBl+m9QHq/Tz547bbBPpS3QADg/rysWZ/BkIbiQJBo
Kz+upq/BZNTSQDRKjz8ubaTBtH+8QBMnJEDs2KPBheKtQJ5rh0DoNYnByJWrQHFUX0DYUZPBjzWO
QCUyIECeQqHBdlU8QFH0c0DAfJbBIbrzQCPoYED0u5fBfXPRQMmWwkCF/8TB4N0HQT5yrUBYz7nB
/gCKQGFYokDulcHB+WUDQU85cUDzLKvBp3yAQGq6W0C94LLBJrq8QGxQ6L+8rbDB1OmLQIStpb+e
BbfBi2B3QEHvVz54/afBugWFQI69ub/tD6PBqhbLQPc05b2FsL7BqFmnQARBhD+pJrjBGnuoQMgN
tD6uA5jBMSjNQIK7XL9jUZ3BLj75QGoWJb4Spa7BZtDyQF8rwj/sgrPBPbrvQLq0mT+2cZ/B6wCO
QBVjiED+fIXBSX/EQLvcbkBgx4PBxeO4QO5BqEDsyIrBpitxQKgE+T//HaXBAEAJQH+uZUDW9prB
bQM2QCsOjUAFHZDB

>  <OMEGA_E>  (7) 
YHfdPtxi3j48HuM+qFwPP5yIET8=

>  <OMEGA_NBR>  (7) 
     80501

$$$$
50157415
     RDKit          3D

 50 53  0  0  1  0  0  0  0  0999 V2000
    8.8553    5.7864  -23.2722 C   0  0  0  0  0  0  0  0  0  0  0  0
    5.4428   -0.4731  -22.5394 C   0  0  0  0  0  0  0  0  0  0  0  0
    9.7015   -3.1819  -19.7014 C   0  0  0  0  0  0  0  0  0  0  0  0
    6.3683   -1.2380  -21.8042 C   0  0  0  0  0  0  0  0  0  0  0  0
    8.7711   -2.4891  -20.4920 C   0  0  0  0  0  0  0  0  0  0  0  0
    5.2027    0.8716  -22.1950 C   0  0  0  0  0  0  0  0  0  0  0  0
    4.9307    4.1980  -22.8632 C   0  0  0  0  0  0  0  0  0  0  0  0
    5.2256    5.0536  -23.9408 C   0  0  0  0  0  0  0  0  0  0  0  0
    7.2457    4.3534  -22.1143 C   0  0  0  0  0  0  0  0  0  0  0  0
    6.8089    0.6841  -20.3773 C   0  0  0  0  0  0  0  0  0  0  0  0
    9.8721   -2.8148  -18.3506 C   0  0  0  0  0  0  0  0  0  0  0  0
    8.2544   -1.1322  -18.5414 C   0  0  0  0  0  0  0  0  0  0  0  0
    7.5335    5.2406  -23.1660 C   0  0  0  0  0  0  0  0  0  0  0  0
    7.0545   -0.6609  -20.7108 C   0  0  0  0  0  0  0  0  0  0  0  0
    8.0302   -1.4404  -19.9096 C   0  0  0  0  0  0  0  0  0  0  0  0
    5.9317    3.8622  -21.9164 C   0  0  0  0  0  0  0  0  0  0  0  0
    5.8916    1.4692  -21.1106 C   0  0  0  0  0  0  0  0  0  0  0  0
    6.5193    5.5955  -24.0853 C   0  0  0  0  0  0  0  0  0  0  0  0
    6.3254    3.4026  -19.4427 C   0  0  0  0  0  0  0  0  0  0  0  0
    4.0597    3.5288  -19.1246 C   0  0  0  0  0  0  0  0  0  0  0  0
    5.6115    2.9342  -20.7288 C   0  0  1  0  0  0  0  0  0  0  0  0
    5.5551    4.1653  -17.1676 C   0  0  0  0  0  0  0  0  0  0  0  0
    6.4929    7.8310  -24.8621 C   0  0  0  0  0  0  0  0  0  0  0  0
    9.9282    6.2363  -23.3481 N   0  0  0  0  0  0  0  0  0  0  0  0
    9.1565   -1.8093  -17.7948 N   0  0  0  0  0  0  0  0  0  0  0  0
    5.3222    3.7960  -18.5747 N   0  0  0  0  0  0  0  0  0  0  0  0
    4.1881    3.0499  -20.3434 N   0  0  0  0  0  0  0  0  0  0  0  0
    2.8396    3.7503  -18.4966 N   0  0  0  0  0  0  0  0  0  0  0  0
    7.5276    3.4540  -19.1983 O   0  0  0  0  0  0  0  0  0  0  0  0
    6.7873    6.4446  -25.1379 O   0  0  0  0  0  0  0  0  0  0  0  0
    4.9153   -0.9187  -23.3698 H   0  0  0  0  0  0  0  0  0  0  0  0
   10.2815   -3.9890  -20.1240 H   0  0  0  0  0  0  0  0  0  0  0  0
    6.5543   -2.2667  -22.0756 H   0  0  0  0  0  0  0  0  0  0  0  0
    8.6254   -2.7548  -21.5287 H   0  0  0  0  0  0  0  0  0  0  0  0
    4.4886    1.4510  -22.7615 H   0  0  0  0  0  0  0  0  0  0  0  0
    3.9347    3.7942  -22.7565 H   0  0  0  0  0  0  0  0  0  0  0  0
    4.4577    5.2963  -24.6604 H   0  0  0  0  0  0  0  0  0  0  0  0
    8.0368    4.0421  -21.4482 H   0  0  0  0  0  0  0  0  0  0  0  0
    7.3331    1.1256  -19.5426 H   0  0  0  0  0  0  0  0  0  0  0  0
   10.5902   -3.3483  -17.7456 H   0  0  0  0  0  0  0  0  0  0  0  0
    7.6883   -0.3342  -18.0840 H   0  0  0  0  0  0  0  0  0  0  0  0
    4.5993    4.4382  -16.6966 H   0  0  0  0  0  0  0  0  0  0  0  0
    5.9968    3.3116  -16.6328 H   0  0  0  0  0  0  0  0  0  0  0  0
    6.2436    5.0221  -17.1227 H   0  0  0  0  0  0  0  0  0  0  0  0
    6.7325    8.4402  -25.7462 H   0  0  0  0  0  0  0  0  0  0  0  0
    5.4249    7.9382  -24.6216 H   0  0  0  0  0  0  0  0  0  0  0  0
    7.0970    8.1711  -24.0080 H   0  0  0  0  0  0  0  0  0  0  0  0
    3.4216    2.7966  -20.9335 H   0  0  0  0  0  0  0  0  0  0  0  0
    1.9862    3.5425  -18.9747 H   0  0  0  0  0  0  0  0  0  0  0  0
    2.8153    4.1173  -17.5667 H   0  0  0  0  0  0  0  0  0  0  0  0
  1 13  1  0
  1 24  3  0
  2  4  2  0
  2  6  1  0
  3  5  2  0
  3 11  1  0
  4 14  1  0
  5 15  1  0
  6 17  2  0
  7  8  2  0
  7 16  1  0
  8 18  1  0
  9 13  1  0
  9 16  2  0
 10 14  2  0
 10 17  1  0
 11 25  2  0
 12 15  2  0
 12 25  1  0
 13 18  2  0
 14 15  1  0
 21 16  1  6
 17 21  1  0
 18 30  1  0
 19 21  1  0
 19 26  1  0
 19 29  2  0
 20 26  1  0
 20 27  2  0
 20 28  1  0
 21 27  1  0
 22 26  1  0
 23 30  1  0
  2 31  1  0
  3 32  1  0
  4 33  1  0
  5 34  1  0
  6 35  1  0
  7 36  1  0
  8 37  1  0
  9 38  1  0
 10 39  1  0
 11 40  1  0
 12 41  1  0
 22 42  1  0
 22 43  1  0
 22 44  1  0
 23 45  1  0
 23 46  1  0
 23 47  1  0
 27 48  1  0
 28 49  1  0
 28 50  1  0
M  CHG  1  27   1
M  END
>  <OMEGA_C>  (8) 
Oq8NQdspuUB4LbrBESuuQBZA8r6fULTBQTkbQVSkS8CKnJ3B0cjLQIF3nr/xbq7Bk1YMQfFMH8Cw
76PBH3ymQNkjXz90j7HBNcidQCBWhkDv57bBZTinQCy3oUDDhr/B+NznQCdPi0AB6rDBgOLZQNgh
Lz+jBKPB8vMdQWkmNMAXzpLB9xEEQZfrkL/ZVJTBbRLxQDKzp0DnU7nBg77hQIUxKb+tr6XBk3sA
QTZeuL/tRp/BtNC9QPUtd0DeVK/Bn4e8QLcPvD+Z4qjB8J3QQHoOs0CvrsDB1WnKQBvEWUC3ipvB
TOmBQJLYYUAm/5jBepGzQIzJO0Cb1KXBlMOxQIVKhUBUV4nB4cXPQMeX+kCV5cbB/tkeQeePx0Dv
yLrBAYESQaeX57+8W47Bmk+qQOPwckAPmZTBGAWGQGIxQ0BAv6LBq7w1QHoEcEAG+ZPBXuLwQN8N
XUAIlpnBVTHZQAI6zkBzGsnB20mdQPQua79i9brBDoEkQYBLf8AG/qDB2LzRQCcREcDPmrDByQEK
QSxOMMCuOqzByKKPQGy7uT+LF7bB79J7QGbTckBEDbbBUKWOQBl7qUBpSMXB6ZYAQRpZgUDslavB
iajqQNkUkD81V5zBhnEpQURLVsAM943Bxwb2QG8hq74CrJDBLy2TQKAFjkCckoXBu+W/QAHxU0AL
EIXBpsvHQMe0oEBY+4jBV3DXQPQKB0Eg+M3Bj5itQGwF/kAW+cTBVRrjQNu8AkFsEMDBTPtaQNn6
MkDVd6fBTz3+PwS5YkAlzJfBJC00QADBg0CdiIzB4VsNQep4ukAAILrBMVCkQDkRLL8ROLDBQDot
Qas5i7+sQp3B+dbMQPO7nb+cO67BkQkZQQecBL92FZ/B+x+cQNUqLD9xmK3B8DGeQI7KhECpI7fB
C1SnQMBtoECQu7/Bs5LnQJBjjEBYx7DBU6vlQAC5aj+UeKfBUkw0QRC4CMD46aPBFH4UQW6hBMAa
363BdqTwQN55qECHR7nBYtXtQP+u4L4rzanBpVQMQUOzgb8EkKfB5OW9QPvvdkCjXa/BRXy8QP6J
vD/T4ajBZ0vQQF/iskBJwsDBtk3KQK7sV0Cdc5vBhOGBQErfYkAU/pjBQ4GzQDsDPEBF2aXBNK+x
QHClhUB7WYnBL8nOQClk+kA4BMfBNnIeQW47yUC6wbrBAAkoQU34JsBHA6zBGEyqQOs0c0Dhl5TB
z+yFQEnRRUCKzaLBJag1QAtvcED485PBc6LwQIF3WUDHU5nBcpjYQGETzkDzMsnBzWmLQHBIo79e
xLPBajs3QX0ZOr+G1ZbBQcPSQOFPEcC+GLDBTkoTQSO0kj5SFprB4Pt5QHN2jD/MLq/B8519QIgp
bUApdrbBd9iOQLiHp0AOkcXBZFgAQWOfg0B8Q6vBBFj/QMlJxT9hjqTBytpDQV2uJMAxhqLBk+EK
Qd2cHcBJVrTBXTSTQIJEj0C7qYXBNQC/QPpIVEBL+4TBYGDIQEWFoEC9AYnBw0DWQALxBkE1Gs7B
IpasQKiI/UBIFsXBywriQHvBAkHcMcDBLqFaQMoHOED2nafBLSD+PxPoY0C20pfBkws0QCxcg0DY
dIzBzlkNQUaKukBaH7rBflSkQPHzK7/6ObDBwwApQUucJMD/bqvBMNvMQN6xnb+yPq7Bc5wUQfU0
BMAl1a3BfSacQNJLLD+8mq3BwjKeQFrNhEDYJLfBjFOnQCJzoEBcvL/BFZLnQHJtjEDQx7DBd7Hl
QA62aj+zeafBA6o0QWI/AcAT2aLBsggZQf7TAb9BEJ/BPKLwQDyGqECOR7nBNN/tQMx54L4M06nB
N10MQaFhgb+MlKfBLue9QA35dkCmXq/BaIK8QNeRvD9g46jBWUnQQALsskCPwsDBD07KQGL0V0Cb
dJvBFuGBQGPZYkCd/5jBoISzQGsHPEB52qXBD6qxQGCshUAXW4nBXLnOQHRu+kCHA8fBXG8eQbtQ
yUB7wLrBDKcsQTsygb/f2JzBcUqqQIU8c0BdmZTBQO+FQF3QRUAwz6LBW6Q1QKRfcEDF9ZPBRqLw
QGSCWUBSVJnBFJTYQEsgzkCuMsnBoWuLQNo5o78xxbPBXrIvQcgjWMCjHrDBkcPSQHZOEcCUGrDB
KmQLQSOJHsBfW7TBPgx6QLuPjD/3Ma/BLqJ9QMwobUC+d7bBEtiOQNiLp0D5kcXBJVgAQU6rg0DK
Q6vBylr/QDs0xT+Ci6TBv1hEQcVMGsD+A6HBPdoSQS4lmT5nN5rBwC2TQIxKj0Dzq4XBn/u+QJJa
VEBH/ITBj1nIQKKNoEBqA4nBiy/WQOn3BkEBGc7BtISsQG2K/UCBFsXBR/XhQAvIAkF0MMDBpKha
QPcGOEAGoKfBSB3+PxrVY0DZ1JfBcAM0QNRSg0CBdozBV7ANQfIquUCWLbrBYx+uQKSV8r5CTbTB
JEoTQcWt8b/CqY7BE7vLQHyInr91aq7BxxAEQedgkr/bWpTBsXKmQPAHXz92jbHBUcqdQIBXhkBa
6LbBXzqnQNa6oUDbhr/BFN/nQPNPi0Bn6rDBA+fZQGVULz+VBaPBI38eQdiuOsBj8ZPB0EYMQWqT
H8BcAaTBURTxQE21p0APVLnBlq7hQAI6Kb9qq6XBPHAAQYqhuL82RZ/BotK9QIIvd0BcVa/ByIW8
QOYWvD994qjBB6DQQNERs0DFrsDB8WnKQJDFWUD2ipvB1+qBQJbMYUAq/5jBTpKzQEbNO0A51aXB
0cWxQBBIhUAkV4nBFMrPQNOb+kDA5cbBatseQUaQx0AZybrBPeUaQeIOTcDmYZ7BClCqQPLhckCY
mJTB5wWGQIY4Q0AowKLBAMI1QMTsb0Cg+JPBtOLwQKgbXUCAlpnBPDTZQHg9zkCZGsnBWD6dQB1s
a7+98brB3WIWQSZ41r+3VYbBva7RQMwbEcBelbDBZnb2QDvKtL6AdpDBmZWPQCuiuT8XFbbBxtd7
QAjUckD1DbbB4qaOQKSAqUA9SMXBBpgAQfBYgUB3lqvBUsLqQD1XkD/eXJzBXDwqQX9hX8D3kI/B
eZUJQcgJL8BqUazBki6TQNr6jUCnkYXBMvK/QJ/2U0DeD4XBzcXHQAi5oEA1/IjBIHXXQNEMB0FP
+M3B3ZytQIgK/kBB+cTB3x7jQKG+AkGZEMDBfPxaQA0RM0B5eafByUf+P4mnYkAQzJfBtDI0QPGt
g0CCh4zBgpeFQF1rq0DwDcfBtT+uQEC2777mUbTBqtMgQa1Yxr87fpTBmd7LQK/Jnb/Vb67BR3sS
QVjqSL8Hk5rBK7SmQPfhYD8TmLHBjeznQBdii0AG/LDBJdrwQN5Wp0Cif7nB9KqdQMhkhkA22bbB
G73ZQK/hLz/e+KLB5UIdQczJO8BDZpPBRqz8QEGGNMDCAp7B08umQACfoUCviL/BdRDiQEyyJr8V
wKXBCc0AQS2Btr9ybp/B5dS9QGGdd0CzTa/BT528QBTFvD8/46jBNlvQQOP2skDvu8DBom/KQFX9
WUDVi5vBAeuBQPTRYUBo+ZjBG5azQBIPPECd0KXBPcqxQNtGhUD+U4nBhDnUQB/8+kC1gMbBG0FV
QLxjs0BbL83B1FUMQZvPYsBVGpjBilSqQOr9ckDClZTBageGQE0zQ0AXuaLBfLw1QFLUb0BH8pPB
yPDwQDwUXUAZoZnBMuTZQMBDzkA/EMnBeUOdQG5Iar/C8LrBv28uQTalir8TspDBJqPRQC/kEMCw
j7DB4uUUQf07jj7piJvB1xCQQFztuj+9K7bB+64AQTiogUCwqqvBZ2MIQQX2s0D3frrBnqt7QJDm
ckCi7bXBR/LpQKh/jz9PLZzBfkcoQW6BYcCIs47BPenhQIaSVMAcu6HBKDKTQB7ujUBFjYXBI/2/
QL3tU0BdD4XBysTHQLy7oEDy9ojBkG3cQFBMB0FLhM3BnbCyQNpmAEEgQsTBmTzpQG3OAUG4x7/B
kgNbQFfZMkBacKfB2UT+P6BtYkDLxJfBiyY0QJWng0DCgYzBH4cDQfBE2EBhwLXBWPbCQCUhx77z
urXBN2cCQWv2aMADm5PB407OQPn1ob+KeK3BkhD5QHSJM8CPIJzBn/G6QJBVdj8igLPBPbSjQHFW
eUBAr7jB8SWuQA1rlkBfhcHBbWbeQGAcnEBQla7Bb6/HQFRFDj+LmKDBnUj1QGgdV8CrQYnBzZHP
QMnFvr/qdo/BAyLnQC3Yt0DgIrfBSgDRQFTgS78v1qLB89vdQEKj2r+EFprBsvS8QE4me0DSRK/B
Kr29QPACvD/Q36jBXczPQH8/tEArxsDBYnrKQN4DWEAEppvBnhWCQE39Y0BhOJnBXYezQKKGPEBN
/qXBzxCyQCzEhkC5nInBbIa9QC8r80BBN8rBxVYQQW3q8kDaf7TBSEXbQOGGE8ACVofBGJ6qQLgG
dUDK15TB3A2GQHzaQ0D366LB2D42QNn+ckCELpTB2M/wQEyrUkDAlZnB3RDZQNRAzkB8XMnBTGHA
QJITQb/e1b3BTcMMQZabj8Ar9ZTB8QLVQJ1NE8AZPK/BHFMCQXjrP8BqHqTBlYCyQA6w0D/P87nB
RxmIQB3eT0BgErnBVF2cQLhVk0Cc48jBN2fxQIEMnkAGYqfBhCjIQMpfZj86aJjBTlr+QCIqgMCW
s4LBHMy6QBryJr+g0Y3BkrmTQM0bkUDw+YXB9MK+QOxIVkA9LYXBdEjJQKYxoUBxTInBZ+LGQGgg
A0HwOtHBcyScQHya6EAaHsvB/YvAQPNkA0Hi8sLBGwNbQFq0MkCmlafBa/H+P5g2ZUCj8ZfB9/w0
QLLIhUDpy4zBnIUDQYhH2ECMwLXBB/3CQDo5x76furXBhBndQEfVGMAkeofB/VDOQDvuob/xdq3B
mKHPQMMywL+JfY/BPfK6QPVIdj/ngLPBdrajQKhPeUC5sLjB6yauQExqlkB+hsHB/mLeQBsfnEDt
la7Br6fHQERqDj9nmKDB2kD4QKd3XcBBNIrBgxr5QO27M8ASNpzByx7nQDTbt0BWI7fBo+3QQFPP
S79E1KLBdsndQC7W2r8NGJrBcfS8QMwle0DhRa/BzLq9QHQHvD+p4KjBecrPQMVBtEDIxsDBbXzK
QAEGWEAxp5vBxxeCQEb4Y0CcOJnBOoezQH6IPEBI/6XBJRSyQH6zhkAFnInB54m9QEgv80BkN8rB
rFUQQc/r8kCSf7TBGt0CQTLoacANYpTB1aCqQMz6dEDg15TBEg6GQE/fQ0DD7KLB70Q2QNn4ckBX
LpTBJ9LwQMGpUkBdl5nBKQ/ZQPlBzkBfXcnBT3DAQMUzQb961b3BMsfSQOwHEMBAnH7BeBHVQMtF
E8DcOa/BOcm6QMFwLL9/lo3BI3+yQMOd0D8H9bnBxB6IQP/OT0ByFLnBZV+cQJlUk0Dj5MjBeWHx
QFQRnkBKYqfB+STIQKavZj+OaJjBBUgBQRqYhMBFB4TBuRICQZRhPsAWSqTB/7yTQC0HkUB8+IXB
8sa+QE4fVkBDLoXBc0vJQPsgoUA6SonBleXGQN4hA0FMO9HBJCacQBaj6EBlHcvBFJXAQMBmA0EV
88LB1QFbQMHBMkColqfB+vr+P743ZUCS8ZfBfQU1QMnBhUBSy4zBsXADQf5R2ECoprXBvyqtQOmv
C784sLPBsGQOQUDjXsCCdpfBk43MQMfIor8rI67Bn3H+QOSuM8BIu53BhpGkQC0wSj9M57DB6VKm
QNfHc0ANCLnBYx+wQEGflEAEvMHBFWbeQAnhm0BXjq7B8kzbQGBwLz/XKKPBko8fQcqwMMBF95LB
MVITQZ4sQ7/elZrBJkHnQC2jt0AcGrfBF3PjQClDKb9ot6XBGpwBQS3Rtb8UXJ/BRRK+QO09eEAJ
Xa/BQnK8QAsSuT9jyajBXHzQQCqzs0CmzsDBFoHKQDqgV0DXdpvBQRWCQJhHYkDrF5nB8ruzQKSX
O0Dh36XBl9KxQKxphUChYYnBy5y9QIBr80B828nBojUQQSAF80DpXLTBmskhQejltr9/jpTBF3eq
QG6RckDtn5TBdjaGQNE9RUC276LBGCY2QOUUcEB6CZTB7gTxQErzWUAEf5nBmR/ZQLtczkCNUMnB
I5WbQKDKgb8fHbrBee8MQXpxkcBdGJbB7izTQBP5EsCgTrDBveTjQErWVcCBP6HBomqLQISWqT8e
ALXBKFGMQCOVRkA5tbnBN8GeQFRMkUBmKMnBOILwQEy7nkBcO6fB1AjtQOMxkz8fvpzBPDUrQTsY
UsCII47BP00VQTxxmT62zJvBjE2TQGzjjkAcsYXBj0u/QP79U0BaAoXB2F/IQDRooECLDInB5nfG
QIWBA0E009DBmyKcQMsB6UCtpMrBt0PBQOY8A0HTg8LBP2pbQBuFN0BryafBiO7+PxbPY0B15pfB
7LM0QFskg0A4iYzB9XYDQeVE2EDyp7XBMDGtQEalC78Ls7PBsZwhQRfcw797bpTBE5DMQHO+or8Y
JK7BEksTQV4uRr8YmJrB9JikQDBNSj+J67DB5UimQOPYc0BfB7nBkRewQJSmlEBou8HBBG7eQOrW
m0DEj67BYjzbQNRjLz80J6PBQAQeQWlmOsBhMJPB8x/+QLsONMAYxZ3B5EjnQGmat0AtG7fBkHTj
QKUOKb/SuKXBD5cBQab4tb+hXp/BYhC+QM48eECDXa/BdG28QDAUuT+yyqjBMX3QQOuxs0DfzsDB
7oDKQNGcV0DHd5vByBWCQGZOYkA9GJnBebizQL2WO0Ci4KXBftexQJRlhUAXYonB6qS9QDNw80Dq
2cnBcz0QQSL18kBUXrTB8Q4NQTPPYcBWzpfB3niqQPyOckBcoJTBIzSGQLw9RUDd76LB0yc2QHMr
cEB2CpTBNAXxQDrkWUAPgJnBUCHZQHdczkB/UMnBW56bQLnNgb8dILrBQzsvQWGEh7/GrpDB9izT
QJf4EsDQTbDB8L4VQdCXkj5crZvBBn2LQIizqT+bB7XBhz+MQNW2RkCas7nBabSeQFlZkUA4J8nB
1ZHwQIqonkDEPafBW+HsQJEPkz+It5zBBwspQQSwX8BFcY7BfT7jQItdVMB3ZqHB1VOTQG7gjkAJ
sYXBu0+/QFjyU0BaA4XBeWbIQKhioED2DInBSYDGQCqEA0GC0dDBhCicQLAM6UBXosrBnVLBQMg9
A0H+gcLBAmNbQDOBN0D+yKfBI/H+P+/sY0C155fBN7Y0QK4xg0BkiozB+KCFQBVmq0DWDsfB8jmu
QNDG776pUbTBwp4NQQkQYMBcwpfBGNPLQE/onb+xb67Byub8QCFANMA++Z3BYrKmQAvVYD8Cl7HB
qPLnQKlgi0CR+7DBhuHwQLpTp0CAf7nBS7KdQOxghkCM2bbBtb/ZQIydLz/W+KLBh8IeQVdJMsCu
KZPBtXkSQdh3Rr+mjprBFNSmQGmaoUArib/BLADiQHsxJ7/pvaXBsMgAQWiMtr/oap/BG9u9QKWY
d0CLTa/B5J+8QFizvD+L4qjBo2PQQMvxskBZvMDBpXLKQP32WUBHi5vBOu2BQADXYUAM+pjBeZuz
QBgKPEBN0KXBfsqxQFBLhUBKVInBSz3UQCv2+kBwgsbB3VZVQNRds0DIMM3BIvYgQRm6ub9VmpTB
RlaqQIT/ckDglZTBWQuGQO8yQ0BtuaLB6b41QEHdb0Cy85PBqfPwQDwNXUAeoJnB+O3ZQI09zkDj
EMnBej6dQKooar9S8brBmC0MQSAbksBkgpbBO5fRQI3wEMALkbDBp3XiQBEeVsBRlaHBQQ6QQAzw
uj/YKbbBl7EAQdeogUC7qavBHGcIQQDzs0CnfrrBhrp7QK3dckA97rXBXwPqQOxkjz+tL5zBKWYq
Qe4qVMAVYo7BxGwUQdETlD68pJvBITKTQE31jUAajoXBY/u/QGX4U0DmDoXBOsbHQFK/oECb94jB
4XLcQKFIB0Ephs3BorKyQHtiAEEMRcTBBjzpQKTNAUH0yL/BDg1bQAbYMkDmcKfBQE3+P2p1YkCM
xpfBeSU0QAuug0Big4zB

>  <OMEGA_E>  (8) 
Tg0zPwxuND8ocTQ/YAgzPyoxOz8ImDo/qJc6P062OT+2qTk/eDI7Pw==

>  <OMEGA_NBR>  (8) 
     15643

$$$$
50157426
     RDKit          3D

 52 55  0  0  1  0  0  0  0  0999 V2000
    5.1342   -0.6750  -22.0259 C   0  0  0  0  0  0  0  0  0  0  0  0
   11.1849   -0.7849  -20.7325 C   0  0  0  0  0  0  0  0  0  0  0  0
    6.4018   -1.2338  -21.7810 C   0  0  0  0  0  0  0  0  0  0  0  0
    9.9404   -0.2031  -21.0169 C   0  0  0  0  0  0  0  0  0  0  0  0
    4.8793    0.6703  -21.7011 C   0  0  0  0  0  0  0  0  0  0  0  0
    4.9305    4.1355  -22.8803 C   0  0  0  0  0  0  0  0  0  0  0  0
    5.2040    4.9942  -23.9553 C   0  0  0  0  0  0  0  0  0  0  0  0
    7.1800    0.9173  -20.9432 C   0  0  0  0  0  0  0  0  0  0  0  0
    7.2214    4.3804  -22.1029 C   0  0  0  0  0  0  0  0  0  0  0  0
   11.2471   -2.1558  -20.4120 C   0  0  0  0  0  0  0  0  0  0  0  0
    8.9236   -2.3800  -20.6438 C   0  0  0  0  0  0  0  0  0  0  0  0
    7.4385   -0.4363  -21.2432 C   0  0  0  0  0  0  0  0  0  0  0  0
    8.7803   -1.0100  -20.9733 C   0  0  0  0  0  0  0  0  0  0  0  0
    5.8912    1.4705  -21.1133 C   0  0  0  0  0  0  0  0  0  0  0  0
    5.9241    3.8517  -21.9174 C   0  0  0  0  0  0  0  0  0  0  0  0
    7.5077    5.2683  -23.1644 C   0  0  0  0  0  0  0  0  0  0  0  0
    6.4869    5.5858  -24.1040 C   0  0  0  0  0  0  0  0  0  0  0  0
    6.3223    3.3727  -19.4297 C   0  0  0  0  0  0  0  0  0  0  0  0
    4.0596    3.5450  -19.1205 C   0  0  0  0  0  0  0  0  0  0  0  0
    5.6079    2.9323  -20.7272 C   0  0  2  0  0  0  0  0  0  0  0  0
    5.5558    4.1860  -17.1704 C   0  0  0  0  0  0  0  0  0  0  0  0
    5.7311    6.7670  -26.0909 C   0  0  0  0  0  0  0  0  0  0  0  0
    8.9109    5.8862  -23.2851 C   0  0  0  0  0  0  0  0  0  0  0  0
   10.1329   -2.9252  -20.3720 N   0  0  0  0  0  0  0  0  0  0  0  0
    5.3233    3.8030  -18.5736 N   0  0  0  0  0  0  0  0  0  0  0  0
    4.1843    3.0808  -20.3428 N   0  0  0  0  0  0  0  0  0  0  0  0
    2.8400    3.7615  -18.4912 N   0  0  0  0  0  0  0  0  0  0  0  0
    7.5204    3.4032  -19.1654 O   0  0  0  0  0  0  0  0  0  0  0  0
    6.7873    6.4609  -25.1461 O   0  0  0  0  0  0  0  0  0  0  0  0
    9.7433    5.4740  -22.2883 F   0  0  0  0  0  0  0  0  0  0  0  0
    8.8250    7.2420  -23.2159 F   0  0  0  0  0  0  0  0  0  0  0  0
    9.4744    5.5313  -24.4706 F   0  0  0  0  0  0  0  0  0  0  0  0
    4.3545   -1.2801  -22.4645 H   0  0  0  0  0  0  0  0  0  0  0  0
   12.0852   -0.1889  -20.7590 H   0  0  0  0  0  0  0  0  0  0  0  0
    6.5837   -2.2747  -22.0044 H   0  0  0  0  0  0  0  0  0  0  0  0
    9.8697    0.8456  -21.2654 H   0  0  0  0  0  0  0  0  0  0  0  0
    3.9069    1.0957  -21.9008 H   0  0  0  0  0  0  0  0  0  0  0  0
    3.9520    3.6878  -22.7881 H   0  0  0  0  0  0  0  0  0  0  0  0
    4.4305    5.2079  -24.6781 H   0  0  0  0  0  0  0  0  0  0  0  0
    7.9813    1.5419  -20.5771 H   0  0  0  0  0  0  0  0  0  0  0  0
    8.0098    4.1004  -21.4199 H   0  0  0  0  0  0  0  0  0  0  0  0
   12.2053   -2.6033  -20.1930 H   0  0  0  0  0  0  0  0  0  0  0  0
    8.0447   -3.0066  -20.6083 H   0  0  0  0  0  0  0  0  0  0  0  0
    4.6039    4.4890  -16.7099 H   0  0  0  0  0  0  0  0  0  0  0  0
    5.9725    3.3292  -16.6208 H   0  0  0  0  0  0  0  0  0  0  0  0
    6.2650    5.0260  -17.1325 H   0  0  0  0  0  0  0  0  0  0  0  0
    6.1102    7.4648  -26.8521 H   0  0  0  0  0  0  0  0  0  0  0  0
    5.3953    5.8398  -26.5783 H   0  0  0  0  0  0  0  0  0  0  0  0
    4.8860    7.2285  -25.5590 H   0  0  0  0  0  0  0  0  0  0  0  0
    3.4143    2.8556  -20.9398 H   0  0  0  0  0  0  0  0  0  0  0  0
    1.9865    3.5612  -18.9724 H   0  0  0  0  0  0  0  0  0  0  0  0
    2.8156    4.1176  -17.5571 H   0  0  0  0  0  0  0  0  0  0  0  0
  1  3  2  0
  1  5  1  0
  2  4  2  0
  2 10  1  0
  3 12  1  0
  4 13  1  0
  5 14  2  0
  6  7  2  0
  6 15  1  0
  7 17  1  0
  8 12  2  0
  8 14  1  0
  9 15  2  0
  9 16  1  0
 10 24  2  0
 11 13  2  0
 11 24  1  0
 12 13  1  0
 20 14  1  6
 15 20  1  0
 16 17  2  0
 16 23  1  0
 17 29  1  0
 18 20  1  0
 18 25  1  0
 18 28  2  0
 19 25  1  0
 19 26  2  0
 19 27  1  0
 20 26  1  0
 21 25  1  0
 22 29  1  0
 23 30  1  0
 23 31  1  0
 23 32  1  0
  1 33  1  0
  2 34  1  0
  3 35  1  0
  4 36  1  0
  5 37  1  0
  6 38  1  0
  7 39  1  0
  8 40  1  0
  9 41  1  0
 10 42  1  0
 11 43  1  0
 21 44  1  0
 21 45  1  0
 21 46  1  0
 22 47  1  0
 22 48  1  0
 22 49  1  0
 26 50  1  0
 27 51  1  0
 27 52  1  0
M  CHG  1  26   1
M  END
>  <OMEGA_C>  (9) 
TkukQJDKLL8eNbDBd/UyQQjwSL843KXBQNvMQM7snb+VP67BCgwfQajtT76WIqjBTCOcQPGWKz/f
m63BVMadQDdWhEDKCrfBcoemQDHQn0BwpL/BVsLlQKXSaj/Ei6fB7xXnQE0sjEC50rDB/PMzQTL4
CcC2S6PBA8cOQcVRGMBwJqXB2wfuQHZf377+8anB/HsMQSpHgb9PyafBboS8QIE6vD/756jBIpK9
QFKCdkDsVq/Byj7wQDiWqEDEULnBFZXPQOC+skD11MDBr1DKQJXaV0AFcJvBiuiBQCbhYkDK9pjB
s3OzQCmqO0BN0aXBHMmxQAf0hUAKXYnB9GS3QDmL2EAUutDBM5MOQVhbvED3R7rBUyAiQX02O8Dp
+aLBcViqQLtkc0DPlpTBgeWFQAAsRUALvqLBwsE1QD+8cEDu7ZPB06bwQN3NWUC3UpnBlzHZQIe/
zkAxK8nBYuQbQWErr0BtTrLBWjMNQd++50AiurnBAZcXQX8AsUC+w8PBHliLQCTao786t7PBCl1B
QXZ5Qb5tEqbBx63SQPmTEcAGCbDBJ+odQSt4WD9/H6rBBwt6QE4/jD/sNK/BMe18QKkEbED5TbbB
CseNQMOmpkDAbMXBMWf/QGRdxT/9naTB+ycAQTs2g0DoW6vByEhDQT+dJsBdi6HBGbcAQfJsQMDD
3aTB21KTQImlj0DwrYXBHx+/QN0QVUBx94TB/HrIQC/VoEBDD4nBb4bDQEnf7kAD0dbB/6WsQPHf
ukBhoNTBA1qcQL5P50DdeMzBHYRaQGrCNkDKhKfBckb+P2fqY0Bmx5fBDDI0QH3Dg0DadIzBCMPB
QHi0qb7Q+7XBQQEDQcVqaMDgHZTBfWTOQG9hnL/23q3BtPb5QETLMsDTmpzBDRm5QMDbgT/Kh7PB
B/GcQEpnh0CP57bBHJamQNNtokBmkr/BY5fIQAzEEj8kw6DBP/fmQFRcjEBu5LDBw8b2QNjyVsAd
uonB0sXQQFF8vr/f0o/BtLvRQDg4Rr9BK6PBZdPeQBhK2b+7fJrBbHe9QJrOvj8Z5KjB8PK8QHSS
eUChVK/BlKjwQEy9qEBRUrnBlRTQQKuus0DTusDB9U/KQIdiWkAhu5vBs9+BQLplY0DYHJnBbSiz
QJDJPEBs9KXBgg2yQF7ghkDTmInBpkTJQGKe+UDV4MfBcuEOQbvMu0CuTrrBFbncQNiTE8AUvIfB
QGmqQCe1dUAY1ZTB176FQKq4QkAkxqLBFeY1QDGrcUAkCJTB2qDwQA0mVkABoJnBNP7YQKZ4zkDy
M8nByBkcQVExrkD3WLLBw+ANQW4w50DPsrnB37MXQVtVsEBy0sPB87O+QM6NLr/THr7B0F8NQUtF
j8CRh5XBB5DVQAH+D8DP0K/BlKMCQS0FP8DUn6TBsA2vQLNU2D9GybnBIwB6QNVhdUDfBLbBgB+O
QPAFqkA9X8XBTx/KQF7raD+2j5jB0g8AQQ1UgkCLhqvBwA0AQcAigMCrNIPBcfW7QLYeJ7/3HY7B
QamTQFCEkEBG3oXBM3G/QGe2VkDhP4XB8sXIQHy7oUBmSInBL7LRQNBgBkEE9c7Bq0WmQC35+EA1
8sbBBdvXQCH+A0FTuMDBNFdaQClYMECkWqfBPUf+P4bcYkBnvJfBGKk0QO1ehUBDrIzBMa/BQO7b
qL58/LXBHHLeQNvzGMB95YfBtUXOQCw6nL9F363B9sHQQDj2v7/Q3I/B3w65QPMXgj9IiLPBiu+c
QHp1h0Am5rbBNpOmQDp8okDvkL/BYJHIQD0nEz/Tw6DBSvbmQOhqjEBw47DBU5j5QD9eXcDjs4rB
fOb5QAYGM8BTtJzBb5jRQKQARr9gK6PBD6zeQNGD2b9ngZrBunO9QAEFvz+b5KjBpfK8QP+teUCp
U6/BgKfwQILHqEAVUrnBBBLQQOi6s0AAusDBbVLKQMlxWkCmupvBeeKBQABuY0DjG5nB1ymzQNvh
PEAZ9KXB7A+yQBPXhkBllonB+ETJQBWu+UDu3cfBv+EOQe3Qu0CvT7rBTGQDQRZtacBS6pTBFGyq
QCu4dUCX05TBF8GFQI3OQkDpxaLBWOo1QC2tcUBvB5TBVqPwQK8sVkDhn5nB9PjYQCuHzkD0MsnB
chscQfUurkBNW7LBJeQNQX4050Azs7nBtrAXQQpZsEAr1MPBSqG+QGQULr+rH77BkkvUQFd8EMBE
aX/BP2zVQH7sD8Am0a/Bnee7QOmbLL+O5Y3BEgavQAWa2D+IybnBX/15QGB+dUAmA7bBPBuOQDgW
qkBCXcXBKC7KQONtaT/4kJjBFQ8AQZ9mgkDvhKvBhxECQcachMARkYTBOlYCQdN9PcAWz6TBjKuT
QLN3kEBf24XBF3O/QB6bVkATP4XBnMjIQKmxoUBCRInBeq/RQMppBkH18c7Bl0amQDoM+UDA7cbB
B+LXQJkDBEGttcDBcFtaQAR2MEDdWqfBhFL+P8LkYkBovJfBjqo0QJRahUD/qozB8UakQCzRLL8i
NLDBj3wjQfSeN8CkAqPBw9PMQLYEnr8qPq7Bv+kOQY/rF8A9JqXBuiKcQP6OKz+Imq3B57+dQItT
hECdCrfBQH6mQLXNn0BupL/BJsPlQEGXaj+kiqfBDxHnQCIsjEC207DBpig1QSRn/7/Vh6PB1Agf
QZngRL7RH6jBagDuQHgu4L7D7anBhXwMQQ03gb9HxafBDoa8QI8uvD8C56jBqo69QAd9dkB1V6/B
ljbwQO+WqEDEUbnBdovPQJS8skDL1cDB2VHKQLvhV0CocJvB4umBQMjpYkDp9pjBrHSzQC6nO0A+
0aXB2s6xQCEEhkDBXonBzFa3QIWI2ECNutDBJY4OQd9fvEBXSbrB4cEyQYbSL7/TCqbBNlqqQNF3
c0Dgl5TBcuaFQHMjRUBhvaLBe8M1QJfNcECY7pPBAqjwQIXPWUBlU5nBBybZQJG7zkCJLMnBmt8b
QX01r0BhT7LBSiwNQVrD50CZvLnBWpIXQWMDsUDaxMPBllKLQEbPo7/ytrPBm8ElQT4zesBU/KDB
bKTSQIKdEcBkCbDBRikBQZStQcB9y6TBwgp6QE1DjD8NM6/B2+B8QE7/a0AfTbbB8buNQEekpkA8
bMXBl2z/QAY/xT9Pn6TBViYAQUw3g0A6XavBDPpEQVA6GMBN46HBtl0dQWKHWj9GHKrBPVqTQLq5
j0B6r4XBiiS/QAQ1VUBT+ITBY4LIQCXkoEByEonBE3fDQAPb7kD+0dbBKpSsQHXdukBSoNTBtE6c
QF1P50C1eMzBQYVaQLWqNkBKg6fBDUv+P/z0Y0DXx5fBpjI0QKrSg0AkdozB6WzWQEveVb51hLXB
efekQCEYhcATOJbBSSDPQP04mr+8y63BmDesQMB1TcDKSZ7BCfHNQLHRkT+VH7PBehidQFX6hUCk
7LbBYAamQJbIoEDkob/BosG2QFpj/j7dN6HBCi7mQNfEjkBKlLDB5ympQOSuccASaovBlBC7QDrA
yr86TpDB4kW/QOp4W7/3kKPB4X+3QCyL8r/EVpvBJPu9QOe3wD8d5KjBD8C8QAdEe0CWJK/BqZXv
QMs6qkAlObnBMBvPQEuls0A82cDBClzKQPQZWEA0mJvBkOmBQLkfZEAAH5nBRHOzQHJcPUAS6KXB
HO6xQB7ThkDUjYnBxSi3QAVL2EBp69DBvEYOQV3AvUCjObrBPQG0QGnIIMCooIjBg3yqQAZadUBB
yZTBvuSFQIWRQ0Bjx6LBVMo1QD/BckBGGZTB85HwQNIJUkDCd5nB3uTYQI7rzkAIUMnBuY4bQY/S
sECRNLLBpO0MQb8k6UAsybnB3lEXQdDpsUA8qsPBBZXiQDWa9b5DT73BVkKcQPCFpcCwQ5jBiaTV
QHlMD8DMra/BNzapQOzeXsCmnabBspXTQEwx8z9+F7nBNp17QG89b0DEKbbBQGiNQOorp0B9e8XB
O4WqQDXLQz9rbZnBKCL/QNOxhkDo86rBQJqjQHZDkMAUN4XBDKXDQMJWFL+4943BJZ6TQNhHkUB0
7IXBNHu+QNs8VkDvH4XBX0PJQJ8loUBDOYnBtWnDQOIS7kDmHdfBTEOsQP5gukBfrNTBejCcQKeI
50CqvczBjMBaQG5tMUCRZKfBskf+P+dPZECs2ZfBjFA0QEbchUAevIzBoTGuQCga9r7CQbTBzsIT
QdH27r/tto7B6f3LQGqwnr/zYa7Bd3AEQQFZkL/iYpTBjl2mQG81XT+ahrHBNmWdQOCEhkCj6rbB
QfqmQJcAokCbgb/BQQnaQNNBMD+RCKPBw47nQFqvikAyBLHBDfYeQapXOcCN/pPBsI0MQdPkHsAu
BaTBB/3hQGMtKL9dqqXB9rQAQUhQt7+sSJ/BkHS8QAjQuz+T4qjBcnO9QHzZdkAdZa/BKDHxQLOY
p0DxV7nBzIHQQK8us0CLqMDB5ljKQJwIWkB+mJvBPeeBQHncYUAd/pjBLVyzQGKoO0D23KXB2PSx
QGSthUDjZonBuAfKQHyS+UAfk8fB9y8PQQOBukC1UrrBSUQbQTkKTMCUap7B4FaqQAZOc0Czo5TB
pd6FQG79QkDmvKLBSeQ1QFXxb0CQ7ZPBcNPwQAuLXUD3pZnBymbZQDhgzkDcDsnBGG0cQRp6rEDV
arLBIFEOQbXi5UB1nLnBg+gXQXBPr0Bu4cPBaEmdQCpCbr9w4LrBye8WQbkz07+eZobBAg7SQGMs
EcCGibDBbTj3QIKbrL4ofpDBcl+PQMQuuD+VDLbBzOF6QLmhc0B3DbbBR22OQGj/qUDXP8XBv+nq
QIhYkT9PZZzBp20AQcv5f0DVxavBP8UqQcbJXcDMoY/BDMoJQf+cLsDNUazBQGqTQDlqjkB0nIXB
ETbAQCjpVEACHIXBRPHHQI8joUAYGInB/G7SQCyABkEHm87BjA2nQKUj+UCZl8bBvOTYQBi8A0Hg
ZMDBDI1aQBaYMkCBbafB2lP+P99oYkD2tpfB8I00QODNg0A0f4zBlzeuQFYS9r4oQrTBiJ4bQcJ5
SsDEoZ3BmwHMQGK5nr+RYq7Bl50MQWCWHsD276PBeWamQAw9XT8qh7HB1WadQF+ChkCb6rbB8Pum
QF78oUDzgb/BLgTaQKsFMD89BqPBUY/nQOmwikC3A7HBfm8eQQ6fMsD315LB32kEQSjojr+QWZTB
2wXiQOJCKL+zq6XBPrwAQfwSt78jR5/BlHa8QOfEuz+e4ajBvHS9QGTWdkDVZK/BajHxQD6Zp0DF
V7nBioLQQLcrs0DiqMDBH1nKQBcGWkBcmJvBT+eBQD/rYUD7/pjBWV2zQPWjO0CK3KXBiPGxQCS6
hUDVZ4nBxQrKQEiO+UC6lMfBzS8PQRmDukB6UrrBLvUSQfG35L8tZY7Bo1aqQORec0CgpJTBit+F
QLP5QkDjvKLBxOQ1QFsPcEAT75PBktPwQCJ+XUBxpZnBEmbZQGhazkDiD8nBkWwcQZl/rEBJarLB
iFAOQfDk5UDJnLnBAOkXQTpQr0DZ4MPBFU6dQLMzbr/P4LrBTuwkQVMOfsCWA6HBPgzSQN8zEcCr
ibDBvDYKQbXiL8A8N6zBhm+PQJhAuD+HDrbBzeR6QJOdc0BQDbbBTm+OQMb4qUB8QMXB4dPqQK4Z
kT84X5zB2W0AQZABgEDoxKvBngQqQTVoVMDnBI7B+Kv2QDeco75LsJDBv2aTQIx+jkCXnoXBnyvA
QKIBVUCuG4XB6vLHQF4soUA8GYnB6XDSQIt8BkE+nc7B7RCnQGIi+UBlmMbBcOvYQK26A0EfZ8DB
CpBaQKOIMkANbafBJFT+PyyEYkA+uJfB2440QL/jg0BmgYzBJLrdQBCWSz34XbbB9MSuQPdHKcBM
3IzBHJjQQJ51gb880a/BitG+QPDV2b9LDJTBHMHVQN8VsD8qK7PBImSbQM6Ch0AzerbBJgClQPEg
oEB3hb/B4sO0QJr1FD9myaLBduTjQBTukUDi4K/BigORQBRuZsDMkJDBuPSSQEeZLsCO9KHBCy29
QOVUOb8c8qXBjrKwQIAA4b8FtJ7B8qy/QHo40j/2bKnBQam6QKgGgUCZfq7BKSjuQNRaqkAQ7rjB
CHnOQPvmsUBV3sDBO9jJQBTSV0D4O5vBeYWBQBRRZEC14JjBnQqzQKTiQUBrqaXBitewQD2yg0Ce
DYnBvWu3QDLJ10A+xdDBxP0NQYc4ukAbT7rB8JuDQAo6aMBs5ZrBEvapQEhIdECObJTBw5yFQAxr
Q0AyfKLBFBw1QJ/Vc0CN75PBgV/vQO5QSkCb45jBirDZQFyryUAJ18nB6/0ZQdWxs0BmXbHByPYN
Qe3a5EDFW7zB/EUXQfe1pEBzhsLBvOTtQJYWGb7a1b3BxvK4QFsyKcCSmoTB1lTVQFUzAsBXUrLB
VHHVQEljc7//fJHBHWzgQFJ/DEB1H7jBPwN4QLvtckDEm7XBBbeMQCSjpUAjg8XBZ7mlQEvQRT+/
KJvBXRL8QO8JjEAn4qnBComEQG6XisDlBIvBU0iIQMw+MMCcK6rB7JaSQKxmjkDab4XBsB+8QJZw
TUDZ7YTB8frIQBIgnUDORYjBCtrEQH8Y6kCZftfBjg+mQMLHu0DK3dPBAUahQBg37ECOOMzBCsVa
QPxmLkDUAKfBJgP9P7/FZUBtuJfBT4QzQAWLhkBklozB

>  <OMEGA_E>  (9) 
sq0sP/TjLj+M4C4/FqwsP/DCLT/oyi0/iM0tP7TcMj8=

>  <OMEGA_NBR>  (9) 
     22929

$$$$
50157441
     RDKit          3D

 52 55  0  0  1  0  0  0  0  0999 V2000
    5.4453   -0.4667  -22.5415 C   0  0  0  0  0  0  0  0  0  0  0  0
   10.0447   -1.5561  -18.5573 C   0  0  0  0  0  0  0  0  0  0  0  0
    6.3692   -1.2326  -21.8054 C   0  0  0  0  0  0  0  0  0  0  0  0
    9.1501   -0.7897  -19.3181 C   0  0  0  0  0  0  0  0  0  0  0  0
    5.2106    0.8800  -22.2003 C   0  0  0  0  0  0  0  0  0  0  0  0
    7.2500    4.3569  -22.1216 C   0  0  0  0  0  0  0  0  0  0  0  0
    7.5280    5.2321  -23.1850 C   0  0  0  0  0  0  0  0  0  0  0  0
    6.8026    0.6858  -20.3704 C   0  0  0  0  0  0  0  0  0  0  0  0
    4.9302    4.2004  -22.8564 C   0  0  0  0  0  0  0  0  0  0  0  0
    9.8202   -2.9406  -18.4220 C   0  0  0  0  0  0  0  0  0  0  0  0
    7.8893   -2.8238  -19.7510 C   0  0  0  0  0  0  0  0  0  0  0  0
    7.0617   -0.6526  -20.7182 C   0  0  0  0  0  0  0  0  0  0  0  0
    8.0452   -1.4290  -19.9274 C   0  0  0  0  0  0  0  0  0  0  0  0
    5.8945    1.4751  -21.1108 C   0  0  0  0  0  0  0  0  0  0  0  0
    5.9347    3.8698  -21.9124 C   0  0  0  0  0  0  0  0  0  0  0  0
    5.2171    5.0403  -23.9519 C   0  0  0  0  0  0  0  0  0  0  0  0
    6.5126    5.5919  -24.0914 C   0  0  0  0  0  0  0  0  0  0  0  0
    6.3266    3.4052  -19.4419 C   0  0  0  0  0  0  0  0  0  0  0  0
    4.0601    3.5292  -19.1223 C   0  0  0  0  0  0  0  0  0  0  0  0
    5.6133    2.9391  -20.7264 C   0  0  2  0  0  0  0  0  0  0  0  0
    4.1145    5.3889  -24.9371 C   0  0  0  0  0  0  0  0  0  0  0  0
    5.5545    4.1622  -17.1643 C   0  0  0  0  0  0  0  0  0  0  0  0
    6.6442    7.8449  -24.8017 C   0  0  0  0  0  0  0  0  0  0  0  0
    8.7624   -3.5487  -19.0119 N   0  0  0  0  0  0  0  0  0  0  0  0
    5.3227    3.7954  -18.5720 N   0  0  0  0  0  0  0  0  0  0  0  0
    4.1893    3.0512  -20.3409 N   0  0  0  0  0  0  0  0  0  0  0  0
    2.8392    3.7493  -18.4953 N   0  0  0  0  0  0  0  0  0  0  0  0
    7.5297    3.4520  -19.2013 O   0  0  0  0  0  0  0  0  0  0  0  0
    6.8049    6.4476  -25.1304 O   0  0  0  0  0  0  0  0  0  0  0  0
    4.9152   -0.9125  -23.3701 H   0  0  0  0  0  0  0  0  0  0  0  0
   10.8952   -1.0911  -18.0810 H   0  0  0  0  0  0  0  0  0  0  0  0
    6.5488   -2.2638  -22.0715 H   0  0  0  0  0  0  0  0  0  0  0  0
    9.3024    0.2728  -19.4369 H   0  0  0  0  0  0  0  0  0  0  0  0
    4.5045    1.4630  -22.7729 H   0  0  0  0  0  0  0  0  0  0  0  0
    8.0452    4.0524  -21.4574 H   0  0  0  0  0  0  0  0  0  0  0  0
    8.5245    5.6302  -23.3075 H   0  0  0  0  0  0  0  0  0  0  0  0
    7.3082    1.1187  -19.5199 H   0  0  0  0  0  0  0  0  0  0  0  0
    3.9330    3.8041  -22.7350 H   0  0  0  0  0  0  0  0  0  0  0  0
   10.5073   -3.5312  -17.8343 H   0  0  0  0  0  0  0  0  0  0  0  0
    7.0530   -3.3232  -20.2175 H   0  0  0  0  0  0  0  0  0  0  0  0
    3.5855    6.2897  -24.5925 H   0  0  0  0  0  0  0  0  0  0  0  0
    4.5543    5.5784  -25.9274 H   0  0  0  0  0  0  0  0  0  0  0  0
    3.4053    4.5508  -25.0051 H   0  0  0  0  0  0  0  0  0  0  0  0
    4.5980    4.4324  -16.6930 H   0  0  0  0  0  0  0  0  0  0  0  0
    5.9975    3.3081  -16.6312 H   0  0  0  0  0  0  0  0  0  0  0  0
    6.2415    5.0200  -17.1174 H   0  0  0  0  0  0  0  0  0  0  0  0
    6.8953    8.4596  -25.6787 H   0  0  0  0  0  0  0  0  0  0  0  0
    5.6013    8.0346  -24.5076 H   0  0  0  0  0  0  0  0  0  0  0  0
    7.3133    8.1047  -23.9682 H   0  0  0  0  0  0  0  0  0  0  0  0
    3.4234    2.7963  -20.9311 H   0  0  0  0  0  0  0  0  0  0  0  0
    1.9864    3.5412  -18.9743 H   0  0  0  0  0  0  0  0  0  0  0  0
    2.8137    4.1157  -17.5652 H   0  0  0  0  0  0  0  0  0  0  0  0
  1  3  2  0
  1  5  1  0
  2  4  2  0
  2 10  1  0
  3 12  1  0
  4 13  1  0
  5 14  2  0
  6  7  2  0
  6 15  1  0
  7 17  1  0
  8 12  2  0
  8 14  1  0
  9 15  2  0
  9 16  1  0
 10 24  2  0
 11 13  2  0
 11 24  1  0
 12 13  1  0
 20 14  1  6
 15 20  1  0
 16 17  2  0
 16 21  1  0
 17 29  1  0
 18 20  1  0
 18 25  1  0
 18 28  2  0
 19 25  1  0
 19 26  2  0
 19 27  1  0
 20 26  1  0
 22 25  1  0
 23 29  1  0
  1 30  1  0
  2 31  1  0
  3 32  1  0
  4 33  1  0
  5 34  1  0
  6 35  1  0
  7 36  1  0
  8 37  1  0
  9 38  1  0
 10 39  1  0
 11 40  1  0
 21 41  1  0
 21 42  1  0
 21 43  1  0
 22 44  1  0
 22 45  1  0
 22 46  1  0
 23 47  1  0
 23 48  1  0
 23 49  1  0
 26 50  1  0
 27 51  1  0
 27 52  1  0
M  CHG  1  26   1
M  END
>  <OMEGA_C>  (10) 
PECuQO3t7r4WVbTBK7cgQRQvx79QdZTBItDLQEXHnb92ca7BvWYSQagrSr9fi5rBL72mQCdKYT8u
mrHBsf/nQAxsi0Ah+bDBueXwQBptp0DTernBrq7ZQF6OLz+a9qLBbMSdQOpphkD/2bbBWB8dQXwz
PMBYYJPBTnX8QKK5NMARAp7BxfnhQEcOJ7/IvqXBPrkAQSnotr89a5/B+Z+8QAjQvD/n4qjBLum9
QFard0CuTK/BTvKmQDVKoUBtnb/BdGfQQOnwskAqu8DBInPKQCHvWUD0iJvBOuyBQNrdYUBt+pjB
9p+zQNkZPECaz6XB8amDQPpxrEAkf8fBY76xQJcwhUCFUInB95zUQCIJ+0D4acbBujIMQQkeY8Br
GJjBN1OqQM/nckB8k5TBIg+GQLBGQ0A4uqLBnrU1QOjzb0Ba9pPBZvPwQHPtXEBPnJnB8MHZQJVS
zkAdC8nBAkmdQIucab/19brBnVIuQaGni7/kpZDBgY/RQKviEMBXkrDB0dYUQX2xiz7ffpvBxCSQ
QFtEuz/+LrbBTrkAQROtgUDUqKvBLGQIQfYqtEDIdbrB+NzpQPEvjz/OKJzBk7V7QKx1c0BV4bXB
AR4oQbn/YcC6rI7BXLLhQKWvVMByvaHBZnhlQCRFyUBvvcTBjryRQF+CskBFa8/BOPBZQFigkUB6
CsjBFSOTQEbWjUA0i4XBL+u/QC63U0ChDIXBY7rHQKmjoEB08IjB9aXcQI5aB0H2bc3BLj6zQKaN
AEGFD8TBtgbqQMqsAUH2vr/BzBhbQI72MkDzcqfBSUP+P4eiYkBjy5fBDRM0QMmzg0CFhYzBFw6k
QM3MK79dMbDBpcsyQd/JTL8iv6XBoofMQAgLnr/qNK7BcOoeQULdW77pCKjBkAycQNMOLT8Vnq3B
uMLnQMJHjEC02rDBfX/wQL8oqEAVaLnBM6DlQIwTaj/BgKfB6yeeQKPlhECJErfB+LkzQRX5CsAs
M6PBXIwOQVTwGMB8GKXBuMLtQDua4b7C46nBPFEMQfFjgr/EtqfBjX28QA6lvD+E6KjBdwa+QHUX
d0BXWa/BGQenQJ4woECyx7/B2x/QQDbHskDwyMDBql/KQHDxV0CPcZvBxeyBQNSVYkDb95jBXJqz
QHQSPEBA1qXBwb2DQDrYqkBDtcfBfbWxQDxlhUDeUInBiJLTQK3i+kCEhcbBYt4hQZEMPMD56KLB
TVaqQKHNckAPkJTB3v+FQIO/RUAJyaLBMrQ1QMQTcEAq75PB07rwQF4/WkD/XJnBYD/ZQDUzzkBy
HMnBnA2LQOQNo784tLPBMjlBQasDU75O76XBgD3SQJGxEcCx+6/BbdUdQSWeVT8jA6rB0f95QKdq
jT8GPa/BaoYAQRmKg0DTYqvBzxUIQUd+tUDZUrrBx07/QHWLxD8sjKTBomN9QJvmbUByR7bBbwhD
QdDJJ8AucKHBIHYAQZbqQMDY1aTBgUVkQIg6x0A27sTB0umRQEtvsUDQl8/BGUFbQIyTj0DIV8jB
BTKTQLfUjkDlnYXBhy+/QNvaU0D29oTBa0PIQE1ioEBW94jB53TbQBpHB0FTjM3BpByyQBBOAEG2
McTBfdLoQILDAUHT2L/BAsxaQJkEOEDcmqfBBUb+P8mpY0Dg0JfBEwo0QI4Zg0AlbozBJwqkQAaT
K79FLrDBLjojQb99OMBd8KLBw3/MQKIMnr8MMq7BFq4OQX+KGMBTFqXB4Q+cQL1NLT/rmq3Bwsnn
QA1TjEC+2rDBEIPwQJIwqEAHabnBAaflQGX6aT/qfqfBUS+eQCHmhEAeErfBdvA0QUfCAMBHb6PB
nugeQRxWUb5aB6jBD73tQJM34r5l3qnBBlIMQQtWgr8HsqfBP4a8QGi2vD+T5qjBABC+QPQhd0AK
Wa/B9wmnQFQyoEBtx7/B2SHQQNPIskABysDBcm7KQNMEWEBBcZvBV/yBQAuyYkDK9pjBA6ezQB4g
PEBP1aXBwMKDQEzRqkBAtsfBUsexQEyFhUAhUonBMaLTQNfg+kDbiMbBUZoyQT/eM79676XB6Gaq
QGfyckAkkJTB9gyGQKnSRUCNx6LBA9c1QNUtcEAZ7ZPBP8rwQCBGWkA7XZnBGD7ZQHEuzkD6HsnB
IQaLQHDeor8ksbPBI3IlQdgee8AE7aDBdjHSQESwEcDj+q/BFOYAQf4mQsDiv6TBJwh6QDiZjT/h
OK/BV4oAQZucg0BhYqvB/BYIQVSItUBqVLrBaVz/QPp3xD9TjaTBjnZ9QJ/ebUDYRrbBG7xEQcl4
GcAZyKHBYEsdQf2LVz8yAqrBx0ZkQDQzx0Ct8MTBR/GRQGllsUCtmM/B0FFbQLyJj0BYWMjBSEST
QD/5jkCmn4XB+0G/QMwlVEA29oTBN1XIQNuCoEDa+ojB4YDbQGBDB0HnkM3BNTGyQLVSAEFeMsTB
1+3oQPHAAUE63r/BsuNaQK0UOEDXmKfBSIb+P7u6Y0DDzZfBRDI0QF8qg0BobIzB9XDBQEeso74T
CbbBIEYAQepICcD4jInB6bDNQK3Qm79X8K3BxiT1QLLQnb+DlZHBdFO5QOG0gz+ijbPBZW7nQDsw
jUC817DBzlTwQCfAqED3brnBK4bIQNFaEz82yqDB91mdQENHh0Dt1LbBcAT1QDUDYMApsIrBqwzU
QG3qRMA8NJvB1G7RQKGKRb9/PqPBYl/eQCCy2b/Am5rB3729QPn6vz8s5ajBq3W9QHp4ekCqOq/B
EZSmQEiioUDprb/BJfPPQLJ+s0CoysDBxW/KQBZTWkCappvBEOaBQPM8Y0CaGZnBPYazQFlOPUCa
5qXBGHKDQIrsq0BMrMfBqcGxQFdJhkCffInB0JrTQPJG+0BQssbBzj/fQHlcfMDgXZPBf16qQPYe
dUAlwJTBFQKGQNf4QkCSxaLB7Kg1QIpxcUCxFJTBOcTwQCFDVkBekZnBGkzZQKB/zkC0LMnB00C+
QF2MKr8CLr7BqPoIQU4O6L99k4LBaUHUQIDyD8Ap5K/ByqD9QMgvQr6P4pDBgaqvQNsD2z8xzbnB
N2EAQY4ThEB6bKvBUQ8IQc6/tUA8ZrrB1vfJQE0WaD/VkpjBi+l6QF0sdUDk1LXBeb39QGV4hsC5
foTBLczCQMR8XMAbFqLBEmFkQKjKyEBrE8XBbLSRQIiMsUBHmM/BkP5ZQCvgkEDsI8jBAUSTQAO9
j0BTx4XBKSO/QBddVUDbK4XBS2XIQAAyoUAFGYnBwqnbQBBXB0HRwc3BERmyQMCOAEHjbcTBhbbo
QOISAkE6A8DBThdbQE6xMEA4ZafBGjD+PyDmYkBt2JfBKgg0QCIahUDktIzBzF7BQIfVo77uCbbB
cOrgQGd/esB1vJLBH6DNQKTzm7/68q3BJTHUQKXFRMDzJpvBpUK5QCWhgz+WjLPBnW3nQFUsjUCa
1rDBzFLwQAO7qEA5brnBnYrIQAzsEj+UyqDBHlmdQG9Bh0Bz07bBnn/3QP6EV8C5AIrBWyH1QILJ
nL+IkZHBwlvRQEAhRr8wQKPB6FHeQBja2b+om5rB/7q9QPbXvz9D5KjBhnW9QA5tekBTOa/BNZKm
QCuboUDQrL/B+fDPQNx3s0AOysDBHnHKQDxBWkBWpZvB0+eBQBo3Y0AtGJnBwYazQDc/PUAk5aXB
YG2DQNblq0BcqsfBEsexQDxKhkAGfInB/pfTQGJA+0CbssbBGJwAQdokA8BaiInBUWGqQC0bdUBF
v5TBcgKGQDrsQkDVw6LB9a01QHxwcUA+E5TB2MXwQCo0VkCGkJnB8kjZQP53zkB2LMnBbSy+QIlw
Kr9SL77B0HvZQGL9nsA88pLBpDPUQBT/D8DA6K/BpvHCQPVBXsB77aHBuY+vQEr42j+8yrnBCGEA
QQsShEA3a6vBKQ4IQS27tUCvZbrBOhTKQKmkZz9xk5jBmed6QFMidUAF07XBrqIAQV1/gMCPiYPB
2w/9QAepM75XFpHBclpkQDvEyEAWEcXBw6yRQIqFsUCvls/B/vNZQMnZkEBuIcjBGUuTQLjDj0DK
xoXBySS/QN5dVUC6KoXBvW7IQKgvoUAbGYnBOabbQAJTB0Ftws3BgxayQMOLAEEIbsTBdbToQEoQ
AkHIA8DB1BZbQLmhMEAZY6fBYzj+P4rjYkCv1pfB4Q40QB8chUC0s4zBsF7WQLDnV76nf7XB9GOk
QNlBhcAMR5bBP+HOQHSNmr8Sy63BrcSrQAKzTcBhVJ7BswXOQNSikT9yGLPBc0CdQPH9hUAx5bbB
RwOmQDTXoEBMnb/BnZm2QHxd/T7QNaHB+2rmQK4Pj0Crj7DBonKoQAokcsAed4vBpm+6QL2Qy7/z
UJDBK/m+QHY0XL9dkaPBAQe3QOUU879bW5vBsgW+QJ+QwD+G3qjBg/68QGNje0DBHK/BKU/vQNlx
qkDcN7nBawzPQBm4s0AB1sDBp2nKQFf/V0AKkpvBTuuBQHvfY0B/HZnBNJmzQC5dPUDg4qXBPPsN
QdQ6vUCdYLrBys2xQKeGhkBKg4nBw423QEFh2EA36dDBXUOzQFJHIcCpp4jBDneqQFLudED6wJTB
N/6FQH2ZQ0CTyKLBrbM1QGZmckBDHJTBxKbwQHBBUkCOd5nB2CrZQNfezkBcScnB/5HiQGWj9r5Y
Sb3BF7GbQEmrpcCSV5jBfUrVQOJ8D8CHr6/Bj+CoQMMEX8CmqabBeM3TQCIL8z+zDbnBoAR8QAwX
b0AvH7bBnFWNQPA1p0Acc8XBtFKqQJhQQz95bJnB+IL/QPMzh0Bg9KrBa8yiQPWGkMCDR4XBr/zC
QAkXFr9o9Y3B+fQXQdyAp0DxLb/BLPYMQT2D3EAkYb7BSy0VQfhFwUALabLB6W+TQF7ZkEAZ44XB
Amu+QEOiVUCWGIXB7wzJQGLroEBnKInB1PnDQHMN7kBmHNfB94SsQMmAukB8qNTBMKOcQBnM50BR
wMzBvQdbQKKnMUAqbKfBmT3+PzIYZEDA4pfB/hY0QJOThUBYvIzBTwroQHBeN76zerLB1qmOQDL1
hsCVLZrBviLQQEexmr9msK3BtNenQB0eT8DZKJ/BiRDfQDA8lT8DELDBUSyeQDHNhEDdQLfBODWn
QL43oEAg4r/B4IGmQFXt5z706aPB9IbmQNapj0Dbb7DB7xdIQBuTesDLXpfB4kVVQA+o3r9EJJ7B
OSSvQGPSZb/bWqbBObqVQHoW/L9GMqHBzoi9QO7Gvz+J4ajBF2S9QF5VekB+Qa/BVAzwQHEyqkCt
NLnByNrPQJpus0DO0MDBr0jKQCXDVkA/j5vBFNeBQGc1ZEC5H5nB7oKzQFFbPUDI6aXB+CkOQcj6
vUDEGLrBpMuxQK/rhUCVe4nBtNfNQGWV+kCiOsfBkZIlQHKwLMCpXJnB/W2qQFEfdEBDvJTBttaF
QHM2R0Bg8qLBwZQ1QG5OcUDdDJTBwoDwQJKiUEAsdJnBsCDYQGpLzkDrS8nBn64AQejI176hB7jB
+MybQIM4psD3gpjBK/zWQA1SD8Bdna/BrIjIQPihXMBQZaHB3tHxQLi7+T+IsrPBF4p+QDT1akC9
t7bBkOqOQDGUpkDV0cXBZ+aNQMwWMT/gJ57B0uX+QDtLiUB6harBJ3AhQHuAlcDCipPB7PI4QNfo
Rb/qq5/Bs6AYQV+qqECWwL7BE/0MQXYp3UARI77BTOcUQZhxwkBiC7LBD3+TQJB4kEDQ3IXBayG+
QEMYVEDOFIXBKkbJQOoZoEAEGYnBfE/VQHHyBkGHWM7BoZCrQMJ3/UC1XMXBHNDgQGQQA0G6ZsDB
/JBaQOCVOUARyafBfu39P+x5ZEBQ5pfBPwc0QD3Hg0BCjYzB6gXoQGTQN77XebLBaOInQF2RMsAu
P5nBmBbQQLOtmr/Wr63B1mpVQOTe379MKp7B5Q7fQHk1lT9GELDBtTKeQN7PhEDdQLfBSj2nQDg7
oEDV4b/BwH2mQJ5h6D7d6aPBmIzmQOipj0Aib7DBHPJQQEzQgMAEepfBmxOoQHdKT8DpM5/B3w+v
QJ+XZb88XabBUa2VQEkl/L95N6HBeIi9QMXRvz+/4ajBRWm9QDlYekBEQa/B6BPwQAgzqkCxM7nB
UuPPQHVxs0Dwz8DBaErKQCPAVkDijpvBStiBQH8wZEC5H5nB5IWzQNtfPUDO6aXBzC0OQfn7vUCG
FrrBcsqxQDPhhUCYeonBrOPNQG2Z+kDWOMfBfKiRQHVsh8AjbprBqm6qQNIVdEC1u5TBKtmFQEtA
R0D98qLBp5U1QItAcUDbDJTB+oHwQEiaUECGc5nBeyrYQJVPzkCsSsnB8K0AQahM2L6ABbjBGkHM
P/djKcAz2JbBqvDWQKBTD8Damq/B8UU3QO4xS7/emJ/B/NDxQAOr+T+hs7PBT5Z+QED7akAhuLbB
rvOOQMGYpkC80cXBtuuNQA1uMT+TJZ7BdOr+QO5JiUCWhKrBlustQBhwmsAYrZPBVtnIQLDYWsDN
iKHBbqUYQeGsqEA2vr7BdgENQZor3UBoIL7BtukUQfhwwkDJCLLBS32TQGFskEDQ24XBWx++QL7+
U0CRFIXBA0XJQCIPoED0FonBZVzVQAD1BkF8Vs7BvJyrQA99/UDgWsXBn9zgQEIRA0HIZMDBPJda
QL6sOUB3yqfBp/H9P7JwZEDP5pfB5gU0QLy6g0C+jIzBZffdQGDiBz0zJbbBNFOuQE/3JMCOXozB
PejPQDr5gr+dqK/BwC+9QELs0L+BsJPBdojWQBB7rj9M9bLBGwWcQKcuh0BBgbbBT0alQDLjn0A7
jr/B9aWzQFAYFT/jyqLBx5nkQPl2kkB06q/BtiCTQM3UZsD0BpDBKViVQFBIM8ByoaHBkQy8QI1a
Or9L2qXBCWSwQHKX4L/QbJ7Bfaa/QGLI0T9SW6nBtGG7QIEIgUC1gq7Ba0DuQPu+qkBEB7nBv5PO
QEb4sUBv6sDBW/nJQA0DWEDPNJvB1oiBQHj6Y0Ab45jBr22zQL0VQkCPpaXBMcQNQdglu0C1hrrB
vZKwQMzQg0DiCYnBdmS3QGh42EDUqdDBhSGHQIkUbcC8cJrBRuepQHUgdEAGaJTBntmFQJMRREBa
iaLBn+Y0QKufckBe85PBLIbvQCbYSkAA3ZjBLsjZQCb/yUDi0snBNnDuQEYIMb5Oj73BsXq3QIJx
IcCzDITBDUbUQBIRA8AVKbLB5/TRQDkIVL/kLJHBYTziQFdjC0Du0LfBe5p5QIyMcUBoobXB6+CM
QM41pUBph8XB5LyjQPmiRz92SZvB2+v8QCUSjUBh7anBsYCHQJPWisC7YIrBEdiLQPGYOMBD6anB
wkwXQRsFo0DYzr7BJWoNQRX42EC8Mr/BJgIVQRJdwUBeqLLBWTCSQF1NjkCdc4XBCA+8QAT6TUBs
4oTBXHvIQEN2nUDDQojB67TEQDv/6kBhXdfBRt+lQFeivEBTzNPBsGuhQPLJ7EDGB8zBEF1bQFbu
L0DeIqfB1+38P3OmZEAgx5fB8v4yQJmThUC/kIzBsDquQHTX7r7tVbTBKX8NQRhgYMBtxJfBpcfL
QCfXnb8Jc67BELb8QLZwNMAu/J3Br7imQAVHYT+PmbHBtgToQIxri0Bu+LDBNuzwQNBup0CDebnB
j7TZQPxgLz8a+KLBPcudQEFphkCo2rbB46IeQUC3MsAMJ5PBaGcSQYauR78EiZrBSO3hQIF0J79x
vqXBPbcAQSLrtr8Uap/Bw6G8QIDEvD/94qjB/u29QDOqd0CqTK/BOfymQJVHoUBHnr/BpXDQQOby
skBzusDBmnTKQM3oWUC1iJvBMe2BQPncYUAS+5jB56OzQBQWPEC3z6XBDrGDQA50rEDjfsfBz72x
QMo4hUBiUYnB8YfUQDEN+0BVacbB39wgQSySur/jk5TBwVOqQGHqckDzk5TBCBKGQGRGQ0DhuqLB
wLY1QJvwb0AW95PBM/TwQKHpXECDm5nBL8/ZQL5ZzkAwCcnBRUSdQBlpab+a97rBkAgMQelDksBX
h5bBQIjRQCrmEMDblbDBR0XiQKA3VsDHm6HB3xuQQN5Guz/BLLbBX7sAQd+qgUAPqKvBTWcIQWQu
tECJc7rBzPPpQGkjjz8nLZzBx8F7QCJ3c0BU4rXBMkEqQUGxVMDrXo7BiF8UQQutkT7+m5vB94ll
QERGyUDru8TB6sCRQPyHskAna8/B0PxZQDWjkUCGCsjBJiKTQPDgjUCajIXBCeq/QLbMU0BZDIXB
5bnHQP2roEA78ojBg5bcQINeB0FAbM3Bfx+zQIqFAEE5FMTBotvpQPa1AUEHu7/BJyBbQJv4MkD+
c6fB7Ub+P8idYkAyzJfB6xI0QP2xg0A/hozB

>  <OMEGA_E>  (10) 
5KArP8iyLD/0tCw/kDctP1w4LT+4rCU/dLQoPzS2KD/adCo/sKArPw==

>  <OMEGA_NBR>  (10) 
     40875

$$$$
50157501
     RDKit          3D

 62 66  0  0  1  0  0  0  0  0999 V2000
    5.1384   -0.6413  -22.0769 C   0  0  0  0  0  0  0  0  0  0  0  0
   11.1791   -0.7873  -20.7419 C   0  0  0  0  0  0  0  0  0  0  0  0
    6.4023   -1.2071  -21.8295 C   0  0  0  0  0  0  0  0  0  0  0  0
    9.9382   -0.1976  -21.0257 C   0  0  0  0  0  0  0  0  0  0  0  0
    4.8853    0.7008  -21.7376 C   0  0  0  0  0  0  0  0  0  0  0  0
    4.9244    4.1991  -22.8446 C   0  0  0  0  0  0  0  0  0  0  0  0
    5.2093    5.0461  -23.9210 C   0  0  0  0  0  0  0  0  0  0  0  0
    7.1803    0.9309  -20.9573 C   0  0  0  0  0  0  0  0  0  0  0  0
    7.2170    4.4198  -22.0846 C   0  0  0  0  0  0  0  0  0  0  0  0
   11.2354   -2.1630  -20.4417 C   0  0  0  0  0  0  0  0  0  0  0  0
    8.9128   -2.3770  -20.6923 C   0  0  0  0  0  0  0  0  0  0  0  0
    7.4371   -0.4198  -21.2732 C   0  0  0  0  0  0  0  0  0  0  0  0
    8.7754   -1.0016  -21.0019 C   0  0  0  0  0  0  0  0  0  0  0  0
    5.8947    1.4911  -21.1319 C   0  0  0  0  0  0  0  0  0  0  0  0
    5.9200    3.8942  -21.8970 C   0  0  0  0  0  0  0  0  0  0  0  0
    7.5126    5.3618  -23.1063 C   0  0  0  0  0  0  0  0  0  0  0  0
    6.4955    5.6298  -24.0773 C   0  0  0  0  0  0  0  0  0  0  0  0
    6.3194    3.3689  -19.4177 C   0  0  0  0  0  0  0  0  0  0  0  0
    4.0553    3.5328  -19.1112 C   0  0  0  0  0  0  0  0  0  0  0  0
    9.1785    7.2968  -21.2138 C   0  0  0  0  0  0  0  0  0  0  0  0
    8.8700    8.2488  -22.3849 C   0  0  0  0  0  0  0  0  0  0  0  0
    9.7285    6.0224  -21.8745 C   0  0  0  0  0  0  0  0  0  0  0  0
    9.1058    7.4227  -23.6604 C   0  0  0  0  0  0  0  0  0  0  0  0
    8.9727    5.9277  -23.2316 C   0  0  0  0  0  0  0  0  0  0  0  0
    5.6088    2.9477  -20.7240 C   0  0  2  0  0  0  0  0  0  0  0  0
    5.5452    4.1434  -17.1469 C   0  0  0  0  0  0  0  0  0  0  0  0
    5.7054    6.8319  -26.0406 C   0  0  0  0  0  0  0  0  0  0  0  0
   10.1188   -2.9297  -20.4209 N   0  0  0  0  0  0  0  0  0  0  0  0
    5.3172    3.7822  -18.5566 N   0  0  0  0  0  0  0  0  0  0  0  0
    4.1841    3.0828  -20.3382 N   0  0  0  0  0  0  0  0  0  0  0  0
    2.8331    3.7430  -18.4848 N   0  0  0  0  0  0  0  0  0  0  0  0
    7.5172    3.4016  -19.1522 O   0  0  0  0  0  0  0  0  0  0  0  0
    6.7976    6.3943  -25.1962 O   0  0  0  0  0  0  0  0  0  0  0  0
    4.3602   -1.2385  -22.5286 H   0  0  0  0  0  0  0  0  0  0  0  0
   12.0812   -0.1935  -20.7534 H   0  0  0  0  0  0  0  0  0  0  0  0
    6.5828   -2.2455  -22.0649 H   0  0  0  0  0  0  0  0  0  0  0  0
    9.8720    0.8549  -21.2589 H   0  0  0  0  0  0  0  0  0  0  0  0
    3.9159    1.1316  -21.9400 H   0  0  0  0  0  0  0  0  0  0  0  0
    3.9358    3.7770  -22.7400 H   0  0  0  0  0  0  0  0  0  0  0  0
    4.4380    5.2602  -24.6460 H   0  0  0  0  0  0  0  0  0  0  0  0
    7.9803    1.5478  -20.5753 H   0  0  0  0  0  0  0  0  0  0  0  0
    8.0114    4.0948  -21.4291 H   0  0  0  0  0  0  0  0  0  0  0  0
   12.1908   -2.6165  -20.2232 H   0  0  0  0  0  0  0  0  0  0  0  0
    8.0320   -3.0016  -20.6722 H   0  0  0  0  0  0  0  0  0  0  0  0
    9.9290    7.7395  -20.5425 H   0  0  0  0  0  0  0  0  0  0  0  0
    8.2637    7.0739  -20.6450 H   0  0  0  0  0  0  0  0  0  0  0  0
    7.8259    8.5917  -22.3367 H   0  0  0  0  0  0  0  0  0  0  0  0
    9.5430    9.1186  -22.3606 H   0  0  0  0  0  0  0  0  0  0  0  0
   10.8129    6.1069  -22.0388 H   0  0  0  0  0  0  0  0  0  0  0  0
    9.5197    5.1404  -21.2512 H   0  0  0  0  0  0  0  0  0  0  0  0
    8.3521    7.6710  -24.4221 H   0  0  0  0  0  0  0  0  0  0  0  0
   10.1111    7.6175  -24.0622 H   0  0  0  0  0  0  0  0  0  0  0  0
    9.5468    5.2970  -23.9263 H   0  0  0  0  0  0  0  0  0  0  0  0
    4.5912    4.4357  -16.6838 H   0  0  0  0  0  0  0  0  0  0  0  0
    5.9636    3.2792  -16.6101 H   0  0  0  0  0  0  0  0  0  0  0  0
    6.2515    4.9850  -17.0938 H   0  0  0  0  0  0  0  0  0  0  0  0
    6.1033    7.4227  -26.8788 H   0  0  0  0  0  0  0  0  0  0  0  0
    5.1704    5.9541  -26.4322 H   0  0  0  0  0  0  0  0  0  0  0  0
    5.0124    7.4512  -25.4521 H   0  0  0  0  0  0  0  0  0  0  0  0
    3.4159    2.8590  -20.9380 H   0  0  0  0  0  0  0  0  0  0  0  0
    1.9816    3.5491  -18.9720 H   0  0  0  0  0  0  0  0  0  0  0  0
    2.8049    4.0882  -17.5467 H   0  0  0  0  0  0  0  0  0  0  0  0
  1  3  2  0
  1  5  1  0
  2  4  2  0
  2 10  1  0
  3 12  1  0
  4 13  1  0
  5 14  2  0
  6  7  2  0
  6 15  1  0
  7 17  1  0
  8 12  2  0
  8 14  1  0
  9 15  2  0
  9 16  1  0
 10 28  2  0
 11 13  2  0
 11 28  1  0
 12 13  1  0
 25 14  1  6
 15 25  1  0
 16 17  2  0
 16 24  1  0
 17 33  1  0
 18 25  1  0
 18 29  1  0
 18 32  2  0
 19 29  1  0
 19 30  2  0
 19 31  1  0
 20 21  1  0
 20 22  1  0
 21 23  1  0
 22 24  1  0
 23 24  1  0
 25 30  1  0
 26 29  1  0
 27 33  1  0
  1 34  1  0
  2 35  1  0
  3 36  1  0
  4 37  1  0
  5 38  1  0
  6 39  1  0
  7 40  1  0
  8 41  1  0
  9 42  1  0
 10 43  1  0
 11 44  1  0
 20 45  1  0
 20 46  1  0
 21 47  1  0
 21 48  1  0
 22 49  1  0
 22 50  1  0
 23 51  1  0
 23 52  1  0
 24 53  1  0
 26 54  1  0
 26 55  1  0
 26 56  1  0
 27 57  1  0
 27 58  1  0
 27 59  1  0
 30 60  1  0
 31 61  1  0
 31 62  1  0
M  CHG  1  30   1
M  END
>  <OMEGA_C>  (11) 
EW6kQCIpJL+NnbDBpd0yQbKJSb+C76XBbd/MQKqBmr+9oq7BrwIfQU9QSr64NKjBkFScQERmMz+v
5q3B9ZSdQPJehkC3wbbBxLKmQNV5oUAnXr/BusTlQDBRbj+hqKfBkPHmQCFvjUAyrbDBDcQzQTFu
CsCtiKPBA5sOQQkgGMDbiaXB/vztQAHv1r6PL6rBJmgMQQU0gL/yA6jBaaG8QCHcvj8oDqnBQnC9
QNs5eUAoLa/B52bwQAqUq0Cu2bjBQdvPQKMntEA6nsDBxDjKQGWbV0BuV5vBL8WBQOAYYkDQ45jB
+NoSQSR/6UD2tanBo+sNQTb7A0FaFLPB36cbQVm3wEAL/67BhLERQYiG7UCCSL3BEpAPQeSvvUBm
2rnBbnuzQHimPEC4yqXBgnKxQLuWhEDOLInBd5K2QPGe2kAnU9DBwuYhQc6AO8DwXaPBWyaqQEkP
ckDXc5TB7OOFQIZMRUCWtKLB7VA1QCWNb0DK4JPBl4zwQIu0WUCgN5nBsYXZQBaezEDFkcnBbYaL
QI2Gnr+ROrTBlUxBQa0sRr4FB6bBp6bSQMu2D8DahLDByfMdQTfZWj9KEqrBYJ16QBzYkD8Gha/B
teR7QL66cUCY67XBdgSOQIVTqEAQK8XBTl7/QPgcxj9NmqTBmC4AQVcIg0C2bqvBtQ1DQRZ1J8Ao
yaHBLoMAQdwZQMCoYKXBIt0eQfOp90ANV6TBJjgEQXpd4kABKaXB/236QGl3CUGXsbLBP7AYQbzl
EUFw4rLBfAEtQZ1rw0B0T7DBqFAYQWZ+pEBrAqrBAqIFQbx49UBqYMPBI8chQZ/C80Bsf8DB0b8Y
QWaBqUAfab/BduuSQGrxjUBgeIXB9tW+QGPeUUCI4YTBegzIQE+Fn0AYwIjBDE7DQMmG7UDZB9fB
HXSlQEqIvkAnddPB6mWgQNRv7kDYncvBK55aQJ/5NkAXgafBqaT9P88jY0CbxpfBC4MzQK3SgkCS
X4zBOFikQJB7JL+DnrDBtzUjQeVIOMD0aqPBPsPMQILgmr84pK7BkLAOQYYDGMCwjaXBmUqcQOcT
Mz/p5a3BQqCdQLhPhkDCwLbBg7+mQE1soUDFXL/BlL7lQA9MbT/aqKfB9PvmQJtejUBlq7DBJ/A0
QQ6SAMB1x6PBdPgeQQqeRL43NqjBl+XtQM1e2b7ELarBDl8MQc6wgL9qA6jBgJ+8QKqMvj+1DanB
dnq9QDoYeUD8K6/BbXPwQKGDq0C917jBaOjPQM4ZtEBYnMDBVUPKQE5qV0CAVpvB2NCBQFgJYkDB
4pjBTOESQcBn6UARs6nB5PINQfvwA0EDEbPBq64bQXWhwECz/K7BhLkRQYx07UCTRb3B7pYPQUCd
vUAn2LnBZYOzQKuCPEDOyaXBHYKxQHWLhEBpLInB7KG2QJKT2kAfUdDB9aMyQSTzMb95IqbBzzOq
QG7zcUAec5TBkeyFQPU2RUBOs6LBsmo1QByOb0DJ35PBeJfwQItoWUCrNpnB6pPZQDKSzECLj8nB
dmuLQGeInr+SPLTBUGUlQQ4ke8AxhKHBeoLSQMPjD8A1ibDBaOUAQdqaQcBuUaXB3416QIjOkD+w
gq/B/Pp7QBmccUAd67XB8BGOQJZHqEDCKcXBJWH/QPaBxT/FnKTBJTMAQfX3gkCBbKvB+7ZEQfuH
GcCuI6LB8mIdQV2lWz+NEqrB9uIeQeKQ90CaU6TBCD4EQclE4kCYJqXBkHz6QFBtCUForrLBpLcY
QVvbEUFj3rLBTAgtQWdWw0D7TLDBfFcYQRNnpECUAKrByqoFQfpo9UCwXcPBlM8hQXGw80D1e8DB
PcYYQQ1vqUAfZ7/BHv2SQOTujUBPeIXBwN6+QNzEUUBp4ITBfCLIQM50n0BMwIjBZl7DQOJ87UB0
BdfBqISlQDB9vkCkc9PBJXSgQDBj7kDXm8vBS6xaQFPoNkCAf6fBftP9P80sY0B9xZfBBaEzQBPV
gkC6XozBi5jWQECdK74Py7XB3eexQFuxKcCLdonB7QDPQKbDlr90NK7BlBa6QBbmz7/305DBpjLO
QCyrlj++P7PBp/WcQD/ch0C/o7bBzT2mQPhOokBPW7/B/4m2QD2WAD92daHBgg7mQJsFkEAfZ7DB
MbamQDWae8CuRI3B9I2rQPS5TcCTF5/Bif++QHEtWb+q86PBl+S2QMCi87974ZvBAwa+QNI8wz9F
AKnBG6q8QKHDfUCI967BgbnvQKQ0rUC8v7jBbWnPQNrwtED9n8DBcUTKQBHAV0DleZvBjciBQGtZ
Y0AdB5nByY4SQVzE6kBwpKnBFXwNQV2uBEG597LBPHobQQBEwkBiAa/BehcRQScZ70CLN73B3DIP
QdE9v0C3zrnBn3izQAJTPkAV3KXBvZmxQGdphUCDV4nBoXi2QL502kDffNDB+bWjQKExhsDE35fB
VE2qQLn5c0BGoJTBqeKFQFLlQ0DHvKLBK2M1QG5ycUCrBJTBPXXwQFt/UUB8VZnBgFXZQAWXzEBe
sMnBwuniQK6F2b5emb3BmSi0QDitHcAp+YDBtmnVQJthDcDSNbDBgLHCQEa6Ir/mF47BFhPUQAdp
+T9XHbnBHbl6QMeOdECyyrXBjLONQFywqEA/OsXBSSSqQBS9QT+zp5nBUjT/QE2ZhkDu9qrBtGCg
QBYWl8BgmIfBwRmpQN4aXMBShafBYYkeQYn5+EAEQ6TBEPcDQaFR40CwFqXBHJP5QAYrCkGhgbLB
hUIYQa6XEkGqybLBEsosQeBWxUCFZLDBeF0YQU3ipUDFCarBT9sEQTX19kDaOsPBUBMhQUyT9UCW
hsDBcE8YQRQxq0DhbL/BVTqTQK+Qj0B7sIXB0Cm+QMjjUkC3BIXB1N/IQMzBn0BR44jBqlbDQN6z
7EB9StfB8wKlQLlSvkCBedPBI5GgQGTf7kCa3MvBTNpaQB0bMkBXZKfBIbL9P0l2Y0Be0pfBfrEz
QD/JhECGnIzBK5TWQEK/Kr5Qz7XB0AikQOOrhcC3GJfB2v7OQGnDlr+YOq7BJJirQKifTcDXB5/B
jifOQHy5lj9aQrPB0+ucQO/bh0BApLbBijOmQGVOokD1W7/BKYS2QGY7AD+9eKHBWwTmQG8HkECJ
Z7DB+OynQNI8dMCyPIzBFBm6QLnFzr/f0JDBY/C+QKeHWb9I+qPBMNu2QNmu878r5ZvB6fy9QPIs
wz87AqnBb6C8QHjDfUDx967BGK/vQKY1rUB5wLjBFF/PQHjwtEDKoMDBPTzKQMazV0CjepvBusCB
QLZaY0BBCJnBO4sSQSzG6kD3panB/XgNQWGvBEEl+bLBCnYbQVlFwkAEA6/BwRERQTYa70AOOb3B
kC0PQew+v0D+z7nBGXCzQA5LPkDT3KXBHJKxQDNnhUBxWInBk262QP1v2kBnftDBEsKyQKy+I8Aa
RYnBuEWqQJLyc0AooZTBV9qFQAzcQ0BmvaLBulM1QIKFcUCGBpTBd23wQIJ1UUCJVpnB6ErZQDGV
zEB1scnBQ+niQOWc2L69nb3BqVKbQHDypcCLSZnBRXPVQBBbDcDuPLDBt9aoQAr6XcCjZafBZgHU
QEaH+T9RH7nBlaV6QPuNdEAky7XBCamNQFuvqEDbOsXBhSiqQBgzQT+ZqZnBFyr/QEydhkAW96rB
6SGiQL/rkcB/JIbB5KfCQLy6Hb9CVY7BFIYeQX76+ECLRKTBbPMDQTtU40AzGKXBJo75QL0tCkGQ
grLB20AYQZyXEkF+y7LBvsUsQexXxUCaZrDBr1kYQevjpUA+C6rBPtQEQU/29kCtO8PB3gwhQaOT
9UAPicDBmUkYQQ4yq0BZbr/B/jKTQHOQj0CasYXBpiC+QHzfUkBYBYXBadnIQJK+n0Bq5IjBykzD
QC2u7EAoTNfBbfqkQKJMvkDPetPBpIWgQL/a7kCX3svBlclaQCUKMkB9ZKfBw5H9P9iOY0Bf1JfB
/KIzQHDWhEC/nozBVYmuQAna3r6jrrTBxowgQQz6yb/CwJTBRvbLQI39mr+r1K7BP04SQV4cTb/x
y5rBpQCnQFZFaD/E1LHBwh+dQC35h0BdgrbBooqmQGjUokDBJb/BQKvZQKKPMD+SJqPB0zHnQDI7
jEA+1bDB9OgcQR6qPcA9zpPBZzX8QD7+NMBqfJ7B6fvhQEP9JL+ODabBhKYAQSU8t7+vw5/Bx7i8
QLF3vj+yB6nBM069QAZieUAUJq/BbM/wQBzZqkBF3rjBaSHQQBpntEAMhsDBp1PKQO5zWUDpdZvB
N8+BQDxbYUC76ZjBzj0TQZJV6ECfsqnBYIMOQU5cA0ELHLPBE84bQRUzv0Am6q7BrWQSQb0Z7EAx
Rr3BC+IPQU9bvECR1LnBdXazQCplPEA4yKXB152xQNRshEBqNInB+ji3QDTN2kA3R9DBbQEMQS4G
ZMDQnJjBiTSqQDocckBpfZTBPvCFQJOmQkDep6LBDHU1QNaZb0A06pPB59DwQCBWXEB0gpnBM/7Z
QKTRzEBud8nBhrGdQMDhXr/iX7vBuCMuQfBYj7+J35DBb7bRQMdMD8ClDLHBqccUQe9Whj4opZvB
L4WQQCe9vz9fYrbBQg16QCiud0Bce7XBr8WNQDZYqkBX38TBpb3pQClbjj/5SZzBl2UAQZZqgEAO
1qvBJtonQXr4Y8BBI4/BMnrhQCKDVMAeSqLB4VIfQeBT9kAHV6TBQo0EQWqr4UBmJaXBJab7QHPq
CEFlzLLBl1UZQfw7EUF25bLBWzItQbBWwUBtJ7DBmScYQSopo0DW6qnB1IoGQWpH9EBbc8PB3Jgi
QUXq8UDrYsDBLgUZQZ3ap0CeVb/BdwSTQMEEjUApbIXB9ri/QODcUUCR/YTBOKjHQObQn0CzxYjB
mSDEQFys7UAt+NbBACymQIe0vkD9bdPBivCgQFml7kAWnMvBvN9aQH62MUCKWKfBDdD9P6hRYkBI
wZfBLsQzQPqQg0BveozBIoSuQEC13r73rLTBXFMNQQ5GYcBxRZjBf+7LQM4Im7+9067BgH78QPiu
NMA1dJ7BiPymQGJIaD+V0bHB/RqdQC/2h0Brf7bBn4KmQFDRokANI7/BNq/ZQFJnMD8+JaPBMS3n
QLA+jEDL0rDBb3IeQcojNMB0j5PBgFASQe5mSr+nx5rB0u/hQMRVJb+8CqbBd6YAQVcut79jwJ/B
Vrm8QMJuvj/6BKnBX0u9QGpheUBOI6/BlMfwQCLcqkAv3LjB3xfQQONmtEDUg8DB0FTKQOJvWUAL
c5vBXNCBQK1dYUDV5pjBuDkTQd9h6EBosqnBO3wOQc9fA0GAHLPBK8obQWw9v0Dc6K7BRl8SQcod
7EDURb3Bs90PQVBgvEAX07nBgHezQIlhPEBIxaXBLJ+xQAJ2hEBBMonByCq3QCbI2kBPRdDB6LYg
QVUxvb/d25TBCjaqQBQjckDrepTBNPGFQFCgQkCJpKLBNXg1QMyeb0Az55PBE9LwQOBUXEDZf5nB
vPHZQCTRzECCdcnBDa2dQFinXr/6XrvBDNQLQaDDksDnIZfBW7DRQLJND8CeDbHBYxXiQFEMVsBm
JqLBnH2QQLHDvz/LXbbBrwV6QPSjd0AOeLXBR7yNQMpSqkBz3MTBhdDpQNVOjj8TS5zB+GMAQXJx
gECO06vBsQQqQcqeVsB3zo7BUlAUQVjpjD5dwJvBg08fQZVk9kDwV6TBW4oEQVu44UArJKXBBZb7
QDXrCEHwzLLBH0wZQVpBEUHI5rLBYS4tQSVhwUBgJrDBKiQYQZs1o0C66KnByYUGQblH9EB5c8PB
lpMiQRDv8UBMYsDBHwEZQWvep0C+U7/B9gWTQG4RjUBqaoXBtri/QHDyUUBs+oTB1arHQEPZn0Bf
xIjBKBDEQJan7UB+9tbBeiCmQEetvkDCa9PBluCgQMKe7kBMmsvBaeFaQJyoMUC8VKfBItX9P5ZR
YkDevZfBmMgzQOGWg0DDd4zB

>  <OMEGA_E>  (11) 
QsE+PyTCPj80BUA/9AZAP0wyPT/MND0/

>  <OMEGA_NBR>  (11) 
    137244

$$$$
50093271
     RDKit          3D

 53 58  0  0  0  0  0  0  0  0999 V2000
    5.3580   -4.4768  -19.2011 C   0  0  0  0  0  0  0  0  0  0  0  0
    6.8629    9.8666  -22.1112 C   0  0  0  0  0  0  0  0  0  0  0  0
    5.8481   -3.3974  -19.9427 C   0  0  0  0  0  0  0  0  0  0  0  0
    6.9267    8.5297  -22.5217 C   0  0  0  0  0  0  0  0  0  0  0  0
    6.2118   -1.2731  -21.9467 C   0  0  0  0  0  0  0  0  0  0  0  0
    7.3241    5.6872  -23.2022 C   0  0  0  0  0  0  0  0  0  0  0  0
    6.6191   -0.2009  -22.7379 C   0  0  0  0  0  0  0  0  0  0  0  0
    7.3120    4.3419  -23.5747 C   0  0  0  0  0  0  0  0  0  0  0  0
    5.4186    0.2785  -20.2412 C   0  0  0  0  0  0  0  0  0  0  0  0
    6.2760    5.1085  -21.0873 C   0  0  0  0  0  0  0  0  0  0  0  0
    4.2009   -4.3023  -18.4159 C   0  0  0  0  0  0  0  0  0  0  0  0
    6.6145   10.1627  -20.7569 C   0  0  0  0  0  0  0  0  0  0  0  0
    4.0159   -2.0580  -19.0605 C   0  0  0  0  0  0  0  0  0  0  0  0
    6.5195    7.8893  -20.2107 C   0  0  0  0  0  0  0  0  0  0  0  0
    5.6048   -1.0385  -20.6973 C   0  0  0  0  0  0  0  0  0  0  0  0
    6.7935    6.0860  -21.9543 C   0  0  0  0  0  0  0  0  0  0  0  0
    5.1601   -2.1699  -19.8840 C   0  0  0  0  0  0  0  0  0  0  0  0
    6.7535    7.5106  -21.5603 C   0  0  0  0  0  0  0  0  0  0  0  0
    5.8525    1.3619  -21.0236 C   0  0  0  0  0  0  0  0  0  0  0  0
    6.2940    3.7546  -21.4409 C   0  0  0  0  0  0  0  0  0  0  0  0
    6.4440    1.1143  -22.2921 C   0  0  0  0  0  0  0  0  0  0  0  0
    6.8083    3.3687  -22.7037 C   0  0  0  0  0  0  0  0  0  0  0  0
    6.4200    2.8620  -19.1149 C   0  0  0  0  0  0  0  0  0  0  0  0
    4.2264    3.4756  -18.9012 C   0  0  0  0  0  0  0  0  0  0  0  0
    5.7284    2.7579  -20.4667 C   0  0  0  0  0  0  0  0  0  0  0  0
    5.6265    3.4390  -16.7870 C   0  0  0  0  0  0  0  0  0  0  0  0
    3.5573   -3.1119  -18.3504 N   0  0  0  0  0  0  0  0  0  0  0  0
    6.4469    9.1851  -19.8374 N   0  0  0  0  0  0  0  0  0  0  0  0
    5.4134    3.1777  -18.2162 N   0  0  0  0  0  0  0  0  0  0  0  0
    4.3260    3.0895  -20.1553 N   0  0  0  0  0  0  0  0  0  0  0  0
    3.0992    4.0564  -18.3392 N   0  0  0  0  0  0  0  0  0  0  0  0
    7.6032    2.6549  -18.8690 O   0  0  0  0  0  0  0  0  0  0  0  0
    6.8787    2.0794  -23.1668 O   0  0  0  0  0  0  0  0  0  0  0  0
    5.8600   -5.4326  -19.2298 H   0  0  0  0  0  0  0  0  0  0  0  0
    7.0029   10.6636  -22.8264 H   0  0  0  0  0  0  0  0  0  0  0  0
    6.7363   -3.5028  -20.5480 H   0  0  0  0  0  0  0  0  0  0  0  0
    7.1056    8.2819  -23.5576 H   0  0  0  0  0  0  0  0  0  0  0  0
    6.3618   -2.2855  -22.2918 H   0  0  0  0  0  0  0  0  0  0  0  0
    7.7408    6.4264  -23.8703 H   0  0  0  0  0  0  0  0  0  0  0  0
    7.0724   -0.3857  -23.7006 H   0  0  0  0  0  0  0  0  0  0  0  0
    7.6938    4.0499  -24.5419 H   0  0  0  0  0  0  0  0  0  0  0  0
    4.9416    0.4575  -19.2889 H   0  0  0  0  0  0  0  0  0  0  0  0
    5.8592    5.4059  -20.1364 H   0  0  0  0  0  0  0  0  0  0  0  0
    3.8171   -5.1393  -17.8515 H   0  0  0  0  0  0  0  0  0  0  0  0
    6.5564   11.1951  -20.4451 H   0  0  0  0  0  0  0  0  0  0  0  0
    3.4988   -1.1120  -18.9980 H   0  0  0  0  0  0  0  0  0  0  0  0
    6.3964    7.1197  -19.4630 H   0  0  0  0  0  0  0  0  0  0  0  0
    4.6627    3.6642  -16.3071 H   0  0  0  0  0  0  0  0  0  0  0  0
    6.0726    2.5514  -16.3146 H   0  0  0  0  0  0  0  0  0  0  0  0
    6.3044    4.2972  -16.6683 H   0  0  0  0  0  0  0  0  0  0  0  0
    3.5644    3.0300  -20.8006 H   0  0  0  0  0  0  0  0  0  0  0  0
    2.2838    4.2084  -18.8977 H   0  0  0  0  0  0  0  0  0  0  0  0
    3.1020    4.3232  -17.3754 H   0  0  0  0  0  0  0  0  0  0  0  0
  1  3  2  0
  1 11  1  0
  2  4  2  0
  2 12  1  0
  3 17  1  0
  4 18  1  0
  5  7  2  0
  5 15  1  0
  6  8  1  0
  6 16  2  0
  7 21  1  0
  8 22  2  0
  9 15  2  0
  9 19  1  0
 10 16  1  0
 10 20  2  0
 11 27  2  0
 12 28  2  0
 13 17  2  0
 13 27  1  0
 14 18  2  0
 14 28  1  0
 15 17  1  0
 16 18  1  0
 19 21  2  0
 19 25  1  0
 20 22  1  0
 20 25  1  0
 21 33  1  0
 22 33  1  0
 23 25  1  0
 23 29  1  0
 23 32  2  0
 24 29  1  0
 24 30  2  0
 24 31  1  0
 25 30  1  0
 26 29  1  0
  1 34  1  0
  2 35  1  0
  3 36  1  0
  4 37  1  0
  5 38  1  0
  6 39  1  0
  7 40  1  0
  8 41  1  0
  9 42  1  0
 10 43  1  0
 11 44  1  0
 12 45  1  0
 13 46  1  0
 14 47  1  0
 26 48  1  0
 26 49  1  0
 26 50  1  0
 30 51  1  0
 31 52  1  0
 31 53  1  0
M  CHG  1  30   1
M  END
>  <OMEGA_C>  (12) 
eHSrQFpCj8Dim5nBC53bQJTdHUGq47DBACS7QIBuWcCRip/BqKfdQKZ5CEGDLLTBZMfGQDP2or/Z
kq/BP1/qQKP9tUACnrnBe8/TQGi8Tb5C57XBk/vpQH/wikARmbzBzmStQCycjj797aHB5NTIQON4
o0DQsqjBeW2GQBqsicCsU5PB9KnTQIaaIkETDqbBm4KAQP+2A8Due5jB9p/QQEd1/EB9r6HBWFqz
QAXuhL/+k6XBgmTZQFnAwkBloq/Bah+lQGbfCsB4Ep/BgRzYQKFW8ECLe6zBq0e7QDZRrj89MKjB
MWjJQP5LcEDuhqvBlzXOQAyijj9KVrLB5N3ZQPqYV0BCobXB7nDNQHgqN0Bn65jBxz6HQN5vXkCa
NZfBLU+3QC6BMEC9u6PBhQy0QLYYXECxS4bB4qpjQMooR8CxzZLB60zOQBT2EkEHs57BqDqtQN5f
S0DDupHBhm6KQNi6RUASPqHB2llGQBbOgUCetpLBGk3zQB7pKUCr85bBNR7cQDgUBUCKVbnBFYW7
QDjYrcC21pnBAhjgQAaeKkGLnLbBtI/XQKEtYMBhYqTBV2HjQNCCBEHzdbzBw5PLQGhFEsCJVbLB
RbT3QFylzUBL9r7BvFDiQOZ7xb7emr3B1zP2QG2YgUC4VcTBzCGeQBg66j6iT5rBv367QN78rEBL
F6HBVUt0QOd0pMDNz47BZs7RQDIfM0GSj6PBu+xfQI1Ujr/5+5fBtq/MQLjU40BRtJvBdzSVQHCC
akADdYLBlVLCQIdJI0BNhILBkr3JQFmCiUC4WIXBwh5kQNPrQUChZ6bB3SkSQAmrhkCILpfB5oZG
QLJXikDcAIvBlaSrQDgxj8AAlpnBu5rPQL6fFEGJjJ/BfkS7QBg9WcB6hJ/BOHnQQIB7/UDP9KHB
dOXGQFjtor+0ka/BidTqQGDTtUDwmrnBDAvUQNCUTb604rXBP1nqQOLNikB4kbzBTButQBgYjz6N
+qHBRVzIQOKvo0DlxajBYIiGQIK2icA9VJPB6ZfXQAqYI0EDuqfB4muAQJzeA8BygpjBZlTgQCpb
CEGAY7TBjkOzQC/ahL8smaXBIHzZQF7UwkAhrq/B5RmlQNjVCsAfFJ/BMtbYQKKQ8EB2nKzB5Be7
QMpwrj+1OajBKAnJQDuMcECUkqvBmVnOQJCpjj+KVLLBue3ZQKuaV0Brn7XBJVfNQAsdN0CW+5jB
rDWHQFlVXkBtNZfBlxG3QEeXMEABxqPBXtKzQPv1WED+RobB2ppjQGZgR8A81JLBAdbfQPhbHUGI
4bHBih6tQKdUSkC9wZHBIDSKQBuZRUAVPqHBVsxGQLgkgkBzsJLBazPzQLeNKUDgC5fBCITcQDsL
BUDkSrnBodG7QKG4rcAizJnBmuDIQHr1GUFFgZfBPMLXQP/SX8CKVqTBqtrKQBn25UCtyJvBJ8PL
QE9CEsAAUrLBHor4QNhZzUAe7b7BZLXiQOB8xb5hkb3BL772QDpdgUDOR8TBxJydQCTp6j7eY5rB
A4u6QARYrUAGO6HBMZl0QKCFpMCs0I7B0CDXQDR1NEF72KXBSoxfQODXjr8zBpjB95zmQKipA0Hd
jbzBcfWUQAr3ZkC3bILBxOvBQOZeH0AhpYLB0Z7JQAvBh0C3KIXBt3tjQA+lQUBaYKbBwqQSQPlQ
h0BTJJfBpU5HQJOnikBJ+orBfTllQKQUTcDa65LBXEPsQAEuHUEusK/BjiCAQGD+BMCMqJjB0p7q
QPDrB0EvMbPBwFfHQOT1o7+oe6/BygPvQE7QtEB0MrnBjQ3UQMDHUb7/0LXBcm/rQP47ikCKbbzB
JO+tQPDEiD5MzaHBgBvNQO4Mo0CVRKjByyOKQILojMBXv5PBNcnkQAjOIUH40qTB+e+6QEvzWsCs
kp/B2BnbQNoK+0Cs2aDBjpizQKp0hr9KhqXBeoHfQPnRwUCuFa/Bkt+kQMz8C8AbIJ/BSOrhQOwp
70DxsKvBurG7QOBqrT/tDKjBfyXLQBDOb0DPS6vBRNrNQI4Kjj+qSLLBSgvaQJ4PV0CBi7XBukvN
QORTNkCOq5jBaHSHQAh9YEDaV5fBwPK3QK5cMEDYmKPBS7eyQE4nXEBnL4bBeYatQHbYj8C99JnB
KV7cQI8oEkF8pp3BQ7GsQOanS0DKppHBrRqLQFT3RkCDVaHBFzJHQJ8AhECtEJPB6vfyQEq1KEBz
hZbBgdDZQKkOBUBSdbnB2PQsQKzwScA1643BXTPzQI/pKUEXRLXBIoddQOvAkr/FIpjBUe7vQFER
BEFbgrvBs6PMQF2yEsClNrLBNrj9QKj4y0DOc77BCcfiQMmsxb5Sf73BTiz2QOXogEBvTcTBwACf
QL+I4j4eI5rBrlrAQLXLrEC+naDBk1R/QEWpqMBzUI/BtMvlQHU7MkHYJ6LBBSXXQIpdYMDdhKTB
rLvUQFtk4kDuAZvBjbGTQFCla0BkgYLBvy3AQE3cIkDGVYLB+MzIQOkniUCqH4XBdh5mQLRzQ0Az
mKbB9AkUQLp6iUBXrJfBjKJGQD/GjEA1X4vBMYxlQH9dTsBzDpPBL8HWQIXcFEHKup/BDD6AQCjS
BcDRtZjBHQvXQEK6/UCZ56HBUFzHQAbqo7+wd6/BtGvvQDZPtEBnSrnBIvbTQKC4Ub6ozLXBKn/s
QF6TiUAOXbzBoO6tQDBsiD6IxKHBJqTMQDpYo0A4Z6jBE5eKQKpgjcAr45PBBoDeQPN1I0H8F6jB
lYy7QLC9WsC+kJ/BJuPlQByqB0G0fbTBN7GzQHN7hr9UgKXB9JXeQPrrwUCrXq/BfSqlQFAlDMCP
Hp/BFrreQBjg70DfgazB4567QJhxrT8SBajB4CXLQEnsb0ABTavBkMHNQIzajT+DQLLBEHLaQB+Q
VkCvfrXBFTzNQCmbNkDsqpjBJWSHQB3KYEDnVZfBBeG3QBuKMEA1laPBuqGyQK3iW0BbK4bB2Tiu
QOLuj8A1BJrBOOrlQPzEHEGHNrLBHaisQIEMTEBOppHBlgeLQN0fR0D/UaHBEA9HQDQ0hEBhEpPB
fNDyQPkVKEC6gpbBydHZQOu5BECtarnBlOksQIfXS8ASHY7B+KbQQJGQGkG/t5fBAm9dQOfPlL/R
KpjBgn7RQF3J5kDrl5vBiKzMQNmoEsB8M7LBbqj+QF8xy0Cyhr7BS5viQA8Axb7kfb3B0EP4QNOS
f0AbHMTBq/+eQAN+4T7qGZrBne2/QPddrUALxaDBRSKAQOtOqcCShY/BWITeQChmNEFNYqbBXPDX
QIGKX8CvdKTBPHvrQDeZAkHUobzBqaGTQGOja0DIfoLBhNq/QNw1IkA8W4LBS+bIQAPWiECYDYXB
GfRlQNOAQ0DLk6bBFu0TQHaniUCer5fB9HhGQLIJjUAOYovB

>  <OMEGA_E>  (12) 
HGdCP8KdQj8on0Q/pgBFPw==

>  <OMEGA_NBR>  (12) 
     33158

$$$$
50215543
     RDKit          3D

 43 46  0  0  1  0  0  0  0  0999 V2000
    7.3244   -0.2620  -22.2760 C   0  0  0  0  0  0  0  0  0  0  0  0
    6.6828   -1.2892  -21.5618 C   0  0  0  0  0  0  0  0  0  0  0  0
    6.9779    1.0826  -22.0463 C   0  0  0  0  0  0  0  0  0  0  0  0
    5.3636    0.3747  -20.3653 C   0  0  0  0  0  0  0  0  0  0  0  0
    5.6920   -3.2434  -19.5203 C   0  0  0  0  0  0  0  0  0  0  0  0
    3.6826   -1.8625  -19.3812 C   0  0  0  0  0  0  0  0  0  0  0  0
    3.7231   -4.0630  -18.3337 C   0  0  0  0  0  0  0  0  0  0  0  0
    5.6965   -0.9750  -20.5984 C   0  0  0  0  0  0  0  0  0  0  0  0
    5.0159   -2.0406  -19.8278 C   0  0  0  0  0  0  0  0  0  0  0  0
    5.9690    1.4141  -21.1067 C   0  0  0  0  0  0  0  0  0  0  0  0
    5.0476   -4.2491  -18.7772 C   0  0  0  0  0  0  0  0  0  0  0  0
    3.0414   -2.8683  -18.6361 C   0  0  0  0  0  0  0  0  0  0  0  0
    6.4919    3.4711  -19.7561 C   0  0  0  0  0  0  0  0  0  0  0  0
    4.3292    3.4445  -18.9821 C   0  0  0  0  0  0  0  0  0  0  0  0
    4.4607    3.6568  -23.1167 C   0  0  0  0  0  0  0  0  0  0  0  0
    4.7138    4.9450  -22.3099 C   0  0  0  0  0  0  0  0  0  0  0  0
    5.6362    3.7308  -22.1305 C   0  0  0  0  0  0  0  0  0  0  0  0
    5.5905    2.8783  -20.8253 C   0  0  1  0  0  0  0  0  0  0  0  0
    6.1141    4.3169  -17.4004 C   0  0  0  0  0  0  0  0  0  0  0  0
    5.6477    3.8511  -18.7176 N   0  0  0  0  0  0  0  0  0  0  0  0
    4.2475    2.9649  -20.2039 N   0  0  0  0  0  0  0  0  0  0  0  0
    3.2502    3.5504  -18.1113 N   0  0  0  0  0  0  0  0  0  0  0  0
    7.7086    3.6143  -19.8144 O   0  0  0  0  0  0  0  0  0  0  0  0
    5.8993   -5.7258  -18.4025 Cl  0  0  0  0  0  0  0  0  0  0  0  0
    1.3981   -2.6314  -18.0928 Cl  0  0  0  0  0  0  0  0  0  0  0  0
    8.0851   -0.5054  -23.0030 H   0  0  0  0  0  0  0  0  0  0  0  0
    6.9439   -2.3202  -21.7493 H   0  0  0  0  0  0  0  0  0  0  0  0
    7.4839    1.8672  -22.5893 H   0  0  0  0  0  0  0  0  0  0  0  0
    4.6336    0.6185  -19.6076 H   0  0  0  0  0  0  0  0  0  0  0  0
    6.7075   -3.3908  -19.8573 H   0  0  0  0  0  0  0  0  0  0  0  0
    3.1558   -0.9490  -19.6144 H   0  0  0  0  0  0  0  0  0  0  0  0
    3.2310   -4.8360  -17.7621 H   0  0  0  0  0  0  0  0  0  0  0  0
    3.5889    3.0263  -22.8877 H   0  0  0  0  0  0  0  0  0  0  0  0
    4.6514    3.6395  -24.2000 H   0  0  0  0  0  0  0  0  0  0  0  0
    5.0850    5.8478  -22.8170 H   0  0  0  0  0  0  0  0  0  0  0  0
    4.0226    5.2347  -21.5047 H   0  0  0  0  0  0  0  0  0  0  0  0
    6.6314    3.8230  -22.5899 H   0  0  0  0  0  0  0  0  0  0  0  0
    5.2468    4.5527  -16.7662 H   0  0  0  0  0  0  0  0  0  0  0  0
    6.7131    3.5272  -16.9234 H   0  0  0  0  0  0  0  0  0  0  0  0
    6.7309    5.2186  -17.5279 H   0  0  0  0  0  0  0  0  0  0  0  0
    3.3954    2.6953  -20.6526 H   0  0  0  0  0  0  0  0  0  0  0  0
    2.3415    3.2515  -18.4025 H   0  0  0  0  0  0  0  0  0  0  0  0
    3.3831    3.9254  -17.1938 H   0  0  0  0  0  0  0  0  0  0  0  0
  1  2  2  0
  1  3  1  0
  2  8  1  0
  3 10  2  0
  4  8  2  0
  4 10  1  0
  5  9  2  0
  5 11  1  0
  6  9  1  0
  6 12  2  0
  7 11  2  0
  7 12  1  0
  8  9  1  0
 10 18  1  0
 11 24  1  0
 12 25  1  0
 13 18  1  0
 13 20  1  0
 13 23  2  0
 14 20  1  0
 14 21  2  0
 14 22  1  0
 15 16  1  0
 15 17  1  0
 16 17  1  0
 18 17  1  6
 18 21  1  0
 19 20  1  0
  1 26  1  0
  2 27  1  0
  3 28  1  0
  4 29  1  0
  5 30  1  0
  6 31  1  0
  7 32  1  0
 15 33  1  0
 15 34  1  0
 16 35  1  0
 16 36  1  0
 17 37  1  0
 19 38  1  0
 19 39  1  0
 19 40  1  0
 21 41  1  0
 22 42  1  0
 22 43  1  0
M  CHG  1  21   1
M  END
>  <OMEGA_C>  (13) 
cmHqQNwehr5TNbLB5dnVQIcDpb9/fqzBWEvfQDiSij/TXrDBQaKrQI7cvz447KLBISW2QMCTT8Cp
KZzBLa9rQOFn7r+nDJvB30ZuQOADgsBhq5LBWUm2QHGZeb9zyaTB44GgQM+YAsBUn57BBAK/QA4A
tT+L2qjB54WhQHj4h8C9N5bB16VCQNuSN8DPFpXBtr3PQAUmXkB6DJ7B+YiKQE1zXEBB25fBHL6O
QHEJakAV77jBRdeWQGc9nkC5erLB5Fu0QBHFbkAyC7HBwOWyQD02OEA4mqbBW6bDQLsjikATNIvB
4bm0QAJ4dkCgvZXBeOuHQEvAPUCdoaHB8QNQQIM5Y0Dt45DBgqz2QDVQZ0Dkg57BNse8QB06t8BO
OJPBiPSyPw1pKMD6vZDBqFwBQWRiAb8TBrjBkjTeQK1+FMB+/q3BTnzvQKb/7j/PtrTBvUaUQA5V
Hj9U3JzBjqPWQNcCWcDV257BRPlJQMLxcr9O6pzB0chOQK/AmsDaGI7BSrFlQKyuQUAKGrfB8NeU
QNvsaECAmcHBL7iiQGkhu0ApibbB5LiAQFGCp0CzCazBuzTUQMmrdEAEuLTB9+WnQFmvkUAUIYbB
A9LWQJG9YUAsY4fB52PXQBz/pkAWOYzBA09ZQD1/LECPOKXB49oVQJYYUEBsOJPBDoRYQJQ5e0D4
jInB

>  <OMEGA_E>  (13) 
nNJkPw==

>  <OMEGA_NBR>  (13) 
     36143

$$$$
50215937
     RDKit          3D

 42 45  0  0  1  0  0  0  0  0999 V2000
    6.5547   -0.2759  -22.7241 C   0  0  0  0  0  0  0  0  0  0  0  0
    6.0675   -1.3170  -21.9304 C   0  0  0  0  0  0  0  0  0  0  0  0
    6.4826    1.0440  -22.2677 C   0  0  0  0  0  0  0  0  0  0  0  0
    5.3498    0.2954  -20.2403 C   0  0  0  0  0  0  0  0  0  0  0  0
    3.9420   -2.0829  -18.9860 C   0  0  0  0  0  0  0  0  0  0  0  0
    5.7870   -3.3989  -19.8685 C   0  0  0  0  0  0  0  0  0  0  0  0
    4.3211   -4.3980  -18.3435 C   0  0  0  0  0  0  0  0  0  0  0  0
    5.4880   -1.0458  -20.6733 C   0  0  0  0  0  0  0  0  0  0  0  0
    5.0687   -2.1773  -19.8241 C   0  0  0  0  0  0  0  0  0  0  0  0
    5.8600    1.3573  -21.0307 C   0  0  0  0  0  0  0  0  0  0  0  0
    3.5623   -3.2127  -18.2451 C   0  0  0  0  0  0  0  0  0  0  0  0
    6.4500    2.8649  -19.1320 C   0  0  0  0  0  0  0  0  0  0  0  0
    4.2469    3.4421  -18.9447 C   0  0  0  0  0  0  0  0  0  0  0  0
    5.9072    4.0570  -22.8803 C   0  0  0  0  0  0  0  0  0  0  0  0
    5.8907    5.1703  -21.8320 C   0  0  0  0  0  0  0  0  0  0  0  0
    6.5114    3.8066  -21.4823 C   0  0  0  0  0  0  0  0  0  0  0  0
    5.8057    2.8046  -20.5063 C   0  0  1  0  0  0  0  0  0  0  0  0
    5.5612    3.1983  -16.7888 C   0  0  0  0  0  0  0  0  0  0  0  0
    5.4118   -4.4736  -19.1402 N   0  0  0  0  0  0  0  0  0  0  0  0
    5.4103    3.0964  -18.2474 N   0  0  0  0  0  0  0  0  0  0  0  0
    4.4084    3.1988  -20.2285 N   0  0  0  0  0  0  0  0  0  0  0  0
    3.0813    3.9162  -18.3605 N   0  0  0  0  0  0  0  0  0  0  0  0
    7.6149    2.6070  -18.8511 O   0  0  0  0  0  0  0  0  0  0  0  0
    2.1472   -3.1563  -17.2281 Cl  0  0  0  0  0  0  0  0  0  0  0  0
    6.9871   -0.4903  -23.6903 H   0  0  0  0  0  0  0  0  0  0  0  0
    6.1350   -2.3362  -22.2814 H   0  0  0  0  0  0  0  0  0  0  0  0
    6.9070    1.8372  -22.8653 H   0  0  0  0  0  0  0  0  0  0  0  0
    4.8544    0.5106  -19.3051 H   0  0  0  0  0  0  0  0  0  0  0  0
    3.3824   -1.1620  -18.9146 H   0  0  0  0  0  0  0  0  0  0  0  0
    6.6585   -3.4726  -20.5021 H   0  0  0  0  0  0  0  0  0  0  0  0
    4.0247   -5.2640  -17.7702 H   0  0  0  0  0  0  0  0  0  0  0  0
    4.9691    3.5613  -23.1705 H   0  0  0  0  0  0  0  0  0  0  0  0
    6.5659    4.1376  -23.7575 H   0  0  0  0  0  0  0  0  0  0  0  0
    6.5369    6.0516  -21.9571 H   0  0  0  0  0  0  0  0  0  0  0  0
    4.9400    5.4753  -21.3701 H   0  0  0  0  0  0  0  0  0  0  0  0
    7.6106    3.7879  -21.4451 H   0  0  0  0  0  0  0  0  0  0  0  0
    4.5789    3.3848  -16.3302 H   0  0  0  0  0  0  0  0  0  0  0  0
    5.9763    2.2582  -16.3967 H   0  0  0  0  0  0  0  0  0  0  0  0
    6.2417    4.0283  -16.5479 H   0  0  0  0  0  0  0  0  0  0  0  0
    3.6878    3.2706  -20.9180 H   0  0  0  0  0  0  0  0  0  0  0  0
    2.2775    4.1001  -18.9263 H   0  0  0  0  0  0  0  0  0  0  0  0
    3.0449    4.0740  -17.3737 H   0  0  0  0  0  0  0  0  0  0  0  0
  1  2  2  0
  1  3  1  0
  2  8  1  0
  3 10  2  0
  4  8  2  0
  4 10  1  0
  5  9  2  0
  5 11  1  0
  6  9  1  0
  6 19  2  0
  7 11  2  0
  7 19  1  0
  8  9  1  0
 10 17  1  0
 11 24  1  0
 12 17  1  0
 12 20  1  0
 12 23  2  0
 13 20  1  0
 13 21  2  0
 13 22  1  0
 14 15  1  0
 14 16  1  0
 15 16  1  0
 17 16  1  6
 17 21  1  0
 18 20  1  0
  1 25  1  0
  2 26  1  0
  3 27  1  0
  4 28  1  0
  5 29  1  0
  6 30  1  0
  7 31  1  0
 14 32  1  0
 14 33  1  0
 15 34  1  0
 15 35  1  0
 16 36  1  0
 18 37  1  0
 18 38  1  0
 18 39  1  0
 21 40  1  0
 22 41  1  0
 22 42  1  0
M  CHG  1  21   1
M  END
>  <OMEGA_C>  (14) 
PcDRQBBIjb4My7XBNSnCQOCUqL9zca/Bg3HPQEOhhT9EJLLB4DGrQCQ5lz4p7KHBdUp8QIpOBcBQ
45fBby+5QCaHWcCy8p7BYUaKQJe8jMBqv5LBcp2vQF3dhb/bYqXBlzKiQJhYC8DXl57BLYW7QGG6
rT/gPqjB8vtjQJqcTcDo9ZHBu2bOQPRZN0BfDpnB+uaHQJ5LXEC2jpfBYwe9QPvSgUDGCrfBOoC8
QEJzpUDkp67BmF3QQFKfc0Cp26vB8Me5QER/M0DcDKTBZvWxQIKxTECIT4bBXS2tQPInj8AaH5nB
xSCtQOQqRkCV+pHB/xGNQOK5TEDf06HBjjNFQJCiekBe4pLBb63zQEzZJkD7zpbB2WsJQIgBSsAV
04nBGZbfQAEP+77Hhb3BGVLEQLWDFcBoQLLBJAbdQAUp6z8i7LbB/VabQN21Aj/icJrB23lYQH27
lL8bUZfB1xLVQEc+XsBMBKTBpsqAQKRyqMBPKY7BkwKfQObrY0AyXbnB8xvSQINnhEBYD77BDC7R
QBynwUAuqK/BrRSeQIw1r0AJ9qrBW4rzQEJtckCZj6vBq4aSQNmgWEAupILB1T2/QMqFEEBoLIPB
WbzHQL/ngEAdYoTB3ARsQLBRUUAfWKfB4sERQL4zg0ADaZfBMd9CQAJegkBn/YrB3kTVQNxOg74s
r7XBO73FQKexo79DH6/BpI3RQJaIij+NhLLB55quQJ5+wj4AE6LBxWS1QLCgVMBWlp7BQmd6QBpG
779g1ZfBzRCAQKMXg8CK8JHBVR6yQJwyeL/QRKXBLIahQLW6A8DFcZ7B8z++QC42tz//o6jB+XCk
QDQti8C/SpjBmSTQQMb+PkDjnJnBbJWIQCJlWUCXepfBsuvmQBsWiUB8FrTB8jq3QGpIhUD4ZLfB
/+TDQE+AhEC/i6vBq8K5QFqHOED7ZqTBEje1QMb+T0DhtIbBHVtaQC8YOMDEyJHBd4SwQOSBVkDD
YZLB2ZCMQBL/REC+nKHBns1DQB4JbEARlZLBoM30QO3OKECqepfBxYy8QNp6vcBTXZjBIjPkQKjV
/77COr3BisbIQGXFE8AEm7HBRZjdQNRH7j/nr7fBp8OfQDv+HT9+gZrB5E/RQE+5X8DCfKPBq95b
QEmcZr/rm5fBlO9lQO2InMBTGI3BHh79QEv0XEB8orXBhej3QJ+sp0AFDbXB8VemQJgroUBvtrrB
iY2rQD3yT0DmS7vB4eK8QKXBokBNZ6fBm76XQACUZkApz4LBMBK7QBXkDEAHfITBJFvQQH+id0Dm
FoTBeVVoQBTMPkDtuqbBfIwNQEdiakAd0pbBKDxCQDcje0CIz4rBfmjVQG4aN78wT7fBJEDGQKlx
1b8286/BDjvQQCpfKD+dQbXBwuGsQLCoAz7SZqTB6yx9QJ0V+7/+75fB6qC2QHAZYMB0bp3BXvmG
QGcAhcC16Y/B2uOxQPgioL/paabBrimiQGO0D8A+iJ7BNhm7QNs6jD/33KvBod9hQE53O8C4kJDB
1zSwQObiWUDTr7PBG6TvQCOfgEBV06vBD2+YQC71NEB6bJXBHWSQQBy2hUDA8ZrBCQCRQFbNOEBH
mKHBLJ62QFItJkCXfanBWFvdQJ3nokDPrr3BKQ2pQBmNjcBfQpbBs+zSQGGmiECwP7TBjM3fQOKc
RkAnYqXBiGULQQnVlEBlR6rBxsmSQJbeUkATILrBrdAJQIRtJ8DiU4jBJBPlQGQMhb+Mj77B3SzK
QBQiLsCGlrHB9HLcQLQRsT8d4brBy/WdQLw85z6tDJ3BU1NcQOfdgb8TkJjBMczRQAG+bsCpcqLB
+uh4QBLNnMAKOorBbWG4QHmsJUDSQpLBlrZ/QFQ1GUA0KpDB7CBkQIfIlkDZn5nBmJaqQBoEnUB3
uJvB7fpiQDQLIkCSS6TBakL6QLvntUDKDLzBVh/jQAnqjUAwmcTBkXjCQPZ/uEClcr/B98btQKzD
MkCyoJ7BymsUQcZVjUC+8aPBmHMQQW/dqkBJgK/BG8XVQIMFOr8bYLfBHMPGQPpc17+LB7DBrkPQ
QLoJJT/tULXBGtasQPDU2T2jfKTBV3u3QHXIYMCpep3BLAd+QASK/r9K+ZfBGzuEQJqNgsDAmI/B
u0CyQDy5or+gfqbBxMiiQBMfEcDHmZ7BJeu6QDjUiT+Q76vB+/6nQJyZjcAE5ZXBZHCvQElsWEBR
xLPBr7DuQOlvgEAx5qvB1MWXQPEaM0AggZXBdWWPQA+7hEBJBZvB2FaQQCfjNkALraHBEwu2QHbg
JEAOkanBTCrcQJyDokDpw73B3ehgQIV9OMBsspDBwu3RQH8ziEAfVLTBAhffQNr9RUD+dKXB9NQK
Qfz7lEBUWarBJRSSQNXXUEA8NrrBIQfBQCodv8B+RpTBOZLlQH/8hb/Bnr7BKunKQG8HL8CArLHB
TGTcQL/Trz+K7LrBxrSdQFbb2T6BJp3Bi9LSQBKQcMDVYaLB9utdQNzBhL9FwZjBHLNwQNEhmcDR
xInBVsa3QO9PJEAQV5LBGJl+QJbyFkDQP5DBUN5hQHaPlUB4s5nB8WipQCI+nEC5ypvBZtlhQAGk
H0B8YaTBHej4QKPBtUCwIbzBfh7iQIyNjUAprcTBPxvBQNvht0Coib/BnyPtQEFhMkBCs57BmeET
QXqmjUDmAqTBPcwPQaoYq0BTkq/BOtTfQCAGZL/5Z7bBiJDKQMgv7b8oF7DBFMrZQADr9z4QVLTB
2PGkQADikb0a2KbBAFKaQACY578s4pTBgDyYQEg9bMBkM6HBOAqIQJQqgcAPBY/BhH+uQJhztr9N
6KfBEDifQDxgFMDSYp/BUAK8QHAAZj98bazBcL6OQAg9K8D1o4zBfNqqQIgASEDLobPBnHjqQPwm
eEBv3azB0JmaQDAkEkAOLZXBWPiVQOi8b0DHwpjBBPyRQPh9J0COBaHBIpe1QCaTF0ACoqnBADTU
QEAml0CxE7/BGruMQHqakMCoHJnBeIfLQEZkgUAI6bTBVKreQNqeO0D/OqbBSC4IQbTIkkAU+qvB
JDmNQG6bOEBkxLnBTGuKQPiGBMAoGn/BabD0QJJHmr+O0bzB667PQGwFOsC4frHB0NbrQLM9nD/V
wLjB3D2LQKTxbj6Im6HBh4CfQFC0Qr8pR5PBVh2cQKPogsArK6nBAet9QEfJlsBHrIjB/wy6QFDB
8j/vt5LBZ3SBQBA+6D8nS5DBoAlzQLVgikDebZbBaB2yQIUBjUCl2pjB5W9iQP8/GkBLx6PBLJzv
QErjrEAFGb7BY6PbQFR7fkAlQ8XBENy3QBqjqUDVf8HB0jzvQLDXKEBNzZ/BplASQdBxjEAV/qXB
+rkLQTCFqUDnUbHB

>  <OMEGA_E>  (14) 
jC0bPxIDHj+iZos/sbOOP0WDlj8=

>  <OMEGA_NBR>  (14) 
     47609

$$$$
50215700
     RDKit          3D

 39 41  0  0  1  0  0  0  0  0999 V2000
    6.6674   -0.2099  -22.6989 C   0  0  0  0  0  0  0  0  0  0  0  0
    5.2771   -4.4278  -19.0528 C   0  0  0  0  0  0  0  0  0  0  0  0
    6.2019   -1.2574  -21.8885 C   0  0  0  0  0  0  0  0  0  0  0  0
    5.7507   -3.3522  -19.8266 C   0  0  0  0  0  0  0  0  0  0  0  0
    6.5171    1.1238  -22.2879 C   0  0  0  0  0  0  0  0  0  0  0  0
    4.1304   -4.2689  -18.2539 C   0  0  0  0  0  0  0  0  0  0  0  0
    5.4050    0.3611  -20.2512 C   0  0  0  0  0  0  0  0  0  0  0  0
    3.9396   -1.9465  -18.9857 C   0  0  0  0  0  0  0  0  0  0  0  0
    5.5677   -0.9838  -20.6553 C   0  0  0  0  0  0  0  0  0  0  0  0
    5.0846   -2.1015  -19.8046 C   0  0  0  0  0  0  0  0  0  0  0  0
    5.8874    1.4244  -21.0562 C   0  0  0  0  0  0  0  0  0  0  0  0
    3.4615   -3.0301  -18.2218 C   0  0  0  0  0  0  0  0  0  0  0  0
    6.4790    2.9331  -19.1817 C   0  0  0  0  0  0  0  0  0  0  0  0
    4.2575    3.4313  -18.9374 C   0  0  0  0  0  0  0  0  0  0  0  0
    5.7925    2.8631  -20.5319 C   0  0  1  0  0  0  0  0  0  0  0  0
    6.3548    3.9371  -21.4992 C   0  0  0  0  0  0  0  0  0  0  0  0
    5.5917    3.0470  -16.8289 C   0  0  0  0  0  0  0  0  0  0  0  0
    5.4865    3.2802  -18.2773 N   0  0  0  0  0  0  0  0  0  0  0  0
    4.4002    3.2083  -20.2244 N   0  0  0  0  0  0  0  0  0  0  0  0
    3.0525    3.7393  -18.3245 N   0  0  0  0  0  0  0  0  0  0  0  0
    7.6167    2.5578  -18.9201 O   0  0  0  0  0  0  0  0  0  0  0  0
    2.0252   -2.8437  -17.2477 Cl  0  0  0  0  0  0  0  0  0  0  0  0
    7.1432   -0.4311  -23.6428 H   0  0  0  0  0  0  0  0  0  0  0  0
    5.7942   -5.3757  -19.0724 H   0  0  0  0  0  0  0  0  0  0  0  0
    6.3293   -2.2806  -22.2099 H   0  0  0  0  0  0  0  0  0  0  0  0
    6.6287   -3.4809  -20.4421 H   0  0  0  0  0  0  0  0  0  0  0  0
    6.8834    1.9239  -22.9139 H   0  0  0  0  0  0  0  0  0  0  0  0
    3.7631   -5.0966  -17.6653 H   0  0  0  0  0  0  0  0  0  0  0  0
    4.9074    0.5814  -19.3183 H   0  0  0  0  0  0  0  0  0  0  0  0
    3.4309   -0.9946  -18.9465 H   0  0  0  0  0  0  0  0  0  0  0  0
    6.2465    4.9331  -21.0450 H   0  0  0  0  0  0  0  0  0  0  0  0
    7.4189    3.7358  -21.6917 H   0  0  0  0  0  0  0  0  0  0  0  0
    5.7980    3.9041  -22.4472 H   0  0  0  0  0  0  0  0  0  0  0  0
    4.6795    3.4085  -16.3316 H   0  0  0  0  0  0  0  0  0  0  0  0
    5.7106    1.9701  -16.6388 H   0  0  0  0  0  0  0  0  0  0  0  0
    6.4639    3.5878  -16.4330 H   0  0  0  0  0  0  0  0  0  0  0  0
    3.6640    3.2658  -20.8987 H   0  0  0  0  0  0  0  0  0  0  0  0
    2.2165    3.8040  -18.8694 H   0  0  0  0  0  0  0  0  0  0  0  0
    3.0194    3.8968  -17.3375 H   0  0  0  0  0  0  0  0  0  0  0  0
  1  3  2  0
  1  5  1  0
  2  4  2  0
  2  6  1  0
  3  9  1  0
  4 10  1  0
  5 11  2  0
  6 12  2  0
  7  9  2  0
  7 11  1  0
  8 10  2  0
  8 12  1  0
  9 10  1  0
 11 15  1  0
 12 22  1  0
 13 15  1  0
 13 18  1  0
 13 21  2  0
 14 18  1  0
 14 19  2  0
 14 20  1  0
 15 16  1  6
 15 19  1  0
 17 18  1  0
  1 23  1  0
  2 24  1  0
  3 25  1  0
  4 26  1  0
  5 27  1  0
  6 28  1  0
  7 29  1  0
  8 30  1  0
 16 31  1  0
 16 32  1  0
 16 33  1  0
 17 34  1  0
 17 35  1  0
 17 36  1  0
 19 37  1  0
 20 38  1  0
 20 39  1  0
M  CHG  1  19   1
M  END
>  <OMEGA_C>  (15) 
+FrVQMjoVr5Ul7XBqt2oQDiwjcAqbJjBlnXGQE7zoL+SG6/BgwW4QAeLVsDbnJ7BAozQQNLXjz+M
TbLBTCyEQAibiMDjB5LBz/WsQOjeuD5mAqLBMSJ8QLYn+b+y4pfBaCqyQIfce7/+PaXBOLWiQDN+
BsDNb57B8mW8QDZStj8ic6jBhYldQL/sQcA2xpHBDlTPQCq4O0AqdJnB1D2IQLGaW0DNf5fBw1u5
QH89N0BJQaTBlVrLQCP6e0BP/qvB+u6yQA8CQ0CkoYbBaJGvQBfvUUDZN5LBlM6MQG9VTUCEy6HB
sFtDQK9Qb0CFmJLBarzzQLSyI0BGXJfBsZwBQJ/+NcBX+4nBI5XkQBq+3L6AJL3BKmq5QKsFrMA6
lJjB9YnKQBH1EcDKrbHBYB7UQJ/GXsCDiaPB0UTcQLtD9j+3T7fBGtdwQIUXo8B6Uo3BpAmdQNLZ
FD/gi5rBX5RbQB2ffr9fkpfBo+PHQDTcnUAiXKjB/WftQLIXb0CyiK3B+Yi5QFPdeUD2k7PBqL6V
QHQkWkAkp4LBYr22QKgs/D8tHIXBJ9jOQH2eZUC5doPBsn9qQBQDUUCVMKfBC9sNQPJzc0CQ9JbB
hz1BQHNkeUA0s4rBkFrDQKC4yz1LhLTBl3+vQGpDlcCE4JrByoi2QDjUir9QYa/BNFC4QPbnX8AW
yaDByobHQCbQpD83mq7B+iOPQCb3lMCvB5PBtoCvQFBsBT68hJ7B0eGAQBCLE8CW05bB/kmsQHLZ
iL/3X6TBLDehQNLoE8DLuZ7BZCW+QPZLpz8SfqPBqT1vQOCZXsBYEpHBeEWqQN8+MUAtdJPB7VGW
QMWMeEAEZ6LBGrfIQEElI0AZvpzBNmj3QJnvH0B/8JjBdXs9QLPnY0D1lJPBZn6KQNlBZEB8xpfB
m9S/QIfzbkCPKKPB1c15QBLKhEDvP6vBZMquQAt7HEAXDorBt8AdQGMdXsDQhofBKv3JQDmNxT36
/rzBCIzBQDIissD1W5zB0YO0QBJvAMBG2bPBpr3QQHG4YMCF5abBmPHRQMpNDEDJibLBB1uIQFyh
scDtgo7BP66mQP1rFj5xKpbB54FeQPcKs7/PNJXBwXv+QCEnWUCQIJTBzmH8QDyMzD/kC5TBamgG
QX0PHkC565/BlPwVQLqBiEC0MZjB4n0iQDEfI0CQRpTBjjk+QJxMd0B1H4vBjqHUQIOgiUA4NKfB
XjOKQDpyh0DtfrLBi5A6QANFiEB5YarBwGTxQL1y3r2/9K/BdpNGQF5WTMCPspfBO2/eQLUSl79F
bKrBVk5tQMh+CMCmTZ3Bo5neQM2plT9XoK/BNDh5QIBrh8C8fpPB9sylQFl3nD50L6TBhM68QPuz
ScCIfZrBNUK4QDsre78QjKTBmaujQGmLBsBkvZ7BLNW4QN1dsj9VoKnBn1apQEi8hsD15pTBofnD
QI+wc0BKcKTBwySJQODvaUAnhJnBUcGkQAjwMkAOI6nB6wiVQBHBTkBzWrTBKqjEQAxpp0BGvZPB
VdKvQBCHikBVdJvBCE6AQFsbN0A7m6HBtMddQHSMdEAMoZDBiPbmQLtthEARA6jBsODIQI7ar8Ci
sI/BVDcHQW2fiL5ud7TB8QACQJ9gTcCunpbBEA/tQHYiCsC8qKrB80FGQGpFq7+Ih6DBSBTtQB0V
/j/q+rPBQIFbQCNzocBzMY/B0beIQHyM7D5DsJ/BzRvfQLf1SMBMipvBiciGQIeAh0C727PB1kKw
QMX0T0DT7bnBhMd5QNUNIUAZP7fBg9GtQIXrr0DXY43BUYXgQIRDl0DRL5DBVzXPQFWgxEDs4JfB
X2pJQIiUF0AEiqLBs5omQORhVEBAHZDBwDRvQAwsjkAqwYrB8M3WQEaVLr/nILfBPimpQIHPjcDn
+JXBxpXHQNrw0b8116/B+RW4QCPIXsBZZZ3BHszQQNv9Lz93GLXB5O2EQMLbhMClqI/BfaGsQLxz
FT6vXqTBkLl8QKTc+7+5L5jB8oOyQALenb9GXqbBaNKiQB1GD8CukZ7BxrG6QOL+jj/GzqvBSR1f
QLvZOsDExJDBm1GvQGL5WUAD27PBWZ/sQIY9g0CSY6vBSRW1QAefJ0DGjKnBSUWPQOP+O0D24aHB
9rfaQEbJpUCBRr3BXaXQQPhfikAnCLTBMg3dQIV4SkD3GaXBv2cJQS3SmEDRgqnB+hKTQMFkUEC3
kLrBTQMFQBF8JMDE+4jBDyfnQDGbf7+sTr7Bm4a5QO0OrMBSHpXBx/3LQItDLMBIerHB6eLTQAXO
bMBWOKLBKCDdQKqYtT8lqLrB+Q9zQOU5nMBu94nBujCdQJG37D72EJ3Bzq1bQCoug79EBZnBYTaN
QATJgEBEpKDBk29iQBa/JEC8bKXBNp2UQKERHEB8J5rBCnH2QPwWukATXrvBTEPiQNKdkUCKPMTB
Jvi+QJYhukCTIb/BKoTqQEU+N0DuQJ7BQScSQZ/ZkUAYC6PBDmMOQUlPr0DZoK7BvqDbQACHL7/P
dLbBQ5+IQC70j8BvrprB3JPLQO5Z0r+/Rq/B0FuYQIkrY8BPA6LBRXzTQDstLj9AxbTB7GCDQGbk
hMDa1o/BIyqrQGyVCz56p6TB/LOdQLD187/TnZPBVnazQNaTnr9KQ6bBggajQKiJD8AyjJ7Bl0i6
QOSKjT8o+qvB5uiNQP3LNsCdUIzB2FiuQKjlVkAvn7TBUFfoQDTJhEBwSKvBj0GyQJK/JkDTGarB
1imKQMuMOUDRIKPBSP/ZQMskpUDMnr3BkIHOQF8cikAlabTB6UbYQE5eTUByGqXBw4kGQVcEnECz
5KjByC+UQNz8SUA+wrvB/4yHQH8YG8C+vX3B1ULuQLT6f7/rSL3BPo+AQJDIr8CFYJ3BZa3RQOZS
LMAZpbDB/FCcQOxudMAFUqrBnYrgQIPFtD+vOLrBeZFuQMU4nMBGOorBHQqZQOrX5j7XvZ3ByNGl
QBrpab+e35DB4H+GQCEef0A9I6LB/hxbQBFiH0DDE6fB6AyOQIxvG0DIO5vBq1n0QDqtukAyX7vB
oinkQFK6kEDHUsTBrg6+QPE4uEClDMDB5D/kQNlBPEDV/53BYoUOQVRClkB+HKLBNMMLQah6skAJ
9a3B

>  <OMEGA_E>  (15) 
RLEWP0o4hD9+WIo/dyqVP2n1nz8=

>  <OMEGA_NBR>  (15) 
     51436

$$$$
50215938
     RDKit          3D

 46 49  0  0  1  0  0  0  0  0999 V2000
    6.6290   -0.2344  -22.7500 C   0  0  0  0  0  0  0  0  0  0  0  0
    5.3478   -4.4021  -19.0487 C   0  0  0  0  0  0  0  0  0  0  0  0
    6.1010   -1.2787  -21.9809 C   0  0  0  0  0  0  0  0  0  0  0  0
    5.7581   -3.3468  -19.8813 C   0  0  0  0  0  0  0  0  0  0  0  0
    6.5773    1.0828  -22.2720 C   0  0  0  0  0  0  0  0  0  0  0  0
    4.2408   -4.2350  -18.1959 C   0  0  0  0  0  0  0  0  0  0  0  0
    5.3844    0.3280  -20.2907 C   0  0  0  0  0  0  0  0  0  0  0  0
    3.9515   -1.9530  -19.0065 C   0  0  0  0  0  0  0  0  0  0  0  0
    5.5070   -1.0071  -20.7296 C   0  0  0  0  0  0  0  0  0  0  0  0
    5.0604   -2.1155  -19.8679 C   0  0  0  0  0  0  0  0  0  0  0  0
    5.9133    1.3883  -21.0566 C   0  0  0  0  0  0  0  0  0  0  0  0
    3.5453   -3.0102  -18.1740 C   0  0  0  0  0  0  0  0  0  0  0  0
    6.4638    2.8888  -19.1440 C   0  0  0  0  0  0  0  0  0  0  0  0
    4.2681    3.4822  -18.9488 C   0  0  0  0  0  0  0  0  0  0  0  0
    5.8340    5.2964  -23.5640 C   0  0  0  0  0  0  0  0  0  0  0  0
    6.7533    4.1469  -23.9650 C   0  0  0  0  0  0  0  0  0  0  0  0
    5.7697    3.9780  -22.7931 C   0  0  0  0  0  0  0  0  0  0  0  0
    5.8041    2.8184  -20.5012 C   0  0  1  0  0  0  0  0  0  0  0  0
    5.6521    3.4432  -16.8368 C   0  0  0  0  0  0  0  0  0  0  0  0
    6.4026    3.9323  -21.3898 C   0  0  0  0  0  0  0  0  0  0  0  0
    5.5109    3.4283  -18.2977 N   0  0  0  0  0  0  0  0  0  0  0  0
    4.4026    3.1497  -20.2120 N   0  0  0  0  0  0  0  0  0  0  0  0
    3.0599    3.8075  -18.3532 N   0  0  0  0  0  0  0  0  0  0  0  0
    7.5932    2.5093  -18.8550 O   0  0  0  0  0  0  0  0  0  0  0  0
    2.1821   -2.7964  -17.1073 Cl  0  0  0  0  0  0  0  0  0  0  0  0
    7.0758   -0.4433  -23.7107 H   0  0  0  0  0  0  0  0  0  0  0  0
    5.8818   -5.3407  -19.0633 H   0  0  0  0  0  0  0  0  0  0  0  0
    6.1483   -2.2940  -22.3459 H   0  0  0  0  0  0  0  0  0  0  0  0
    6.6090   -3.4759  -20.5337 H   0  0  0  0  0  0  0  0  0  0  0  0
    7.0487    1.8741  -22.8360 H   0  0  0  0  0  0  0  0  0  0  0  0
    3.9241   -5.0466  -17.5577 H   0  0  0  0  0  0  0  0  0  0  0  0
    4.8807    0.5405  -19.3593 H   0  0  0  0  0  0  0  0  0  0  0  0
    3.4158   -1.0154  -18.9880 H   0  0  0  0  0  0  0  0  0  0  0  0
    6.2538    6.1927  -23.0839 H   0  0  0  0  0  0  0  0  0  0  0  0
    5.0020    5.5884  -24.2216 H   0  0  0  0  0  0  0  0  0  0  0  0
    6.5823    3.6090  -24.9091 H   0  0  0  0  0  0  0  0  0  0  0  0
    7.8341    4.2132  -23.7713 H   0  0  0  0  0  0  0  0  0  0  0  0
    4.8927    3.3369  -22.9660 H   0  0  0  0  0  0  0  0  0  0  0  0
    4.7699    3.9227  -16.3875 H   0  0  0  0  0  0  0  0  0  0  0  0
    5.7369    2.4110  -16.4662 H   0  0  0  0  0  0  0  0  0  0  0  0
    6.5557    4.0070  -16.5617 H   0  0  0  0  0  0  0  0  0  0  0  0
    7.4829    3.7548  -21.4967 H   0  0  0  0  0  0  0  0  0  0  0  0
    6.2372    4.9020  -20.8975 H   0  0  0  0  0  0  0  0  0  0  0  0
    3.6589    3.1255  -20.8800 H   0  0  0  0  0  0  0  0  0  0  0  0
    2.2179    3.7980  -18.8925 H   0  0  0  0  0  0  0  0  0  0  0  0
    3.0300    4.0519  -17.3839 H   0  0  0  0  0  0  0  0  0  0  0  0
  1  3  2  0
  1  5  1  0
  2  4  2  0
  2  6  1  0
  3  9  1  0
  4 10  1  0
  5 11  2  0
  6 12  2  0
  7  9  2  0
  7 11  1  0
  8 10  2  0
  8 12  1  0
  9 10  1  0
 11 18  1  0
 12 25  1  0
 13 18  1  0
 13 21  1  0
 13 24  2  0
 14 21  1  0
 14 22  2  0
 14 23  1  0
 15 16  1  0
 15 17  1  0
 16 17  1  0
 17 20  1  0
 18 20  1  6
 18 22  1  0
 19 21  1  0
  1 26  1  0
  2 27  1  0
  3 28  1  0
  4 29  1  0
  5 30  1  0
  6 31  1  0
  7 32  1  0
  8 33  1  0
 15 34  1  0
 15 35  1  0
 16 36  1  0
 16 37  1  0
 17 38  1  0
 19 39  1  0
 19 40  1  0
 19 41  1  0
 20 42  1  0
 20 43  1  0
 22 44  1  0
 23 45  1  0
 23 46  1  0
M  CHG  1  22   1
M  END
>  <OMEGA_C>  (16) 
8CDUQAr6b770/7XBYyGrQMrdjMDGY5jBWzvDQNeqo7/e2K/BrEK4QPcxVsDiDJ/BVXnSQOSZij8X
LbLBZ7SHQOaEh8BOkZHB9EysQK3rpz5fU6LB7OV8QDH8+b9YDZjBOTmwQCzpgL8g1qXBuu6hQJxk
B8B08Z7BwDm9QCWzsT8DdKjBtOViQCunQMBsZJHBiNfOQMjhOEABJ5nB4JOIQEbcXkAwl5fB3q+6
QFB8qUALg7zBIBvYQNCzhEBNuL/BkaG4QBeYfkA+WLbBiru5QLlgNECAAqTBKt60QGZdXEDLsYbB
6eHMQBGre0BQHqvBQFmwQOJoW0CpYZLB6OGMQC+USUAasqHBBNVDQJ2uc0BB05LBk/vyQKuYIEAj
15bBHKcLQGj3MsCt24jBTW3iQEz+4r6ar73BaDe8QFvnqsCngZjBPL/EQKjQEsB4xLLBUn3TQFN1
XsAXRaTB5Y7hQG7h7z85sLbBKyV7QOF9ocAjdozB+S6cQOxgCj/U35rBlJxaQJ/5gb9h55fB3h7I
QGoqxkDKq7jBBxCgQDLUskDqxcHBG6LSQF/5ZkDTRcfB8bD6QOfShkCzK77BSpGcQFOQVUBLurfB
U6OYQN0Me0CfGYPBzZS3QK1NGkDIuoPBScjRQBc5gEBHfoTB33PvQFhPcEAl+avBUpfHQELdnEAY
LqfB1CpqQIIHSEBKCqfBjvENQLURc0DnI5fBLexBQAGpgUBGEovBZNrZQDBhT77wnLXB9JaqQBWz
jsBH7JjBf1/KQI4Go79gd6/B8u+5QNx1WcCPOp/Bim3TQKxqjz8GMbLBPHOGQE7RiMCPXJLBRmmu
QBhLmj5QXKLBaLCAQKzf+78GcJjBqde0QF6Bg7+MuKXBzwalQKIqCcDcDp/BqYa8QGxisT87oqjB
vD9jQPnCQcBlGZLBPPrNQLynPkCD45nB/SuIQNDPYkCNW5fBvXgHQVyxgUAbtqvBUj8AQY+fm0AG
drXBAk3jQDAImEA+p6vBhNi0QIBiM0CwWqTBRL+2QEh6W0D+9obBu/K5QPCSfECu3azBy7qwQDwF
X0AFoZLBSIaIQKzPO0DDqaDBfjpIQHdJg0CQvJLB4sHwQKkgH0AulZfBvCQKQFxcMsCW6InBAb7q
QHjhyr5y/bzBmY26QJpXrcBiHZnByO7OQEt2EsCJMbLBbsfVQHOeYsDGN6TBRv/fQGhA+D+E3bbB
KmZ1QLbxosBTh43BX2ieQNMa/D5Y25rBifRgQKnRgb/tQpjBEF4IQagtPUDxLqzBCnsUQa+vjUA2
mabBRBEIQUU9ukCOWbfBluj3QGoki0BJ77zBZw7hQCzltEDHpabBiCmbQMtTeUBE+ILBO3a5QLxS
GECRaYTByyDUQDcffkAAyoTB/LCeQDJUlECsEKzBMZe5QJ6IX0DB4bTBAlVdQEMlJ0DLmqTBWe4P
QG7QgUAThpbB1GtMQOKtkUBRnIvB9EXcQLAerL5+XrTBsI2jQHw7kcBKgZnBnHLKQOUKrr9XTq7B
03q1QI70XMCc/p7Ban7WQPhvfD+yOLHBSnp8QDZyi8DPZZPBCZytQPBjjD7dn6HBxjh5QLC5/7/z
TZjBrpmzQJnBiL9a1qTBltmhQJNeC8CWjJ7BOiC+QET8qD9p7KfB2P9VQLCORcAkvZLBu5LPQJ5D
QkACAprBkVSIQDDmXUB2YJfB5mnoQNCfukCVCKfBco3gQASDv0DsIrPB2NHBQJIypUCQOKzB6V+3
QF7aMUBwaqTBhgW3QHayVkAL7IbByMXEQICma0DM763B8+ewQEykW0AumpLBapaKQFgGREBPZaHB
zPBFQI42dkAVL5LBygb1QBCwMEAFGZjBfUP0P2oiN8CVDIvB6X3uQGjcEL85ervB6GGyQP9ksMCP
95nB8xfOQAGqGMCR2rDBBWzSQJKsZcDIlqPB5LrkQPd14z/o57XBW5RgQAY+psB7M4/BA2OcQOZN
/j4qWZrBlW9bQLk6g7+1z5fBQ6UBQS8Rp0BII6TB4NfjQGUp1kAsrKHBBE3WQN6A3kDWbbbBqr/1
QKhor0Dz5LjBUhuiQA8As0DOlarBAi2aQMGKbkCP2oLBc8S8QITKE0Bcl4TBFrLSQEgPfkAcm4TB
YSSwQLJkW0BpxbTB/jrmQEqAXECy6K/BpeViQA+VPUCcR6bBtRMOQFLSdEBrFZbBewBIQFWOhECG
i4rB+MPrQAIam77EhrHBI64+QNZrO8BlgJXBedHVQOriqb+QKKzBDW9oQGxn9L+2QJvBj0bhQOdE
hT8/la/BHwdqQBcShMDhJJPB3rCqQIpTrj4u26LBwpu0QNmBUsA7QpzBQWW1QFlygb+BrqTBvBuf
QLo/BcCfr57BKX+/QBipsD9+fKjBsKCfQJvMicARiJbBsEnQQOpQWEClJp3BRhqKQEVqXEAdtpfB
tPHhQLujvUB+iazBfQvHQOojxkDTmrbBqEq2QL+3p0By9K3BOQa0QJFiNkDoH6bBWRTCQMLniUBC
q4rB8q21QDr8bkBtdbDBdVW0QII7dEBNOZXBi3qIQBv6PUBahqHBEG9NQHARZUAMC5HBZXL3QIFK
XUD5HJ3BzrS6QDU/ucACn5PBR2ECQa9uDL8YKbfBNL36PzCeMsBM5ZLBBbfdQNEHF8Aavq3BufpG
QMzgfb8xD53B/RTzQFGN6T+3hrPB2/BJQPYZncA0vY7ByDySQLykFT9EEp3BoE7VQA2LW8BW0Z7B
85D/QGnCqkA4Gq3BFvXlQNDq1kDmfqbBbdS3QLqI5UDPxrfBSnDRQFNguUAhYr7BOAicQLPLs0Cy
7qjBXtClQJLikkDZ7YXB/OLTQAktYUB4eobBqNHWQKUJpkDctovB/lSZQAjZYEABXrXBMsjSQPu7
XkAU+bTBEwxbQAkiLkDAWqXBPnATQCWgU0BLoZPBW5BUQNW6fEDjqYnBV3n1QLMp0r3Yl67Bf4eU
QIrij8BiAZ3BdpzgQJyXl79OsqnBcpSoQKfgW8Bzc6LBg2XjQJk9lz8YJK7BOYZ3QEGuh8A50ZPB
KUGmQBkClz7XYaTBvQ2LQNLd7b/weJXBBCm5QPrAfL+nZKTBOu+jQIHPBsBnvZ7BLTq7QNLrsj9k
J6nBFBRuQJbqOsAhDpDB0QfFQDvVdEB00KPBF9OIQKLJaUD3bJnBIWeyQORciEAKccbBA+TUQI5D
kkANDr7B6AW5QD/7U0DK/rzBL9GmQI16M0Dz5ajBJe3CQL3Mp0AOHpPBzTCWQFbxT0CyKbTB8E+v
QMQMi0AwEJvBCqKBQKAcNkCBh6HBNa1aQNLJc0CPwpDBh1fpQOIihEA5n6bBIv4wQGVFJsDLo4TB
K7kJQU0jhL74tbLBaCSYQF1HsMCh4J/B/LruQPXXCsAi+6nBBJS7QHK/aMCffKnBM0/0QDUDAUBV
o7HBW8ZYQBrGocC/p4/B9FqHQMEr3z4arqDBxHCHQLAeWb+ujZLBOF6VQKYvnEDz4MbBw8S7QDnF
fECfjM7Bn/X2QPlSj0BsJMDBFI/QQAIgrUDAeLjBzvPIQDr1FkCH1r7BhQ2rQEVesEAKBI3BqRXe
QOmCl0CLRo/BxU3OQOX+xEBwIJfB0vOHQC0BiEBwXbPB1fF6QAg7IkCEu7bBrDdNQD7mFEB3lqLB
ZR8kQOVtUkCsbZDBlrdpQPwqjkDk3IrBnAD0QL5C4L2GAa/B/ZFFQGu/TMCC5JfBcFHfQGYfmL9z
CKrB9YxsQO/wCMBiep3BpxjiQECFlj8Me67Br/93QLSUh8Crn5PBI7OlQG7gmD6PX6TBM1u8QPPf
ScCLdprBCUS4QO37fL+0iqTBCFOjQG7wBsDZ0J7BZVW6QGDJsj+lTqnBisSoQEDWhsC37JTBlLTE
QE+1dEDfBqTBkheJQMUdakAxa5nB5gmwQFAuiEDLl8bB5h3TQDLpkUAOWb7Bthm3QJmWU0ClK73B
FhimQHiKM0AU/ajBTbjDQM7Kp0BSVZPBitaUQIT5T0CMMrTByY6vQNUTi0ARM5vBr0+BQBWSNkAR
gKHBRk1cQA5BdEBXppDBMuHoQC3ug0Dm+KbBnzvIQMnkr8Arp4/B3dkIQb1Cib7wPLPBUe8AQD7W
TcBl4ZbBCETtQAg8C8AtZqrBNqhFQJxjrL++wqDBC9PyQEaEAECDELLB6QhaQJ2eocAwWo/BXVSH
QHjL5D6VbKDBYbXeQGTgSMCTZpvBlRaTQHQpnECC6sbBXdO4QDhFfEBhvM7Brwf1QLHHjkBfksDB
6ErPQIjOrECAwLjB0L3GQAJiFkCEEr/BAjysQHZysEBSJY3BSw7fQP1vl0DLlo/BOfHOQIvxxEDR
Y5fBLMqGQIcWiEAOXLPBsLl3QO1vIkBoqLbBlERMQJ2wFUDSeKLB/KklQM0aU0BSOJDBVjVsQGtY
jkC6xorB

>  <OMEGA_E>  (16) 
YIEHPyhoJT9Yhy4/VmZsPyE7hD92MYY/

>  <OMEGA_NBR>  (16) 
     56517

$$$$
50215910
     RDKit          3D

 46 49  0  0  1  0  0  0  0  0999 V2000
    6.7015   -0.2521  -22.6865 C   0  0  0  0  0  0  0  0  0  0  0  0
    5.1956   -4.4621  -19.1098 C   0  0  0  0  0  0  0  0  0  0  0  0
    6.2188   -1.2943  -21.8865 C   0  0  0  0  0  0  0  0  0  0  0  0
    5.7106   -3.3889  -19.8563 C   0  0  0  0  0  0  0  0  0  0  0  0
    6.5671    1.0759  -22.2646 C   0  0  0  0  0  0  0  0  0  0  0  0
    4.0393   -4.2841  -18.3288 C   0  0  0  0  0  0  0  0  0  0  0  0
    5.4772    0.3218  -20.2169 C   0  0  0  0  0  0  0  0  0  0  0  0
    3.9094   -1.9530  -19.0405 C   0  0  0  0  0  0  0  0  0  0  0  0
    5.5992   -1.0169  -20.6482 C   0  0  0  0  0  0  0  0  0  0  0  0
    5.0709   -2.1266  -19.8299 C   0  0  0  0  0  0  0  0  0  0  0  0
    5.9491    1.3826  -21.0257 C   0  0  0  0  0  0  0  0  0  0  0  0
    3.3972   -3.0309  -18.2938 C   0  0  0  0  0  0  0  0  0  0  0  0
    6.5001    3.0354  -19.2187 C   0  0  0  0  0  0  0  0  0  0  0  0
    4.2692    3.4469  -18.9273 C   0  0  0  0  0  0  0  0  0  0  0  0
    5.2030    3.9170  -22.9037 C   0  0  0  0  0  0  0  0  0  0  0  0
    5.1976    5.0991  -21.9232 C   0  0  0  0  0  0  0  0  0  0  0  0
    5.7687    2.8284  -20.5444 C   0  0  1  0  0  0  0  0  0  0  0  0
    6.1218    3.8908  -21.6615 C   0  0  0  0  0  0  0  0  0  0  0  0
    7.6293    4.1578  -21.9037 C   0  0  0  0  0  0  0  0  0  0  0  0
    5.6718    3.2779  -16.8468 C   0  0  0  0  0  0  0  0  0  0  0  0
    5.5224    3.4112  -18.3052 N   0  0  0  0  0  0  0  0  0  0  0  0
    4.3585    2.9931  -20.1548 N   0  0  0  0  0  0  0  0  0  0  0  0
    3.0847    3.8487  -18.3299 N   0  0  0  0  0  0  0  0  0  0  0  0
    7.6452    2.6891  -18.9487 O   0  0  0  0  0  0  0  0  0  0  0  0
    1.9637   -2.8149  -17.3229 Cl  0  0  0  0  0  0  0  0  0  0  0  0
    7.1781   -0.4727  -23.6302 H   0  0  0  0  0  0  0  0  0  0  0  0
    5.6874   -5.4233  -19.1357 H   0  0  0  0  0  0  0  0  0  0  0  0
    6.3208   -2.3170  -22.2183 H   0  0  0  0  0  0  0  0  0  0  0  0
    6.5996   -3.5279  -20.4535 H   0  0  0  0  0  0  0  0  0  0  0  0
    6.9380    1.8751  -22.8891 H   0  0  0  0  0  0  0  0  0  0  0  0
    3.6434   -5.1092  -17.7553 H   0  0  0  0  0  0  0  0  0  0  0  0
    5.0203    0.5378  -19.2625 H   0  0  0  0  0  0  0  0  0  0  0  0
    3.4156   -0.9929  -19.0108 H   0  0  0  0  0  0  0  0  0  0  0  0
    4.3341    3.2448  -22.9589 H   0  0  0  0  0  0  0  0  0  0  0  0
    5.6382    4.0370  -23.9068 H   0  0  0  0  0  0  0  0  0  0  0  0
    5.6286    6.0651  -22.2249 H   0  0  0  0  0  0  0  0  0  0  0  0
    4.3245    5.2729  -21.2771 H   0  0  0  0  0  0  0  0  0  0  0  0
    8.1689    4.1114  -20.9462 H   0  0  0  0  0  0  0  0  0  0  0  0
    8.0311    3.3962  -22.5881 H   0  0  0  0  0  0  0  0  0  0  0  0
    7.7580    5.1554  -22.3489 H   0  0  0  0  0  0  0  0  0  0  0  0
    4.7617    3.6445  -16.3495 H   0  0  0  0  0  0  0  0  0  0  0  0
    5.8293    2.2201  -16.5897 H   0  0  0  0  0  0  0  0  0  0  0  0
    6.5364    3.8695  -16.5114 H   0  0  0  0  0  0  0  0  0  0  0  0
    3.5772    2.7877  -20.7442 H   0  0  0  0  0  0  0  0  0  0  0  0
    2.2262    3.8021  -18.8406 H   0  0  0  0  0  0  0  0  0  0  0  0
    3.0886    4.1853  -17.3882 H   0  0  0  0  0  0  0  0  0  0  0  0
  1  3  2  0
  1  5  1  0
  2  4  2  0
  2  6  1  0
  3  9  1  0
  4 10  1  0
  5 11  2  0
  6 12  2  0
  7  9  2  0
  7 11  1  0
  8 10  2  0
  8 12  1  0
  9 10  1  0
 11 17  1  0
 12 25  1  0
 13 17  1  0
 13 21  1  0
 13 24  2  0
 14 21  1  0
 14 22  2  0
 14 23  1  0
 15 16  1  0
 15 18  1  0
 16 18  1  0
 17 18  1  6
 17 22  1  0
 18 19  1  0
 20 21  1  0
  1 26  1  0
  2 27  1  0
  3 28  1  0
  4 29  1  0
  5 30  1  0
  6 31  1  0
  7 32  1  0
  8 33  1  0
 15 34  1  0
 15 35  1  0
 16 36  1  0
 16 37  1  0
 19 38  1  0
 19 39  1  0
 19 40  1  0
 20 41  1  0
 20 42  1  0
 20 43  1  0
 22 44  1  0
 23 45  1  0
 23 46  1  0
M  CHG  1  22   1
M  END
>  <OMEGA_C>  (17) 
6nLWQDwPgb4DfrXBbUKmQK/JjsDk4JjBRADHQPOqpb+AF6/B/by2QBPjWMCn2Z7B7CXSQD62iT/o
HbLBBkKBQHMXicBgoZLBOUWvQIDApD40vKHBoTN6QO76+b/4UpjB8CyzQOIogr+DL6XB80SiQFoa
CMC7o57BEl++QJL4sD+0NKjBkWtZQKf6QcCzWZLBswDQQFdDQkDpv5nBip2IQF2ZXEAca5fBJH+m
QNGwekC3OrfB11KmQJQro0CfYq/BVpm4QBkFNUDzWqTBv+XDQM8CeUC5Sq3BWCP0QNgMhUC3Oq/B
E3+1QFnJUUBWxobBNrewQGVQWkD3cJLB/HiLQJ2PP0AgPaHBL2tFQJlRdkCWo5LB2qX0QPcZLEDe
lpfBvln7PyAoNMA2lYrBRbPlQC4E8r63Cr3B3P61QNuLrcDhFZnB3EPKQDNJFMARv7HBwC/TQETJ
YcDboKPBFQTeQJ4E8D/uHLfB9S1pQOV+o8DzCo7B56WgQCGwCT+OGZrB6phaQCQxfr8yFpjBCLGK
QGuqT0Dqq7fBOWy0QAMvgUATQb/BMh20QE4VwkClzLHBAWKKQIC7qEB8N6rBxbMCQamQg0DdkafB
fn8AQXhbWUCCtLTBKUH4QC75pECWyrLBkl+YQPk+aUDAy4LBV4m6QIUVDkCft4TB3SnRQHmld0BW
F4TBOvFkQPdoMkAm9KXBenkOQExVc0B3uZbBTaxFQNfthUATG4vBSwzYQHyjg76FQbXBVRWpQPx3
jsDkd5jBGgLIQPJGpr+j8q7BOZ24QMD4V8CKjJ7BVuzSQNwciT8V+bHBVpKDQBGqicCtXZLB+eys
QHBKpD6LBKLBUkJ6QLqK/r9nYpjBoaiyQEexgr9kPaXBhbWiQA6kCMBTlZ7Busi8QFKtsD8vYqjB
PDZbQF6bRMBjVZLBafvOQCznO0CGo5nBtxWIQB4vXECjaZfB5YjbQNLxpUBIpKnBkVn1QPxzg0BA
ma/BPgK4QLK8NEA+baTB8JbFQECNeECVH63BlDKmQPkcgECUt7bBQQG0QJ7WSED4oIbBGJavQA42
UkCQS5LBpT6LQJjaRkBriqHBSjVFQLrkdkASgpLBR+vzQJk9J0A5kZfB1fr6PytKOcDZ4YrBZGPo
QKPc9L4rqbzB0O+5QAikrMDuepjBS/vLQMikFMAshbHBVW7VQDeEX8ByOaPBs/ffQN9H7z82y7bB
sjNvQGstpMCCs43B21KcQDIiCj8LpZrBuKtYQN26hb9bS5jBq6XhQJ4LrEBWHKHBJ5rTQB46xEBx
qq3B89P/QOgJiUAC4rfBu+8GQdC2YUDmU6vBFnGYQMUDQUAigLjBNFyMQBCTlkDgq7TBEpG3QHX8
i0Cuxb3Bw5WWQGEvX0C+r4LB6Gy5QMcbBUCxpYTBS1HPQB41b0Bl1YPB/B5lQFNhQ0D2nKbB4AsP
QMPrekB9vZbBRUxFQO8Qg0D6vIrBnQzrQIpEmL7JtLHBNe49QBT/OMB7bZXBCHbVQFayqL9yMKzB
kiJoQJBi8L9WM5vBWqfgQG8zhj/Vya/BVtRoQJTxgsAHB5PBD0KrQNHwtj7HtqLBFzG0QPpPUcAe
KpzBZna1QJzpfr/gnKTB1vGeQNfdA8BynZ7BsuC/QGkKsj+db6jBkgGfQMX5iMB6Z5bBaFnQQNlw
WkAYSJ3B5V2KQNyuW0CDu5fBILK9QCntpkAjMrDBjoDfQO/7iECWJrXBpSq0QJQMN0DCQKbBSBG1
QA0YbUBa27DBWCSUQI+UT0A3YrnB1CfCQJk6iEAMiYrBumq0QFsgdEAjPZXBQ6qIQPsCP0DOnqHB
+lZOQNzoYUBp9pDBEH/3QP6SX0D5Gp3B/dG5QJmBuMCsbpPB9dUBQTcdDL8PbrfB2Ub5P6G/L8Cy
1pLBcVDdQFaDFsBqvK3BHQ9HQOs6db/DCZ3BE8fxQL4d6j9v87PBV3BIQLjOm8AimY7B5ViTQOhM
Gz+bzZzBvdjUQAXdWsCyup7BhbjDQAEKtkBoZKjBK7GrQNUmvUA3U7XB0ZrlQGfNiUCn0L3BLKL9
QJOwgkDY4bDBHsyQQJSLCUChELnBMvNpQOGWbUDfwLfBvU2fQCqzYkBIYcHB3OOlQHyTkEBGuYXB
C97TQIyAXEAjlIbBMfvWQPdvpECCT4vBy0BbQASEMEAVf6XBnHQUQErzT0B1iJPBtZ9VQDlYeECV
honB

>  <OMEGA_E>  (17) 
SA0XP8DLEz/wdlk/

>  <OMEGA_NBR>  (17) 
     59194

$$$$
50215978
     RDKit          3D

 52 55  0  0  1  0  0  0  0  0999 V2000
    6.7737   -1.2708  -22.9202 C   0  0  0  0  0  0  0  0  0  0  0  0
    5.0567   -4.9298  -18.7872 C   0  0  0  0  0  0  0  0  0  0  0  0
    6.2474   -2.1972  -22.0037 C   0  0  0  0  0  0  0  0  0  0  0  0
    5.6141   -4.0244  -19.7101 C   0  0  0  0  0  0  0  0  0  0  0  0
    6.7548    0.1039  -22.6270 C   0  0  0  0  0  0  0  0  0  0  0  0
    3.9845   -4.5317  -17.9652 C   0  0  0  0  0  0  0  0  0  0  0  0
    5.7060   -0.3746  -20.4839 C   0  0  0  0  0  0  0  0  0  0  0  0
    4.0210   -2.3185  -18.9877 C   0  0  0  0  0  0  0  0  0  0  0  0
    5.6935   -1.7512  -20.7832 C   0  0  0  0  0  0  0  0  0  0  0  0
    5.1027   -2.7093  -19.8175 C   0  0  0  0  0  0  0  0  0  0  0  0
    6.2455    0.5721  -21.3889 C   0  0  0  0  0  0  0  0  0  0  0  0
    3.4668   -3.2258  -18.0659 C   0  0  0  0  0  0  0  0  0  0  0  0
    7.4076    2.7775  -21.7281 C   0  0  0  0  0  0  0  0  0  0  0  0
    5.4860    3.5867  -22.6901 C   0  0  0  0  0  0  0  0  0  0  0  0
    4.5969    4.9878  -18.9217 C   0  0  0  0  0  0  0  0  0  0  0  0
    6.0283    4.9922  -19.4875 C   0  0  0  0  0  0  0  0  0  0  0  0
    3.8102    3.7251  -19.3198 C   0  0  0  0  0  0  0  0  0  0  0  0
    6.7753    3.7195  -19.0548 C   0  0  0  0  0  0  0  0  0  0  0  0
    4.5936    2.4199  -19.0128 C   0  0  0  0  0  0  0  0  0  0  0  0
    6.0795    2.4070  -19.5309 C   0  0  0  0  0  0  0  0  0  0  0  0
    6.1978    2.0897  -21.0952 C   0  0  2  0  0  0  0  0  0  0  0  0
    7.6774    4.6535  -23.4047 C   0  0  0  0  0  0  0  0  0  0  0  0
    6.8893    3.6369  -22.6903 N   0  0  0  0  0  0  0  0  0  0  0  0
    5.0761    2.6396  -21.8761 N   0  0  0  0  0  0  0  0  0  0  0  0
    4.6363    4.3977  -23.4342 N   0  0  0  0  0  0  0  0  0  0  0  0
    8.5909    2.5707  -21.4781 O   0  0  0  0  0  0  0  0  0  0  0  0
    2.1327   -2.7301  -17.0524 Cl  0  0  0  0  0  0  0  0  0  0  0  0
    7.1941   -1.6163  -23.8531 H   0  0  0  0  0  0  0  0  0  0  0  0
    5.4522   -5.9317  -18.7094 H   0  0  0  0  0  0  0  0  0  0  0  0
    6.2665   -3.2524  -22.2331 H   0  0  0  0  0  0  0  0  0  0  0  0
    6.4356   -4.3348  -20.3388 H   0  0  0  0  0  0  0  0  0  0  0  0
    7.1318    0.8104  -23.3517 H   0  0  0  0  0  0  0  0  0  0  0  0
    3.5592   -5.2280  -17.2577 H   0  0  0  0  0  0  0  0  0  0  0  0
    5.2956   -0.0340  -19.5448 H   0  0  0  0  0  0  0  0  0  0  0  0
    3.6203   -1.3185  -19.0637 H   0  0  0  0  0  0  0  0  0  0  0  0
    4.6510    5.0385  -17.8242 H   0  0  0  0  0  0  0  0  0  0  0  0
    4.0637    5.8709  -19.3037 H   0  0  0  0  0  0  0  0  0  0  0  0
    5.9846    5.0319  -20.5859 H   0  0  0  0  0  0  0  0  0  0  0  0
    6.5655    5.8747  -19.1098 H   0  0  0  0  0  0  0  0  0  0  0  0
    2.8626    3.7083  -18.7614 H   0  0  0  0  0  0  0  0  0  0  0  0
    3.5993    3.7655  -20.3986 H   0  0  0  0  0  0  0  0  0  0  0  0
    7.7909    3.7496  -19.4764 H   0  0  0  0  0  0  0  0  0  0  0  0
    6.8345    3.7052  -17.9565 H   0  0  0  0  0  0  0  0  0  0  0  0
    4.6100    2.2786  -17.9221 H   0  0  0  0  0  0  0  0  0  0  0  0
    4.0596    1.5811  -19.4832 H   0  0  0  0  0  0  0  0  0  0  0  0
    6.5831    1.5784  -19.0116 H   0  0  0  0  0  0  0  0  0  0  0  0
    7.0274    5.1944  -24.1082 H   0  0  0  0  0  0  0  0  0  0  0  0
    8.1036    5.3628  -22.6800 H   0  0  0  0  0  0  0  0  0  0  0  0
    8.4907    4.1632  -23.9599 H   0  0  0  0  0  0  0  0  0  0  0  0
    4.1277    2.3326  -21.7973 H   0  0  0  0  0  0  0  0  0  0  0  0
    3.6457    4.2778  -23.3680 H   0  0  0  0  0  0  0  0  0  0  0  0
    5.0158    5.1008  -24.0355 H   0  0  0  0  0  0  0  0  0  0  0  0
  1  3  2  0
  1  5  1  0
  2  4  2  0
  2  6  1  0
  3  9  1  0
  4 10  1  0
  5 11  2  0
  6 12  2  0
  7  9  2  0
  7 11  1  0
  8 10  2  0
  8 12  1  0
  9 10  1  0
 11 21  1  0
 12 27  1  0
 13 21  1  0
 13 23  1  0
 13 26  2  0
 14 23  1  0
 14 24  2  0
 14 25  1  0
 15 16  1  0
 15 17  1  0
 16 18  1  0
 17 19  1  0
 18 20  1  0
 19 20  1  0
 21 20  1  1
 21 24  1  0
 22 23  1  0
  1 28  1  0
  2 29  1  0
  3 30  1  0
  4 31  1  0
  5 32  1  0
  6 33  1  0
  7 34  1  0
  8 35  1  0
 15 36  1  0
 15 37  1  0
 16 38  1  0
 16 39  1  0
 17 40  1  0
 17 41  1  0
 18 42  1  0
 18 43  1  0
 19 44  1  0
 19 45  1  0
 20 46  1  0
 22 47  1  0
 22 48  1  0
 22 49  1  0
 24 50  1  0
 25 51  1  0
 25 52  1  0
M  CHG  1  24   1
M  END
>  <OMEGA_C>  (18) 
D8LYQHypor+dXLfBoNChQJPAncA8TJbBs+rHQKWfDMCrB7DB2aazQI/HgMBIrp3BlSfYQBTN1D0p
BLXBygF/QKgDkcDJuI/BuZe2QGrOv74U36PBMqyAQK1hFMDD5pfBfjG2QOsm4L/5Q6bBTkmjQM9l
LcA8ip7BRtvHQAV4Ej9gHKvBv+BdQNByTsDkhpDB/wrtQNnCMUAP063BPI2vQP6LZUBJhbXBrxmT
QCGcn0CtX5fBF+jAQO+/n0B05pvB7NlzQNdobkDrjprBV8/YQMgLbkArcJjBJf+SQIzfGkBKGpjB
povCQBENGkBSP5zB+FPGQKG9BUAEw6jB5Kz1QB3plEDTPLvBxnTcQMLDaEC8hbXBzm+iQMjuKEBI
Aq/BR1yUQNy5jEA6ebvBJnQJQQWHJEAy06vBrn0IQKi5LsA/a4jBQzbmQM/hzr8t077BNniuQMTQ
vcDbrJXB1YbIQNknUMBw3bHBKPDNQMy2isDStaLBEjjkQOd3Tz820LrBzcljQOlLp8CrD4rBsHWp
QLtvC727W5zBTrJnQD/DqL+CgpjBYtWUQHk7oUABmI7B6QmCQDveu0D8bZrBnYG/QAMFoUABsKTB
NxjSQJj9u0D24JjBGjU3QPpUbUBAF5bBGFtmQJ39cEBlMKPBr075QCr6b0Ciz5vBorTaQMIhbUDU
po/Bt4STQAzVEUBlYI/BK+iBQANjyj+y3ZvBJKnSQIIIyj+7F5jBieDgQHU4pkCp3cDBg6gBQeWb
q0C2cLXBw9kHQVU5hUDVrb/BEBaEQL1JFUDRYK7B4lJpQOrjiECn8brBB4GgQNg5o0DESMDBukXx
QB80j79GQbTBNsOmQLfRj8DBtZPBxJbcQFXUAMCTSK3BGpe7QHi9Z8As2ZrBoIzmQDqJfD5oLrTB
2r54QCCPh8BJfpDBHwWxQGLmPL4WdabBzMV2QHnHDsDtlZvBAB68QKySxr9kVKbBUhSmQMO7HsAm
357BQjPHQGxvPT+MAa3BDndNQI2WRsBLbJTB4g7iQA/CRkBTCbDBHZisQFNoV0C0cbzB2l+nQPMY
i0BNuI3BL7CzQBLANkAwf43BkKeIQA7DlEDbE5fBpbLHQAnrG0A+NZjBOk2cQPE7h0CF36HBhXeo
QMXsLUDAw6HBEcW7QIR4D0CK1azBJ0LxQAzMlUDBWr/BA93UQDVhdECi+LjBJ/ycQPakH0B7kLXB
cImXQHtVckAmpsXBR5cCQbhuSkAgrqvBDHzIP4zRMcDpeZDBXb8EQXK5vb9KsLnB3VS3QAumq8AQ
spDBM4rlQA6XQ8CoPa3BQyPcQByadMCsRJ3B5lH2QPiabD/5obnBNO5YQNYHncCnA4vBAByXQFTP
Jz4Nd6HB0TdVQI3Err+Ymp7BupGXQEJ5k0APJIbBrIrEQM9wnkANqY7Bxe3KQJLHK0AKCIfBFNeW
QJImEEAbCIzBBTVVQDYeg0D51ZXBm/yBQAtRt0CiQ5fBjHLlQGk3QEC5cpnBxvvOQPskrj+X9JfB
LeKEQLz/jEB2SKjBxTq5QA9emkA8YKPBlQuLQP/2CEBNWqDBzgLfQDYmpEAj+MXBwk3+QANPr0A+
PrrB0tcFQfmOgkBtnsLBNjeAQDIMBEBcLLbB6R51QL4VW0A4Z8fBEV+lQP14jkCQg8rBUtfZQPAR
er8SzbfBkv6lQMzgjsAU8ZXBN7HIQNQe7L9UKLDBm7i2QJJLY8B8Zp3B6kfYQHA7zz60I7bBNxuC
QOizg8DBwY/BkkyyQMCDjD36W6XBstF/QLif9r85ZpjBwxC1QE7Bqr+q1abBkrijQDyeEcAgwJ7B
XxvFQLp2dT8P1qzBEU1eQJA4NsCc+JDBk1vuQKWwRUAPJq/BSoq9QC6LWkC8YLzB0AaPQMwYWUDg
nIvBwANuQJ9UekCpfpXBgtS/QBPrXkBwJY3Bm4yDQOwKR0BLa5/BxmvOQObfLUBQJZfB59a0QBLc
S0CGL6HBUFTDQGdeIECZ36vByDgFQU0Dc0A678DBBbnnQIt8akCiHbnBq8emQJ86P0D4ULTBukSu
QJgxXEDOwMbBPoIIQUwlOEAa36rBRQEFQPbfGsC0UYnBy0foQOm/r7+A+77BabS0QLHnrcCA9pTB
Q3XKQMFiOsAKY7HBn0TSQELBdMC0I6LBx/PlQOlfiD/sDrzBASpqQP4/msBpE4rBFbOhQAVT7T6b
eJ7BFc1iQFvNc7+hQJnBh9GFQA+zf0B+n4TBLyeGQDXeFUAtPIrBA7YoQGwTdEDvKJTBuix+QGUM
n0AFw5bBLvHIQOdKkUCq/I3B/b/PQJuLQ0AxFYbBIxR0QCDTA0ALVJ7BpS1mQIehYUCzc6bB+rjw
QF+eOUC8d5jBfwnJQOAE0j/U6JXB/EG8QJghiEBRIaLBxiX+QKfeiEAgO8jB1xgSQe05jUDZg73B
P4YLQfE7M0AV7MLBrc+GQFFdP0CK9rPBJZeQQJbiR0AZVsjBvuXAQDeycUAtrczBNZbcQLThd79n
XrfB9eFaQGziNcCibJHBWFfKQADt6r9m46/BfZp9QJTy9b8TxJjBPDfbQJBi0z6JpbXB4NaAQEk4
g8D1+I/BE2azQMBBnj1tI6XBGBS3QKCIYcA+LZ3BMwK2QARWqb/2qqbBM7ajQACrEMA3v57BXQDH
QCaWdz+/d6zB/7WlQIAIjsCQ2ZXBWHDrQHMtS0Cuvq/BBN+3QLuiUkCPgrzBGZ2RQD8qWECsNovB
GZpvQDoUeUDl1JTB4f7BQD5NYUCKLo3Bw6SDQBrJR0Cg+p7Bxa3PQEVTMEDpQJfBPsW0QCc8TUBI
GaHB0ozCQIOtIEAXzKvBoFoBQUqzdkAOBsLBl7bhQF3IakAk0bnBqXWjQJd4OECnAbTBriSnQDUa
TUBwuMbBsH0HQciqR0BrnKvB/h2+QDS7v8BiGZTB17brQCKIrr/odr7BDmYiQENEJcD+5YzBHMrL
QFLEOcBXKbHB0N5fQLendL+P1ZnBz9fpQEJwiT9da7vBudtmQPfJmcB0WorBCU6iQBMB8T4cUp7B
Om7TQPhYcsDkpaHBEc6IQIBbfUDiEoTBCfuJQJRCFED744nByOoqQPGmcECyNpPB2nV9QDe3nkDt
B5bBaNTJQO66kkCpMI7Bom7TQHKdR0CMPobBPtZ0QKRIBEBOBJ7B4sZkQFByY0Bb06XBtrrxQKXj
PEBf1pjBwOLKQM+/1j8t8ZXBS9S7QJfSiEDiMaLBv/bzQCcjiEDfWMnBn34NQYP3kUBdFr/B4fcI
QbzTOEDcysPBgaaDQNA6NUDkO7PBZAuKQHgVNEAt3MfBIyO4QOgdYkAv+MzBZTTVQPD2nr/o07jB
qMekQAXXlcCyqZXBUUzFQJn5B8C4BbHB7L60QELndMDUqp3BHCrUQD67Fj5QEbfBiE2DQPUjiMBv
8I7BAwq0QF2Jar4RlaXBWICBQGwhB8BCOZjBU2q0QMZtz7+/VqfBO0+jQO4EIsD/AZ/BzjnDQIqQ
LD/jb63BclZjQKj5PcBuOZDBxQrvQNnSMUC5TazB/krHQNbaakDd87nBm1KZQOBpikBa3I3Bniqt
QPzgOkBZ64zB/up4QJewjUBu1JfB3A3GQFCwJEA0IJfBD1WVQHNqgkCDHKLB+c+oQDCcKUD2TaHB
YMXBQPAHDUDqzqvB2QsKQUgIj0CUErjBIgzuQHF+b0ClRrTB64CtQBwBM0AQZbXBhAq9QBgHjUDW
BcPBlCQHQU8FHEA0BKfBLQ8QQDfLG8Bj7ofB2UHiQBjc0L/uMcDB9juyQIdttcAXrZTBdPzFQOAn
TMBubrLBfWfOQFgehcD0zaLB/mLgQPteUT+FHL3BXlBuQKAyncA/zIjB5+6nQMERID6UGZ7BUqZn
QERIkL+pNJnBCA+GQHrxkEDBrYbBQCKzQPY3okAIe47BExbDQEFeOUBSCYbBe4eTQJaWC0CeuovB
XuRCQMfMbkAf8pbBCH9gQBaZrkCWfZjBUa/gQKwiUkBPC5jBfNPSQLGyxj+NZJbBy8h+QCKyg0BD
/KjBNkWvQObDmUA3QqPBa0iOQFOK+D+cJqDB6VsFQV+bpUCfZ77BhjoRQdLFoECyX7HBtsQVQZQ4
cEArRrvB7zqQQH5JJEAnDbjBvHugQABTiUDzgsbBIznSQNO1oUA/D8bBf4HkQPu1pr9+4bbBA2yj
QM/vlMBe4ZTBns3RQKLbCsAzXq/BK2i3QCehc8D7W5zBSCjgQKEWuD1Iv7XBV7J6QLgDiMCOyY/B
0Ea3QE8Jf76nZqXBTBt+QHNtCcBhpZnBO3+6QIaz0r/LoqbBL3ClQJLSIsBTzJ7B/jXKQM+xIz9z
16zB8FZWQHrKP8DTLJLBxOPsQNvVN0AsL7DBu1GyQOQoYEB9C7rB+16SQNXAi0B6Fo/BhsDCQPCa
jUCjY5HBltd/QNzSPkBk4JHBebrMQPWOgUDiE53BiF2JQEXUKEBJoJ3BVca6QMOsKED33Z/BqyrF
QJv3CkBpxKvBu8H5QHAtkUAwEL/BbO/dQNcVb0BlDbjBg2+jQNEwJ0D+QbPBzciZQN6jg0Bs7sHB
7gEJQc1fLkASNq3Bpk/vPxOoH8Db6ovBFUf2QBt72r8VjL3B3FCxQJS3s8BnC5PBbUHVQC1AT8Cw
RbDBX5LUQIvjg8A9QKDBb6jtQCpDPz8At7vBpS9cQJXfnMDtDIrBpAKmQC/SGz7Jo57Bvv5hQIb5
l7/Ed5vBGeeMQGw6kkDzi4bBugiCQNc1pEAs7JPBIFDOQH9JrkDe3I/BqVXTQJI1bkBOCozBQKKO
QJJBDkDVrIzBKDA6QOxhP0DMmZDBEAq+QMtZmUBXbKLBDp7vQCOLgUCwPp7B96Z4QFET0j9gbJ/B
R+pzQLyqWECwzqLBUqTJQAdd9D9MZ5rBO+/lQBM8pECmjsTBRsUGQUGzpkBqKbrBcE0HQaqEd0AL
tsPBH0eFQH7MEUA6LbPBUZd1QNWFeEAIscLBsiCnQCkWmUDV18bBMcj1QNNvlb/1PLPBviGLQGjx
l8AAoJrBAtrfQOq4A8CYeqzBOGmhQBsSeMD3faHBdO3qQKywST4UXLPBP1x0QIOuiMB46JDBAo6y
QG2kbL5GW6bBh8iVQN7cAsCc4ZTBcRC+QDXny79f86XBP9WmQN/5IMDZsp7BXAnKQDAfMT/SoazB
IxZ/QPrcOsCRCI7B9yrlQO26Q0AHd6/BxSOyQCZhU0DSg7zBGvijQLIeikAg8o3Ba1GwQOXaNEDx
gY3B0QKHQGmAk0BoqpfBcFrGQFeXGUCZ85fBeKacQK68hUCbM6LByfOoQEYBK0AC4aHBw2S+QKVF
DEAWsKzBECX3QJX0k0ACqb7BYKPZQOfRcEA0lbjBfk+hQOTOG0DFyrXB+dmeQD+6bUCq+8XBLbQD
QUbrR0DusarBcHJVQMfrFMBj9YHBUIcHQdguxL/8WrjBTAiHQK4fucA70JzB7dnoQBBwRsCARqzB
AGyuQEPqh8DO7KjBqsf7QJB1Xz9xnrjBEyFSQDElnsDUqIvBzVmXQCXP6j1DzaHBteKZQGgzgb+S
pZLBU8CSQPujkkBqkobBkj7BQKWAnUDtko7B1FLGQMlJKkB0xIbB8EKTQNQzDkDrWozBSJFRQOPX
gUDtvpbBr1eAQG4KtkDV+5fBekXkQPXzPUDj3ZjBEaXNQAOUqT+Xj5fBq2eGQNk/i0B/4ajBaMK5
QN/umEDvZ6PBSVuLQMjjBUDiy6DBASbmQJwVokBZgsXBcI4BQZCirUAXcLnBUB0JQeG5gECYksHB
Hr6EQDjt/z+aurbBlEqCQAwuVkD2EcjBTYqtQKEcjECAtMrB

>  <OMEGA_E>  (18) 
MY6IP2DXiT+wR3c/VCd9P9iCgz+miYc/7wGPPw==

>  <OMEGA_NBR>  (18) 
     65624

$$$$
50215995
     RDKit          3D

 46 49  0  0  1  0  0  0  0  0999 V2000
    6.7357   -0.2877  -22.6904 C   0  0  0  0  0  0  0  0  0  0  0  0
    5.2882   -4.4561  -19.0417 C   0  0  0  0  0  0  0  0  0  0  0  0
    6.2462   -1.3296  -21.8962 C   0  0  0  0  0  0  0  0  0  0  0  0
    5.7733   -3.3935  -19.8230 C   0  0  0  0  0  0  0  0  0  0  0  0
    6.5822    1.0429  -22.2785 C   0  0  0  0  0  0  0  0  0  0  0  0
    4.1279   -4.2847  -18.2643 C   0  0  0  0  0  0  0  0  0  0  0  0
    5.4327    0.2960  -20.2708 C   0  0  0  0  0  0  0  0  0  0  0  0
    3.9345   -1.9829  -19.0483 C   0  0  0  0  0  0  0  0  0  0  0  0
    5.5974   -1.0459  -20.6763 C   0  0  0  0  0  0  0  0  0  0  0  0
    5.0978   -2.1498  -19.8352 C   0  0  0  0  0  0  0  0  0  0  0  0
    5.9126    1.3626  -21.0668 C   0  0  0  0  0  0  0  0  0  0  0  0
    3.4537   -3.0480  -18.2659 C   0  0  0  0  0  0  0  0  0  0  0  0
    6.4510    2.9092  -19.1873 C   0  0  0  0  0  0  0  0  0  0  0  0
    4.2508    3.4607  -18.9230 C   0  0  0  0  0  0  0  0  0  0  0  0
    7.0544    4.4936  -23.2923 C   0  0  0  0  0  0  0  0  0  0  0  0
    5.6442    4.0323  -22.8759 C   0  0  0  0  0  0  0  0  0  0  0  0
    7.5892    4.0876  -21.9066 C   0  0  0  0  0  0  0  0  0  0  0  0
    6.1348    4.0236  -21.4123 C   0  0  0  0  0  0  0  0  0  0  0  0
    5.7362    2.8030  -20.5217 C   0  0  1  0  0  0  0  0  0  0  0  0
    5.6583    3.2973  -16.8337 C   0  0  0  0  0  0  0  0  0  0  0  0
    5.5000    3.3684  -18.2926 N   0  0  0  0  0  0  0  0  0  0  0  0
    4.3292    3.0172  -20.1575 N   0  0  0  0  0  0  0  0  0  0  0  0
    3.0893    3.9315  -18.3326 N   0  0  0  0  0  0  0  0  0  0  0  0
    7.6038    2.5742  -18.9371 O   0  0  0  0  0  0  0  0  0  0  0  0
    2.0199   -2.8325  -17.2960 Cl  0  0  0  0  0  0  0  0  0  0  0  0
    7.2330   -0.5090  -23.6232 H   0  0  0  0  0  0  0  0  0  0  0  0
    5.8058   -5.4040  -19.0380 H   0  0  0  0  0  0  0  0  0  0  0  0
    6.3652   -2.3537  -22.2177 H   0  0  0  0  0  0  0  0  0  0  0  0
    6.6655   -3.5265  -20.4169 H   0  0  0  0  0  0  0  0  0  0  0  0
    6.9793    1.8382  -22.8919 H   0  0  0  0  0  0  0  0  0  0  0  0
    3.7539   -5.1022  -17.6657 H   0  0  0  0  0  0  0  0  0  0  0  0
    4.9325    0.5120  -19.3383 H   0  0  0  0  0  0  0  0  0  0  0  0
    3.4147   -1.0362  -19.0482 H   0  0  0  0  0  0  0  0  0  0  0  0
    7.4868    3.9220  -24.1268 H   0  0  0  0  0  0  0  0  0  0  0  0
    7.1308    5.5698  -23.5066 H   0  0  0  0  0  0  0  0  0  0  0  0
    4.8457    4.7593  -23.0853 H   0  0  0  0  0  0  0  0  0  0  0  0
    5.3531    3.0457  -23.2656 H   0  0  0  0  0  0  0  0  0  0  0  0
    8.1195    3.1241  -21.8876 H   0  0  0  0  0  0  0  0  0  0  0  0
    8.2044    4.8545  -21.4133 H   0  0  0  0  0  0  0  0  0  0  0  0
    5.8583    4.9629  -20.9110 H   0  0  0  0  0  0  0  0  0  0  0  0
    4.7696    3.7252  -16.3466 H   0  0  0  0  0  0  0  0  0  0  0  0
    5.7735    2.2469  -16.5283 H   0  0  0  0  0  0  0  0  0  0  0  0
    6.5505    3.8664  -16.5336 H   0  0  0  0  0  0  0  0  0  0  0  0
    3.5480    2.8506  -20.7591 H   0  0  0  0  0  0  0  0  0  0  0  0
    2.2354    3.9487  -18.8529 H   0  0  0  0  0  0  0  0  0  0  0  0
    3.1047    4.2541  -17.3862 H   0  0  0  0  0  0  0  0  0  0  0  0
  1  3  2  0
  1  5  1  0
  2  4  2  0
  2  6  1  0
  3  9  1  0
  4 10  1  0
  5 11  2  0
  6 12  2  0
  7  9  2  0
  7 11  1  0
  8 10  2  0
  8 12  1  0
  9 10  1  0
 11 19  1  0
 12 25  1  0
 13 19  1  0
 13 21  1  0
 13 24  2  0
 14 21  1  0
 14 22  2  0
 14 23  1  0
 15 16  1  0
 15 17  1  0
 16 18  1  0
 17 18  1  0
 19 18  1  6
 19 22  1  0
 20 21  1  0
  1 26  1  0
  2 27  1  0
  3 28  1  0
  4 29  1  0
  5 30  1  0
  6 31  1  0
  7 32  1  0
  8 33  1  0
 15 34  1  0
 15 35  1  0
 16 36  1  0
 16 37  1  0
 17 38  1  0
 17 39  1  0
 18 40  1  0
 20 41  1  0
 20 42  1  0
 20 43  1  0
 22 44  1  0
 23 45  1  0
 23 46  1  0
M  CHG  1  22   1
M  END
>  <OMEGA_C>  (19) 
lYrXQGpIk74JhrXBzzipQGSYjsBuVZjBmuDHQKQvqr9+K6/Bsb64QCAvWcCZlZ7BIaHSQPp8hT9Y
OrLByheEQGUcicA8HZLBstitQIaRlz6bKqLBEs97QKrQ/b/UYpjB+h2zQFPfhb8gaaXBDCGjQECW
CcB0rp7BtzO9QBZprj/iiKjBrAldQOURQ8CdIJLB6G7OQDswOkCHf5nB8AaIQCx8XUBmYpfBUb3h
QM3Lj0C0VrrBVJ20QH0IgUDhAbfBmNryQLnNgkC2QK/BqlDEQBzBgEBwTKvBFo+3QCBkM0B8LKTB
fRC1QA0HU0Bhq4bBsv+vQFeUV0BCV5LB8IiKQJEaQUCaQqHB6LZFQKide0AwqZLB/FHzQEzAJEAj
f5fBTUYBQDBINcAeXorB23TnQD9OAr9X/LzB3si5QH3trMC5TZjBh6/LQIOjFsDkvbHBwUvVQBKy
YcDNVaPBElbfQIpI6z+WIrfBd0BwQFZFo8BvU43Ba9edQBIQAz/HtJrBM4taQC+jhL+rYpjBgJPv
QGoCe0CmA8HBgS/kQDI8skCCDbzBTRCbQIlMmECzrrjB7kyrQB7sQkDzH7rBSekBQXbwR0C3Ga/B
VkUDQU5Ym0B/TqvBQHe7QLLPnkDTSafB4aCYQDZqbkDixYLBtcC4QH7MD0DpOYTBuZ3RQDFzd0Df
RITB8RFjQHNvNkCWEqbBhREPQMC3fECl0pbBArRGQIYhiEDwFovB9azKQIhDo77EPLbB7JtyQBon
bMBTeJPBtwa5QFqZq78hHbDBwEF5QEfQH8D0dpnBTrPLQMfLez9VNLLBiuucQCuxkcBoeJLB9JWm
QEIThz7TE6LBruvGQADlQ8D7lJ3BXsKoQPlgiL/F3KXB92OjQLAzDcDcvJ7BqD+4QFvdqD9US6jB
GB/EQP3XhsDJU5fBnMjLQORxMUCGsJjBANyIQNkna0Aq45fBxpbyQMAFhUAxm7jBFgvCQPkMgkDO
ZbbBxO37QG5jc0As5KzBMh7MQNwtfECPU6rBopW3QPrfMEBnv6PByjqyQMOBYEBUjIbB+QuvQCbP
XECJQ5LB3EiLQB0KSkDkiaHBkplKQGisikAg5pPBzsvtQEDjEEAc+JXBhCjyQIFLpcCDNJXB/4fX
QJ8HCL88E77Bwtk2QENofMAHoo/B1tC3QDYyFsD+PLPBUbNDQCqo6L/2/5nBTLLbQMik4D9dvbbB
AhKaQH0Xr8AX/I3BZY+XQJyu9D7SfJrBrJrkQMaXNMB3kqHBIHL+QECXWkAvZL7Bm4T9QBUepUCs
+LrBaOevQHHtnkA6lLjBQ3SyQEt7S0CH4rnBdGEEQWODMkDXtqvBujgIQUn1kEAGu6jBOOTFQKu1
nEBIRqbBVJ+XQEVkg0CuVoPBKqSwQAJKH0AcQoPBqtHQQFs0fkDPRYTBu2plQCkaQ0CZlqbBlm0W
QFgXjkD9c5jBT2tLQPl8lkABd4zB/kbtQLCXsL6y4LDBMoQ8QP5SO8Cfj5XBYMfVQPV4rb9c2KvB
LPBmQKIN9L+DOJvBHifkQP6Ifz8Osa7ByjdnQFVHhMCRQpPBqT+rQB4Vqj4ZkaLBaIuzQHJKU8CR
N5zBxju1QNn/gr8kdqTBAVyeQGKmBcA5mp7B83TBQFGdrj8c86fBAD+eQLI2isCVmpbB3GHQQMKF
W0AD/JzBkyCKQKL0W0Bto5fB9GbQQGoEgEAs97/B3IGtQJJgRUAJUbvBZQnhQLkXiECCi7TBbk+1
QBKRcECfQbDBLBa1QDYLNkAK9qXBMgfBQLDhiUA+YYrBSfGzQFx6dUDDD5XBrj2JQI5aPEAyaaHB
GQNNQDDuY0CBBpHBYoL3QOgJYUDLt5zBAAi5QJHnucBnyZPBDTYDQcKxGb8IcbbBGF72P781MsAH
+5LB6oXcQAcMGcA7m63BiQhGQP+ne7+v/ZzBhdf3QLCb4j9iMbLBy5JGQIZXncBn7o7BAVOSQM2y
FT/V7pzBHUrUQDqLXMD8uZ7BpFrnQChEX0BzO8XBBQ3EQIG7nEDzAsTBZ12NQBrgT0C/p77BTjC1
QNq0AECulLvBr3L8QJ8daEASObLBvy7oQHjOqUDhwLLBIlCfQEJpk0DiKK/BfXCkQOAekkBarYXB
J/rSQFfvYECuQ4bBpHHVQN5apkBOOovByShdQLroKkCqQqXBGH4TQEj/UEBTnZPBDltTQJ6XfECZ
r4nBy5biQBFmgr8gXrbBxuCmQD5pkMBVp5TB2LvQQIBY97/MD6/Bx7i4QHIiaMDtMJzBxAnbQBTD
uD6/NrXBdsh/QJNVhsCRl4/BlOCuQEwPtr18kqXBtI54QHMkB8ClopnBipi2QP9avL+ImKbB1Jaj
QJKoGsD6wZ7Bdn3BQG0GWD/ys6zBuUZVQOW7P8AvFJLBEX+iQIA+OkDMEbXBx9zkQCsIeUA+D7TB
iEShQMTqa0Bf2JHBNZOgQGV/hkCcd53BVYi7QBKDIECaNpbBuRiiQOi4LUBuyKDBZkS6QIvhFkAH
aavB+ji1QBVckkD/mcPBJTm9QIKFeECFYrnB9OfjQOVxQ0CW8KvBtAoEQdCAlUAwvLbBafN9QCDg
JEAHR7jBmOzoPwNjJsDo14vBxSj2QM1ZsL9W4rzBnyC3QFfyrcDqv5LBZwPXQMBKP8BV7K/B5KrW
QJrVd8AqCKDBBNToQLgdhz8P3LrBuppkQMQanMAqzonB8lyaQB4EiD5LOZ/B2opXQE7FmL9mjZvB
VEqyQBaaikCTIIzBxcqBQCSfWkBEjY7BVjqDQBqVl0DCyJ/BkK28QAl4mUCX1J/B5ineQGErLEAY
0JbBbOe1QCLcxT8UMJLBoVGCQEePD0BCc6DBJiTPQKJbqUBOJsXBYga0QOB5dUBzHsrBNYSWQDR7
o0CrKsPBYRL8QOooOkBg06bBwGwRQaS8k0B2X7LBQ1MDQdQ9qUCPBb3B7BvEQGXaib8c8bnBIduk
QPn7lsCE9pbBRaa3QE6h/r8S+bHBx/OwQJ1UdMA9E5/B+9rGQNBFlz61mbfBRyqJQK2eicAEuo7B
dGWxQGtXIL62N6XBlYWFQHHxBMB0sZbBBkeuQPlzxL9LhafB+GyhQKU0H8CgAp/Br3m8QMfBRj+x
Qa3BsQFzQAG5PsDZmI7BMaW0QB3oR0DfabTBn6f6QI+qYEA0u6/BlTyYQO4+dkBWKJPBQambQK1G
hkC0H5/BxK63QLBELUAFppXBc7CiQMHEK0Ap9qDBgPK/QNGwEUDLq6rBUxfeQJ7Ul0D6/7/B5NXY
QNLteEBbgLbBLEntQKk0J0DSzajBcxISQQFdgEA9C7DBw3iSQCnuSECUPbnBTPUtQIBwHcBQbITB
9ZfLQNI3t7/Q4sHByNWwQExmt8CJDpfBHzq1QG2gQsAy17PBPi3GQCuThMCxYKXB+fLQQEj+fD+2
ur3BeuB/QDnGn8BvgojBujirQE3eQz5fL53B5dRyQIdriL/RkZbB836kQAPEk0AArI3BwaBwQNGO
YUANgJDBOZZ8QKlbk0AFtaLBMwK3QNW3mkCSQ6HBWK/ZQChzP0BXhpXB6ROzQFSO5T9n45DBj12E
QOYECEBQ+aDBpYL9QFSop0DStL/BKvzbQN8UhEDsQ8fBy7HEQM0ysEBwIMDBX23/QKCPDUDEC6PB
XfYcQSwXbED5x6rBwxkWQa01lkAQiLXB

>  <OMEGA_E>  (19) 
1isVPwKCNj+kwVo/vveBP9OChT8=

>  <OMEGA_NBR>  (19) 
     69917

$$$$
50216010
     RDKit          3D

 42 45  0  0  1  0  0  0  0  0999 V2000
    6.5547   -0.2759  -22.7241 C   0  0  0  0  0  0  0  0  0  0  0  0
    6.0675   -1.3170  -21.9304 C   0  0  0  0  0  0  0  0  0  0  0  0
    6.4826    1.0440  -22.2677 C   0  0  0  0  0  0  0  0  0  0  0  0
    5.3498    0.2954  -20.2403 C   0  0  0  0  0  0  0  0  0  0  0  0
    3.9420   -2.0829  -18.9860 C   0  0  0  0  0  0  0  0  0  0  0  0
    5.7870   -3.3989  -19.8685 C   0  0  0  0  0  0  0  0  0  0  0  0
    4.3211   -4.3980  -18.3435 C   0  0  0  0  0  0  0  0  0  0  0  0
    5.4880   -1.0458  -20.6733 C   0  0  0  0  0  0  0  0  0  0  0  0
    5.0687   -2.1773  -19.8241 C   0  0  0  0  0  0  0  0  0  0  0  0
    5.8600    1.3573  -21.0307 C   0  0  0  0  0  0  0  0  0  0  0  0
    3.5623   -3.2127  -18.2451 C   0  0  0  0  0  0  0  0  0  0  0  0
    6.4500    2.8649  -19.1320 C   0  0  0  0  0  0  0  0  0  0  0  0
    4.2469    3.4421  -18.9447 C   0  0  0  0  0  0  0  0  0  0  0  0
    5.9072    4.0570  -22.8803 C   0  0  0  0  0  0  0  0  0  0  0  0
    5.8907    5.1703  -21.8320 C   0  0  0  0  0  0  0  0  0  0  0  0
    6.5114    3.8066  -21.4823 C   0  0  0  0  0  0  0  0  0  0  0  0
    5.8057    2.8046  -20.5063 C   0  0  1  0  0  0  0  0  0  0  0  0
    5.5612    3.1983  -16.7888 C   0  0  0  0  0  0  0  0  0  0  0  0
    5.4118   -4.4736  -19.1402 N   0  0  0  0  0  0  0  0  0  0  0  0
    5.4103    3.0964  -18.2474 N   0  0  0  0  0  0  0  0  0  0  0  0
    4.4084    3.1988  -20.2285 N   0  0  0  0  0  0  0  0  0  0  0  0
    3.0813    3.9162  -18.3605 N   0  0  0  0  0  0  0  0  0  0  0  0
    7.6149    2.6070  -18.8511 O   0  0  0  0  0  0  0  0  0  0  0  0
    2.1472   -3.1563  -17.2281 Cl  0  0  0  0  0  0  0  0  0  0  0  0
    6.9871   -0.4903  -23.6903 H   0  0  0  0  0  0  0  0  0  0  0  0
    6.1350   -2.3362  -22.2814 H   0  0  0  0  0  0  0  0  0  0  0  0
    6.9070    1.8372  -22.8653 H   0  0  0  0  0  0  0  0  0  0  0  0
    4.8544    0.5106  -19.3051 H   0  0  0  0  0  0  0  0  0  0  0  0
    3.3824   -1.1620  -18.9146 H   0  0  0  0  0  0  0  0  0  0  0  0
    6.6585   -3.4726  -20.5021 H   0  0  0  0  0  0  0  0  0  0  0  0
    4.0247   -5.2640  -17.7702 H   0  0  0  0  0  0  0  0  0  0  0  0
    4.9691    3.5613  -23.1705 H   0  0  0  0  0  0  0  0  0  0  0  0
    6.5659    4.1376  -23.7575 H   0  0  0  0  0  0  0  0  0  0  0  0
    6.5369    6.0516  -21.9571 H   0  0  0  0  0  0  0  0  0  0  0  0
    4.9400    5.4753  -21.3701 H   0  0  0  0  0  0  0  0  0  0  0  0
    7.6106    3.7879  -21.4451 H   0  0  0  0  0  0  0  0  0  0  0  0
    4.5789    3.3848  -16.3302 H   0  0  0  0  0  0  0  0  0  0  0  0
    5.9763    2.2582  -16.3967 H   0  0  0  0  0  0  0  0  0  0  0  0
    6.2417    4.0283  -16.5479 H   0  0  0  0  0  0  0  0  0  0  0  0
    3.6878    3.2706  -20.9180 H   0  0  0  0  0  0  0  0  0  0  0  0
    2.2775    4.1001  -18.9263 H   0  0  0  0  0  0  0  0  0  0  0  0
    3.0449    4.0740  -17.3737 H   0  0  0  0  0  0  0  0  0  0  0  0
  1  2  2  0
  1  3  1  0
  2  8  1  0
  3 10  2  0
  4  8  2  0
  4 10  1  0
  5  9  2  0
  5 11  1  0
  6  9  1  0
  6 19  2  0
  7 11  2  0
  7 19  1  0
  8  9  1  0
 10 17  1  0
 11 24  1  0
 12 17  1  0
 12 20  1  0
 12 23  2  0
 13 20  1  0
 13 21  2  0
 13 22  1  0
 14 15  1  0
 14 16  1  0
 15 16  1  0
 17 16  1  6
 17 21  1  0
 18 20  1  0
  1 25  1  0
  2 26  1  0
  3 27  1  0
  4 28  1  0
  5 29  1  0
  6 30  1  0
  7 31  1  0
 14 32  1  0
 14 33  1  0
 15 34  1  0
 15 35  1  0
 16 36  1  0
 18 37  1  0
 18 38  1  0
 18 39  1  0
 21 40  1  0
 22 41  1  0
 22 42  1  0
M  CHG  1  21   1
M  END
>  <OMEGA_C>  (20) 
PcDRQBBIjb4My7XBNSnCQOCUqL9zca/Bg3HPQEOhhT9EJLLB4DGrQCQ5lz4p7KHBdUp8QIpOBcBQ
45fBby+5QCaHWcCy8p7BYUaKQJe8jMBqv5LBcp2vQF3dhb/bYqXBlzKiQJhYC8DXl57BLYW7QGG6
rT/gPqjB8vtjQJqcTcDo9ZHBu2bOQPRZN0BfDpnB+uaHQJ5LXEC2jpfBYwe9QPvSgUDGCrfBOoC8
QEJzpUDkp67BmF3QQFKfc0Cp26vB8Me5QER/M0DcDKTBZvWxQIKxTECIT4bBXS2tQPInj8AaH5nB
xSCtQOQqRkCV+pHB/xGNQOK5TEDf06HBjjNFQJCiekBe4pLBb63zQEzZJkD7zpbB2WsJQIgBSsAV
04nBGZbfQAEP+77Hhb3BGVLEQLWDFcBoQLLBJAbdQAUp6z8i7LbB/VabQN21Aj/icJrB23lYQH27
lL8bUZfB1xLVQEc+XsBMBKTBpsqAQKRyqMBPKY7BkwKfQObrY0AyXbnB8xvSQINnhEBYD77BDC7R
QBynwUAuqK/BrRSeQIw1r0AJ9qrBW4rzQEJtckCZj6vBq4aSQNmgWEAupILB1T2/QMqFEEBoLIPB
WbzHQL/ngEAdYoTB3ARsQLBRUUAfWKfB4sERQL4zg0ADaZfBMd9CQAJegkBn/YrB3kTVQNxOg74s
r7XBO73FQKexo79DH6/BpI3RQJaIij+NhLLB55quQJ5+wj4AE6LBxWS1QLCgVMBWlp7BQmd6QBpG
779g1ZfBzRCAQKMXg8CK8JHBVR6yQJwyeL/QRKXBLIahQLW6A8DFcZ7B8z++QC42tz//o6jB+XCk
QDQti8C/SpjBmSTQQMb+PkDjnJnBbJWIQCJlWUCXepfBsuvmQBsWiUB8FrTB8jq3QGpIhUD4ZLfB
/+TDQE+AhEC/i6vBq8K5QFqHOED7ZqTBEje1QMb+T0DhtIbBHVtaQC8YOMDEyJHBd4SwQOSBVkDD
YZLB2ZCMQBL/REC+nKHBns1DQB4JbEARlZLBoM30QO3OKECqepfBxYy8QNp6vcBTXZjBIjPkQKjV
/77COr3BisbIQGXFE8AEm7HBRZjdQNRH7j/nr7fBp8OfQDv+HT9+gZrB5E/RQE+5X8DCfKPBq95b
QEmcZr/rm5fBlO9lQO2InMBTGI3BHh79QEv0XEB8orXBhej3QJ+sp0AFDbXB8VemQJgroUBvtrrB
iY2rQD3yT0DmS7vB4eK8QKXBokBNZ6fBm76XQACUZkApz4LBMBK7QBXkDEAHfITBJFvQQH+id0Dm
FoTBeVVoQBTMPkDtuqbBfIwNQEdiakAd0pbBKDxCQDcje0CIz4rBfmjVQG4aN78wT7fBJEDGQKlx
1b8286/BDjvQQCpfKD+dQbXBwuGsQLCoAz7SZqTB6yx9QJ0V+7/+75fB6qC2QHAZYMB0bp3BXvmG
QGcAhcC16Y/B2uOxQPgioL/paabBrimiQGO0D8A+iJ7BNhm7QNs6jD/33KvBod9hQE53O8C4kJDB
1zSwQObiWUDTr7PBG6TvQCOfgEBV06vBD2+YQC71NEB6bJXBHWSQQBy2hUDA8ZrBCQCRQFbNOEBH
mKHBLJ62QFItJkCXfanBWFvdQJ3nokDPrr3BKQ2pQBmNjcBfQpbBs+zSQGGmiECwP7TBjM3fQOKc
RkAnYqXBiGULQQnVlEBlR6rBxsmSQJbeUkATILrBrdAJQIRtJ8DiU4jBJBPlQGQMhb+Mj77B3SzK
QBQiLsCGlrHB9HLcQLQRsT8d4brBy/WdQLw85z6tDJ3BU1NcQOfdgb8TkJjBMczRQAG+bsCpcqLB
+uh4QBLNnMAKOorBbWG4QHmsJUDSQpLBlrZ/QFQ1GUA0KpDB7CBkQIfIlkDZn5nBmJaqQBoEnUB3
uJvB7fpiQDQLIkCSS6TBakL6QLvntUDKDLzBVh/jQAnqjUAwmcTBkXjCQPZ/uEClcr/B98btQKzD
MkCyoJ7BymsUQcZVjUC+8aPBmHMQQW/dqkBJgK/BG8XVQIMFOr8bYLfBHMPGQPpc17+LB7DBrkPQ
QLoJJT/tULXBGtasQPDU2T2jfKTBV3u3QHXIYMCpep3BLAd+QASK/r9K+ZfBGzuEQJqNgsDAmI/B
u0CyQDy5or+gfqbBxMiiQBMfEcDHmZ7BJeu6QDjUiT+Q76vB+/6nQJyZjcAE5ZXBZHCvQElsWEBR
xLPBr7DuQOlvgEAx5qvB1MWXQPEaM0AggZXBdWWPQA+7hEBJBZvB2FaQQCfjNkALraHBEwu2QHbg
JEAOkanBTCrcQJyDokDpw73B3ehgQIV9OMBsspDBwu3RQH8ziEAfVLTBAhffQNr9RUD+dKXB9NQK
Qfz7lEBUWarBJRSSQNXXUEA8NrrBIQfBQCodv8B+RpTBOZLlQH/8hb/Bnr7BKunKQG8HL8CArLHB
TGTcQL/Trz+K7LrBxrSdQFbb2T6BJp3Bi9LSQBKQcMDVYaLB9utdQNzBhL9FwZjBHLNwQNEhmcDR
xInBVsa3QO9PJEAQV5LBGJl+QJbyFkDQP5DBUN5hQHaPlUB4s5nB8WipQCI+nEC5ypvBZtlhQAGk
H0B8YaTBHej4QKPBtUCwIbzBfh7iQIyNjUAprcTBPxvBQNvht0Coib/BnyPtQEFhMkBCs57BmeET
QXqmjUDmAqTBPcwPQaoYq0BTkq/BOtTfQCAGZL/5Z7bBiJDKQMgv7b8oF7DBFMrZQADr9z4QVLTB
2PGkQADikb0a2KbBAFKaQACY578s4pTBgDyYQEg9bMBkM6HBOAqIQJQqgcAPBY/BhH+uQJhztr9N
6KfBEDifQDxgFMDSYp/BUAK8QHAAZj98bazBcL6OQAg9K8D1o4zBfNqqQIgASEDLobPBnHjqQPwm
eEBv3azB0JmaQDAkEkAOLZXBWPiVQOi8b0DHwpjBBPyRQPh9J0COBaHBIpe1QCaTF0ACoqnBADTU
QEAml0CxE7/BGruMQHqakMCoHJnBeIfLQEZkgUAI6bTBVKreQNqeO0D/OqbBSC4IQbTIkkAU+qvB
JDmNQG6bOEBkxLnBTGuKQPiGBMAoGn/BabD0QJJHmr+O0bzB667PQGwFOsC4frHB0NbrQLM9nD/V
wLjB3D2LQKTxbj6Im6HBh4CfQFC0Qr8pR5PBVh2cQKPogsArK6nBAet9QEfJlsBHrIjB/wy6QFDB
8j/vt5LBZ3SBQBA+6D8nS5DBoAlzQLVgikDebZbBaB2yQIUBjUCl2pjB5W9iQP8/GkBLx6PBLJzv
QErjrEAFGb7BY6PbQFR7fkAlQ8XBENy3QBqjqUDVf8HB0jzvQLDXKEBNzZ/BplASQdBxjEAV/qXB
+rkLQTCFqUDnUbHB

>  <OMEGA_E>  (20) 
jC0bPxIDHj+iZos/sbOOP0WDlj8=

>  <OMEGA_NBR>  (20) 
     73940

$$$$
50215968
     RDKit          3D

 49 52  0  0  1  0  0  0  0  0999 V2000
    6.7551   -0.2606  -22.6972 C   0  0  0  0  0  0  0  0  0  0  0  0
    5.3542   -4.4452  -19.0393 C   0  0  0  0  0  0  0  0  0  0  0  0
    6.2655   -1.3172  -21.9222 C   0  0  0  0  0  0  0  0  0  0  0  0
    5.8180   -3.3880  -19.8406 C   0  0  0  0  0  0  0  0  0  0  0  0
    6.5864    1.0612  -22.2639 C   0  0  0  0  0  0  0  0  0  0  0  0
    4.1917   -4.2816  -18.2620 C   0  0  0  0  0  0  0  0  0  0  0  0
    5.4227    0.2806  -20.2825 C   0  0  0  0  0  0  0  0  0  0  0  0
    3.9540   -2.0002  -19.0841 C   0  0  0  0  0  0  0  0  0  0  0  0
    5.6040   -1.0516  -20.7048 C   0  0  0  0  0  0  0  0  0  0  0  0
    5.1187   -2.1592  -19.8688 C   0  0  0  0  0  0  0  0  0  0  0  0
    5.9009    1.3557  -21.0579 C   0  0  0  0  0  0  0  0  0  0  0  0
    3.4942   -3.0579  -18.2838 C   0  0  0  0  0  0  0  0  0  0  0  0
    6.4438    2.9186  -19.1823 C   0  0  0  0  0  0  0  0  0  0  0  0
    4.2523    3.5054  -18.9194 C   0  0  0  0  0  0  0  0  0  0  0  0
    7.5398    4.6742  -23.2386 C   0  0  0  0  0  0  0  0  0  0  0  0
    6.2698    4.1317  -23.9104 C   0  0  0  0  0  0  0  0  0  0  0  0
    7.5323    4.1332  -21.8065 C   0  0  0  0  0  0  0  0  0  0  0  0
    5.2464    3.9382  -22.7844 C   0  0  0  0  0  0  0  0  0  0  0  0
    6.0405    3.9804  -21.4502 C   0  0  0  0  0  0  0  0  0  0  0  0
    5.7114    2.7837  -20.5053 C   0  0  1  0  0  0  0  0  0  0  0  0
    5.6822    3.4413  -16.8433 C   0  0  0  0  0  0  0  0  0  0  0  0
    5.5092    3.4365  -18.3010 N   0  0  0  0  0  0  0  0  0  0  0  0
    4.3074    2.9724  -20.1170 N   0  0  0  0  0  0  0  0  0  0  0  0
    3.1010    4.0282  -18.3545 N   0  0  0  0  0  0  0  0  0  0  0  0
    7.5748    2.5250  -18.9174 O   0  0  0  0  0  0  0  0  0  0  0  0
    2.0573   -2.8456  -17.3184 Cl  0  0  0  0  0  0  0  0  0  0  0  0
    7.2626   -0.4634  -23.6287 H   0  0  0  0  0  0  0  0  0  0  0  0
    5.8893   -5.3831  -19.0199 H   0  0  0  0  0  0  0  0  0  0  0  0
    6.3940   -2.3364  -22.2559 H   0  0  0  0  0  0  0  0  0  0  0  0
    6.7103   -3.5142  -20.4359 H   0  0  0  0  0  0  0  0  0  0  0  0
    6.9854    1.8696  -22.8586 H   0  0  0  0  0  0  0  0  0  0  0  0
    3.8344   -5.0953  -17.6482 H   0  0  0  0  0  0  0  0  0  0  0  0
    4.9107    0.4802  -19.3528 H   0  0  0  0  0  0  0  0  0  0  0  0
    3.4169   -1.0634  -19.1003 H   0  0  0  0  0  0  0  0  0  0  0  0
    8.4340    4.3226  -23.7740 H   0  0  0  0  0  0  0  0  0  0  0  0
    7.5262    5.7741  -23.2303 H   0  0  0  0  0  0  0  0  0  0  0  0
    5.8918    4.8517  -24.6511 H   0  0  0  0  0  0  0  0  0  0  0  0
    6.4794    3.1721  -24.4056 H   0  0  0  0  0  0  0  0  0  0  0  0
    8.0439    3.1606  -21.7572 H   0  0  0  0  0  0  0  0  0  0  0  0
    8.0234    4.8409  -21.1225 H   0  0  0  0  0  0  0  0  0  0  0  0
    4.4998    4.7457  -22.8073 H   0  0  0  0  0  0  0  0  0  0  0  0
    4.7403    2.9677  -22.8942 H   0  0  0  0  0  0  0  0  0  0  0  0
    5.7371    4.8974  -20.9238 H   0  0  0  0  0  0  0  0  0  0  0  0
    4.8041    3.9058  -16.3708 H   0  0  0  0  0  0  0  0  0  0  0  0
    5.7880    2.4073  -16.4833 H   0  0  0  0  0  0  0  0  0  0  0  0
    6.5844    4.0143  -16.5832 H   0  0  0  0  0  0  0  0  0  0  0  0
    3.5159    2.7318  -20.6787 H   0  0  0  0  0  0  0  0  0  0  0  0
    2.2419    4.0134  -18.8661 H   0  0  0  0  0  0  0  0  0  0  0  0
    3.1288    4.4204  -17.4351 H   0  0  0  0  0  0  0  0  0  0  0  0
  1  3  2  0
  1  5  1  0
  2  4  2  0
  2  6  1  0
  3  9  1  0
  4 10  1  0
  5 11  2  0
  6 12  2  0
  7  9  2  0
  7 11  1  0
  8 10  2  0
  8 12  1  0
  9 10  1  0
 11 20  1  0
 12 26  1  0
 13 20  1  0
 13 22  1  0
 13 25  2  0
 14 22  1  0
 14 23  2  0
 14 24  1  0
 15 16  1  0
 15 17  1  0
 16 18  1  0
 17 19  1  0
 18 19  1  0
 20 19  1  6
 20 23  1  0
 21 22  1  0
  1 27  1  0
  2 28  1  0
  3 29  1  0
  4 30  1  0
  5 31  1  0
  6 32  1  0
  7 33  1  0
  8 34  1  0
 15 35  1  0
 15 36  1  0
 16 37  1  0
 16 38  1  0
 17 39  1  0
 17 40  1  0
 18 41  1  0
 18 42  1  0
 19 43  1  0
 21 44  1  0
 21 45  1  0
 21 46  1  0
 23 47  1  0
 24 48  1  0
 24 49  1  0
M  CHG  1  23   1
M  END
>  <OMEGA_C>  (21) 
zSnYQC1whb7Wk7XBSlWrQCU/jsCPUJjBQH/IQIabqL+6YK/BXS26QNDUWMB2uZ7BEMTSQCPUhz9y
HLLBlCKGQBcDicB6GJLBjYatQIivjz6XQqLB0g59QLwCAMBRrJjB7FOzQCqchr9ro6XBasyjQMwv
CsBM857BGtS8QDCHrT+EdqjB6qBfQFO1Q8A8RZLBrDPOQKzJOkBydZnB5hKIQIJYYEDrWpfBv0Xx
QE+TlUCN6LnBd6LIQLQ2hECASL/BvQjxQA1DhEC2c67BXeKnQDILfEBpRrbBmUvBQE6/fkD7mavB
ocO2QAMoMkDuCqTBfdS1QNY+XEAVv4bBFUuwQLHvW0B7aJLBitaJQPc7PkCv76DB2HZGQKnmgEAW
1pLBYWTyQAGZIUDrVpfBM6sDQNAdNsAZjIrBnmfoQLlI7b6DB73BEHW8QG9CrMC6KJjBaZvMQNmG
FcAJDLLBnbrWQE3oYMCifKPBK4jfQPBO7z9q3rbB12Z1QF8Mo8B1L43BIiSdQFHb9T560prBKq5a
QB4ciL9RzZjBk/EGQXxSikArMb7BldbwQJLFuECv17nBSYm8QNJAm0CENcXBi1fPQEMDS0CtPsPB
0LMAQdpHSkC9Dq7BB2AAQdnomkDQ+qjBK/6PQKDcl0BjdbbB0rCXQKfuPUBTJ7fBDZa3QHW3nEDj
Y6fBRbuZQFb5eUCA94LBnze5QFERGkDb3YPBobPSQD11gEBaqoTB2ANhQATWLkAPbqXB5XoPQHZt
gEC87ZbB9T1IQCl0jUAYe4vBsT3RQLgClr42/bXB2OasQKwPj8D/GJnBhjfAQGSoqL++xq/BWIW5
QAWSV8CoQ5/BRf/QQDC8gT/RF7LBLQ+JQPPAi8D4WJLBBJWrQAgRmD4L/6HBo6d9QKbyAsAO0JfB
m/GuQILNhL8wmaXBAjaiQBYHCsBAwp7Bb3y8QEw1rD9/QqjBh2xkQHTqScALq5HB17nOQM6xN0BV
D5nBF0eIQJqQXkCOmZfBJLCWQKdDoEAForXBUkWnQBm1u0DkSazB6LO3QEr4eUDZMLfBf8rRQJ7J
p0AGsajBjwTQQPBackA0WKzBi/y5QKrvMkCvHqTBOjSyQOy5UEBBY4bBIBevQFKlVEA2I5LBE/+M
QF7/SUCwwKHBcHlEQOSCeUB98ZLBj6DzQNT9JECqtZbBAM8LQIjuQcB6RInBA43eQCAVAr9Sxr3B
daS+QISrrMCHh5nBfjvAQD4yFcCZwrLBfyTVQDZpXMDya6TBzLHgQM5G5T8moLbBdAN+QF8Ep8CO
q43BkB2cQKC2Az/fd5rBhglbQAmfjr/zN5fBhp5uQO5skkBZprPB6uKTQOu5s0CV7rzBcWasQILd
3EAV867BMR+QQPtXu0DyqKXBWcunQOEmPUC/JbnBPwfOQGeJhUBTpr3BTuTsQNhkuEAheazBRP3U
QAWWqUB/8J/B77fwQCeKW0DI6q3B1P6UQP6ya0Af0YLB49C1QAexDUAN24PBACPOQNTZdUAwt4PB
brRqQL/1SUC4JKfB6XQPQOh3fkCgYZfBhrdCQC76g0AdJ4vBteHMQGzHgL5/wrbBN4StQIrjj8Br
GpnBLR3EQP4KqL/H2a/BYOS7QEp3WsBVSJ/BL2/GQL3ehz9jS7PBwcyJQIX5isB1WJLBxPyvQCy1
iD5RzKHBK+CCQG0pAcDj4JfBICm0QLVVh7+ZfaXBAommQNDtCsA0tp7BDnK6QE/2qz+UhqjB/CJp
QC6QRsApupHBvfrNQAKwN0CDHZnBCwyIQPCGYUDcjpfBs5HgQIghvkAnRLLBOT4AQY7Cm0ATPrbB
6NrEQFxaqEBomqnBOZf5QDL+a0C/yK7BWj3JQMSMckA+ZqzBnQO4QP5zMUCqCqTBKBKzQFSrVkCc
dobBbCSvQPx8V0DUMpLBP0+LQG77RkBsg6HBprVFQNTVgECGCJPB3ffxQNA2H0AErpbBTCYQQFkj
OsAhdYnBSpbYQAdT477vvb7BBdi9QONMrsBbiJnBlonJQOUVFcC0brLBp0XXQB33YcB/eKTBlJrK
QJQs8D8+3rjBv1B9QImxpcBQoI3Br7akQIca6T5UxZnBZ0NlQFaOiL/dY5fBuPTxQNl92UBP1q7B
VFjMQN03yUD/6bjBen35QBy/kkA9kb7B8soQQYyFp0AWrbXB+0XRQED8rkCjiaHBglKjQNXbskDg
HarBUb4AQW8gL0C4vbLBcVgGQT96ckDbb6fBwP63QBJCZ0Co8LPBAViWQHuPc0AD4oLB6VS2QLVA
FEBMqYPB9XvPQHOSe0AuE4TBBLdlQPUfQkBXo6bBvEoQQPLpgkCmaJfBinxFQLBYikAXZYvB9ujr
QFZ2sb7cRLHB8cY6QFzuOsDgv5XBwozVQLkmrr+C6KvBFVNmQG6s87/oUJvBvy3iQLj/fz90Ra/B
O6JkQPFEhMD3aJPB+t+rQCxwpj6JZ6LB4OSyQNglVMBHMJzBeG+1QFjtg7+wZaTBXS2eQEgHBsAB
lZ7BNjnBQJTTrT/Y/6fBcA+dQNSDisBVo5bBXYrQQMD4V0AKkZzBpfeJQIBJW0DokZfBhLPgQL5P
l0BrY77BgxLGQOAJZkAsRsPBYmHjQPqEjEBJf7LBbVOmQNpKSkBWgrrBuAC3QNguckDs16/BwHe1
QERrNUCTw6XBaKDAQIDsiEApIorBcdKzQOaqc0Ah1ZTB7XCJQB7AO0CeWKHBVwJMQKgEZEC4GJHB
A7T3QLbhWkDpB5zBtUm3QFlyusCzvpPBxlMCQR44Gr9i8bbBeYLyP/5bMcCsRZPBU+LcQB9gGcC4
ha3BBBVGQOaVeb/mGp3B3v/zQLIn4z8GUrPBHDNDQNY8ncA9JI/B0OaTQEsNFD8ohZzBq6rTQAQD
XsBto57BkWoAQag9mEBy+cHBos3QQLpYtkAil7/BCLa0QKn8fEAbX8rBItvaQIotMEAjicXBHwH9
QONSakCj+rDB9i/pQLqHqUDBuq3BNxGGQKJiYkCYVbzBLnalQFAWBEBH5LnB8rehQNsplEBxBa7B
QfmjQLoFkkBOjoXBfKnRQBdZXkA96IXBGNHVQFrXpEDg8orBn+BdQPFjKkD9RKXBWJsSQEO/UUBZ
zJPBRblRQEyQfEAwvonBis7qQI4Lpr7DwLHBBcKeQIlHisDfdJbBiabVQLpKrL8UKKzBt1K0QKTo
U8ChJpzBhU3gQAiugj+T2K/BU1VoQKP6g8AxIJPBiwmsQOtvqD4UhqLBQwNpQFu8878nMJvBawG2
QOg0g78ngKTBD2KfQErqBcBkjZ7BGS7AQB8Urz/VVKjBJh4+QGeZOsArf5XBHk/QQImyV0A+2pzB
1PiJQHK5W0AeqJfB75qnQCoCu0DPc7nBFPDWQOP3rkAuT7vBhE6XQF5unUBwe7DBG9DhQLeljkA/
kLLBqMS2QDj7bkDPbrDBLLS0QJTXNUBU+qXB6kjBQOn/iUD+gYrBd/azQOyjdEB1G5XBSfSIQM7j
OkC2W6HBophMQMMpZUDUG5HBAYT3QEShWED9WpzBUrSoP8DTKsACbZHBbJsBQb+hEr+1ibfBweWu
QCP2p8B1o5TBtJLdQHpGGMBwtK3BtPjUQDbaXcCLsp7B1eXwQFBr5j8AKLTBLV9HQDTQnMCUwI7B
QqaUQH2SEz+JepzBdWpIQGCwer/dAJ3B2P6kQNuz3ECw/bbB4PaUQEfntUClzsDBbhzbQMuFoEAZ
RMPB/3PrQJ5wy0COn7rB7MSXQBAarkCHu6jBazNtQGdmkkA+NbLBikv6QEDXb0B6VrXBQj3tQLf0
nkCVTqvBiZevQJS/RUASVrfBSN+kQACJk0Bx5IXB7FzSQFPaYEDEOYbBYpXWQOS/pUC2fIvB0Klc
QAnqJ0AuHKXB0QATQNNtUkDosZPBReRSQPyufkCI0InBawPrQHyzq75cj7HB4lM7QCS7OsAvs5XB
aE/VQHZMrb/HD6zBGKNmQGqa87/DUpvBJr7gQMFxgT8opa/BMmJlQBYShMAUU5PBy5urQGL4pj7w
gqLBNSKzQFvfU8BOMZzBHFq1QOujg79yfqTBoFGeQMjoBcAVnZ7BKlDAQMparj+MOajBxWidQLxN
isDik5bBj2rQQIrQVkC7qZzBpeSJQPyIW0D7opfBZFOpQDYVu0AiUrnBH6zYQFHQrkCqDrvBgH2Y
QC+EnUBnabDB0f/iQMJWjkBTTrLBFL23QHzQbkBMTbDBLBG1QCqLNUB83qXB59zAQJRfiUAVVIrB
SduzQMnfc0Bw+ZTBsCaJQBETO0DeW6HBjf5LQMsnZUA/K5HBepr3QGA7V0B8EZzBALe3QHwkusD+
oZPBr9MBQX5VFr/4RbfBM67zP+0tMcD/NJPByArdQDXcGMCena3BujlGQJwGer/BI53BpcDxQA3w
5D824LPBLSdEQFv6nMBbAo/BLfeTQLaeEz9yiZzB69/TQLy/XcD5qp7B0simQNvE3EAf2bbB4/mW
QC8jtkBjusDBrR3dQHtvoEAxA8PBFk7tQFwry0CXS7rBqbeYQCkdrkDQpqjB+ZhvQByukkDSOrLB
6Hb7QJoAb0BJCLXB3zfuQDuBnkBnAqvBLL2wQBnHRUAfPLfB+1SkQDkEk0DixYXBa53RQH1CX0CT
B4bB0V7WQB4BpUDMOovBdjpdQIiiKECGMKXBS34SQD3cUkDF1ZPBAeFRQApefkBL2onBpg/sQDLp
q74zWLHBY6WBQEA5jMDRAZ7BvgnWQKK9rb++9avBfBWYQKjdV8AwgKPBQsLhQNtRgT+Waa/Bn0ti
QEJGhMB3tpPBlo2rQBw/oz7rlaLBCLCNQLPe7r9UVpTB7aS1QMKkhL+9f6TB7U2eQOGuBsAjtp7B
OM/AQPXarT+ZIajBxUpuQMX5N8AJ5I7BfWzQQDAiVkDbcZzBv6mJQIwUW0Deo5fBdwarQNhgu0A+
IbnBi27aQFsJr0BFubrBxKaZQIarnUAVUbDBzDjkQKxdjkDG+rHBmc+4QO/3bkAFJrDBb4C1QJRQ
NUCMwqXBAAPAQLrHiED3IIrB4IOzQG8Yc0DE1JTB6l2JQLcNO0D3YqHB6+pKQDejZECAR5HBuJP3
QORXVkDUuJvBdI9FQLnTI8A7IILBdn4CQRnKFb+k/LbBnSZ6QD8lq8BWsaHBLN3dQIsGGcCJha3B
1JukQFZJZMD9ZqvBkSbzQGQJ5T8XhrPBhMo/QKkSncAdhI/BRi+TQOIFET/EyZzBJ16SQA1tZ79e
l5DBPW2oQNkE3UBYn7bB9w+ZQICgtkCemsDBXETfQFjOoEBlrsLBhxXvQIVUy0Cd27nBf36ZQH4c
rkAmiajBnxNyQDHxkkA4QrLBrcj8QP4Pb0AUp7TBNRXvQNFcnkBGoKrB5SOyQK07RkAZIbfB5EWj
QPBrkkDMp4XBcHrQQAjaXUB6zYXBrqHVQBNfpEDX7orBqvtdQIgFKUDqUKXBiaIRQF+jUkBdDJTB
9SNQQCeCfUDi74nB

>  <OMEGA_E>  (21) 
cG0WP/7WJT88Jiw/VkBZPwI4aT+QT2o/8q1xPw==

>  <OMEGA_NBR>  (21) 
     80099

$$$$
50215985
     RDKit          3D

 43 46  0  0  1  0  0  0  0  0999 V2000
    6.6673   -0.2625  -22.7055 C   0  0  0  0  0  0  0  0  0  0  0  0
    5.1628   -4.3908  -19.0434 C   0  0  0  0  0  0  0  0  0  0  0  0
    6.1800   -1.2847  -21.8867 C   0  0  0  0  0  0  0  0  0  0  0  0
    5.6762   -3.3349  -19.8156 C   0  0  0  0  0  0  0  0  0  0  0  0
    6.5546    1.0761  -22.3082 C   0  0  0  0  0  0  0  0  0  0  0  0
    4.0169   -4.1903  -18.2529 C   0  0  0  0  0  0  0  0  0  0  0  0
    5.4643    0.3748  -20.2520 C   0  0  0  0  0  0  0  0  0  0  0  0
    3.8927   -1.8723  -19.0092 C   0  0  0  0  0  0  0  0  0  0  0  0
    5.5712   -0.9760  -20.6535 C   0  0  0  0  0  0  0  0  0  0  0  0
    5.0446   -2.0674  -19.8072 C   0  0  0  0  0  0  0  0  0  0  0  0
    5.9491    1.4269  -21.0748 C   0  0  0  0  0  0  0  0  0  0  0  0
    3.3826   -2.9327  -18.2360 C   0  0  0  0  0  0  0  0  0  0  0  0
    6.5061    2.9986  -19.2073 C   0  0  0  0  0  0  0  0  0  0  0  0
    4.2700    3.4028  -18.9334 C   0  0  0  0  0  0  0  0  0  0  0  0
    7.2232    4.2759  -22.5031 C   0  0  0  0  0  0  0  0  0  0  0  0
    5.7411    4.1459  -22.9441 C   0  0  0  0  0  0  0  0  0  0  0  0
    6.1101    4.1342  -21.4554 C   0  0  0  0  0  0  0  0  0  0  0  0
    5.8011    2.8820  -20.5520 C   0  0  1  0  0  0  0  0  0  0  0  0
    5.6707    3.2654  -16.8425 C   0  0  0  0  0  0  0  0  0  0  0  0
    5.5210    3.3713  -18.3016 N   0  0  0  0  0  0  0  0  0  0  0  0
    4.3896    3.0727  -20.1978 N   0  0  0  0  0  0  0  0  0  0  0  0
    3.0629    3.6927  -18.3173 N   0  0  0  0  0  0  0  0  0  0  0  0
    7.6561    2.6641  -18.9443 O   0  0  0  0  0  0  0  0  0  0  0  0
    1.9589   -2.6900  -17.2571 Cl  0  0  0  0  0  0  0  0  0  0  0  0
    7.1329   -0.5056  -23.6492 H   0  0  0  0  0  0  0  0  0  0  0  0
    5.6479   -5.3556  -19.0570 H   0  0  0  0  0  0  0  0  0  0  0  0
    6.2702   -2.3144  -22.1997 H   0  0  0  0  0  0  0  0  0  0  0  0
    6.5580   -3.4909  -20.4193 H   0  0  0  0  0  0  0  0  0  0  0  0
    6.9355    1.8546  -22.9525 H   0  0  0  0  0  0  0  0  0  0  0  0
    3.6230   -5.0013  -17.6583 H   0  0  0  0  0  0  0  0  0  0  0  0
    5.0060    0.6116  -19.3031 H   0  0  0  0  0  0  0  0  0  0  0  0
    3.4042   -0.9091  -18.9932 H   0  0  0  0  0  0  0  0  0  0  0  0
    7.9248    3.4469  -22.6773 H   0  0  0  0  0  0  0  0  0  0  0  0
    7.7511    5.2338  -22.6203 H   0  0  0  0  0  0  0  0  0  0  0  0
    5.2165    5.0114  -23.3750 H   0  0  0  0  0  0  0  0  0  0  0  0
    5.3903    3.2245  -23.4320 H   0  0  0  0  0  0  0  0  0  0  0  0
    5.8761    5.0822  -20.9487 H   0  0  0  0  0  0  0  0  0  0  0  0
    4.7533    3.6233  -16.3523 H   0  0  0  0  0  0  0  0  0  0  0  0
    5.8473    2.2151  -16.5674 H   0  0  0  0  0  0  0  0  0  0  0  0
    6.5238    3.8783  -16.5161 H   0  0  0  0  0  0  0  0  0  0  0  0
    3.6244    2.9659  -20.8326 H   0  0  0  0  0  0  0  0  0  0  0  0
    2.2124    3.6568  -18.8421 H   0  0  0  0  0  0  0  0  0  0  0  0
    3.0424    3.9377  -17.3480 H   0  0  0  0  0  0  0  0  0  0  0  0
  1  3  2  0
  1  5  1  0
  2  4  2  0
  2  6  1  0
  3  9  1  0
  4 10  1  0
  5 11  2  0
  6 12  2  0
  7  9  2  0
  7 11  1  0
  8 10  2  0
  8 12  1  0
  9 10  1  0
 11 18  1  0
 12 24  1  0
 13 18  1  0
 13 20  1  0
 13 23  2  0
 14 20  1  0
 14 21  2  0
 14 22  1  0
 15 16  1  0
 15 17  1  0
 16 17  1  0
 18 17  1  6
 18 21  1  0
 19 20  1  0
  1 25  1  0
  2 26  1  0
  3 27  1  0
  4 28  1  0
  5 29  1  0
  6 30  1  0
  7 31  1  0
  8 32  1  0
 15 33  1  0
 15 34  1  0
 16 35  1  0
 16 36  1  0
 17 37  1  0
 19 38  1  0
 19 39  1  0
 19 40  1  0
 21 41  1  0
 22 42  1  0
 22 43  1  0
M  CHG  1  21   1
M  END
>  <OMEGA_C>  (22) 
NlrVQBJjhr7zpLXBBjalQHmBjMD3WJjBfsLFQHJxpL/6F6/BMaO1QE5uVcBmhp7B7r7RQBW+iT8y
d7LBiYqAQNEWhsD1BZLBTNuuQLDqvz4NBKLBviF5QP6l77/oEpjBO0eyQBTYeb9tOqXBf22hQJxQ
BMAjdZ7BGF++QDujtj9ImajBLHxYQAixO8BR45HBkTHQQMjoP0CEqJnB7qOIQAjHWUCKd5fBUSTn
QFXUiEBMBrTBCre3QPiqhECcjbfBtoXDQLZLhECrpKvBsKK5QLhyOEB1aqTBW3a1QMj7UEBrvYbB
NqywQJDCV0CkaZLBiHeMQIinREAblaHBTgZEQHpUbEDMiZLB+P70QOqAKkDrjZfBbb76P4wpLMCa
DorBCUHkQD9vAb+AMb3Bs7u0QHthq8C4dJjBLaXIQF8fFMALmbHBz9rRQKdrX8DUWqPBfu/dQANl
7T/RnrfBEN9nQGUKoMA/RI3BeDGgQASSHD/AbJrBM99ZQOS9aL8O8pfBVpj9QJaZXEAba7XBzQj4
QI17p0BR9rTB1+2mQMVdoEDz/7rBYH2sQAZeTkC9dLvBEAm8QPqgokD6lqfBIRuYQNzkZ0CS0YLB
Vx27QKrDDUANioTBw8LQQKQ2eED4IITBqfVnQNvQPUBAqabB35cNQBYJakCFvJbBS7ZCQNECfECr
yIrBjCLMQAwfgL7wMrbBh4psQKCXasDIW5TBOKy9QOJfpr8Rza/BQch4QIBIHcCZAprBrGnJQPYu
iD9KdbLB7oKYQPZrksDlHpPB7uGoQFp3jj4ky6HBUKzGQLRMRsBoUp3BWmCsQAK3hb+amaXBSpak
QBSGDMDvtJ7BEjq4QIB/rD+lMKjByhDBQFmbiMAGZJfBgr3MQPD/NEDk2pjBVLmIQGAOakALyJfB
KnbkQDs+oEDBkajBWAH6QF4CdkABgq7BaMDJQMJUc0DmH6zBwH+3QKzOMUC226PBbjKxQD4dWUBj
cobBevauQBahW0A/MpLB3oOLQNgCTEB4kKHBab1IQAEciEDhmJPB3ODuQOTAFEDKK5bBfkjtQFw8
qcBy8ZTBhGLZQEKd575hA77B1aguQN48ecD5+JDBC8G/QEwxFMDssLLBF0JFQO4i379huprBnYfU
QHX17z+kcbfBNJiTQAAvsMB/547B8qeaQDiC8z5UFJrBgWzlQFSbOMDR36DBrAfrQFVxpUCvBaDB
UGTgQI5Rv0BWk6zB/agCQTfCfkDKxLbBqvoHQcMBS0AjN6rBOvu0QNLOfkA/FbPBwuqVQDVrfEAL
EIPB0hiwQJc2FkCKuIPBFkLPQAvRdkCixIPBYTBmQAKrR0CgtKbBgToUQFcYi0DxG5jBhsZIQDPl
kkC5EIzBuwTrQBtthb5+ArLBM2tBQLX+N8BUQJXBryfWQInbpL9SX6zB6chqQLm17r9FJZvBGvnf
QILFij//K7DBOgRtQNcwgsCpzpLBE6GrQEFkwD7+4qLB7cu1QCyeT8BEJ5zBpkS2QHNieb9BvqTB
+TagQCmcAsBio57BaWG/QF81tT8IvajBEAShQMEPiMDLRJbBuOXPQEQFXkB03J3B1XmKQPF4XEDt
0pfBpeSPQAW2akDy4rjBFeCXQBh+nkDOY7LBkDu1QBgVb0CR6bDBJlKzQLRZOEBgfabB6S/DQPXo
iUCzBovBlJy0QA5QdkBom5XBTCyIQOIGPkCfnaHBR2xPQFwrY0Bz7pDBIdr2QJkPZ0A8PZ7B1jW8
QH5St8CKPpPB+8oBQbgTAb/8w7fB+D0AQB0AL8CCmpLBGn/eQNRsFMD43q3BYiRJQAx3c78UBZ3B
yG3wQI837z+Jc7TBj01NQDX9msCSR47Bv/2TQG+XHj+V5JzBqGHWQHL0WMADyZ7BFMFnQEp6QkDX
ILfBukyWQMK6aUDlicHBOPqjQGhju0AIZ7bBCI6BQCzDp0D5/avBzDfVQIvfdECyg7TBRUWnQBN6
kUDKAobBHSbWQAMZYUDgLofBmQrXQGG5pkAx+4vBmwdaQCcGLUA1RqXBx2YVQBcvUEAzVZPBBnFX
QJX4ekC+konBwGnVQBF9Mr+9ZrfBRtuoQFxWjsAvGJbBx2rGQNAa1L80FrDBso+3QDkmYMDvlZ3B
7SnQQDVgLD/QQ7XB+z2FQI/7hMBpmY/BYTytQCjVAT4IZaTBu7F9QDjy+7+YE5jB/USyQPgaoL8o
fqbBA7SiQPclEMC9pJ7BmSS7QBrwjD/A06vB44JgQBWYOsDnl5DBk9KvQCp3WkATibPBSDnvQFEC
gUA5rKvBVUmYQAv2M0AOS5XBvPiPQP9FhUA2wprBPMqQQG4zOEDcdaHBD222QLRZJkA0YanBV7Xc
QFyLo0D3e73BG23SQC0WiUBzE7TBWovfQJIBR0DgQqXBlyYLQZhYlUA7HarBwWCSQKZ2U0CC97nB
8ekHQKNAI8A+lYjBKQPlQD3Cgb/2rr7Biuu4QIPIrMDtU5XB+UzKQItZLcBSzbHB+eHSQF7QbsCT
jKLBqj3cQDTVsz+L27rBQwx0QCU9nMA624nBTYeeQBaF4j66/pzBh0NdQHBzgr9u0pjBPkq4QNTr
JEDrJZLBnJ9/QO24F0COC5DB/BpjQOkklkDsaJnB7geqQF2+nEBJg5vBWKtiQIkvIUCnKqTBm4r5
QCWitkDO1rvB5obiQE6yjkCHbMTBM7rBQIcPuUDlN7/B2pXtQIkJM0AOhZ7BJTUUQbrLjUCNy6PB
mSUQQfyFq0DxT6/BFBvzQAEL3r2Saq/BTPxEQHMOS8CC8JfBEXbfQMG8lr/fAarBmN9sQNx5B8C6
d53BlYjgQFMTlj9tK6/BL7d2QMXBhsDijpPBqHmmQPOaoT7EGaTBmj+8QL3WSMCxNprBAcq4QHgY
eb9QWqTBEpOjQAXDBcD+pJ7Bgj+6QBprsz8/ZanBRjWoQNQrhsBstJTB7hvFQK4XdECcFaTBTISJ
QGfiaEBOeJnBs5yQQJrulEATorfBaHmzQCGwckDv8rzBQs2VQImPS0DhcLTBOS6mQBlmM0BcE6nB
3rfEQAbNpUCxFJPBYUmwQDcVikCMH5vBZhCBQA3RN0Anv6HBcq1dQFqzcUDToZDBCNnoQMdahECB
NqfBDzHHQE89r8DYQ4/Bw0AIQRW9ir6MxLPBMzsAQGTuS8ADD5fB6+/tQJoeCsBmK6rBfolGQJdL
qb/71KDBrJXvQBpX/j9RarPBGh1YQIuxoMCVUY/BpO6IQO1G8z6DzZ/BxKPeQCA9SMAlEJvB1qSZ
QKdgrkDD/LHB+P9oQAsmn0C7RbzB+kOwQKunX0AZYsXB1GjVQOMcfkAgGbvB5Ah6QH6EIEBynrfB
TVetQGr6rUDT04zBD/TfQH/ZlEBfdY/ByyLQQK9Iw0D98pbBSoxKQJ6IGUBj7qLB72wmQMuBUUBw
TpDBKZFuQNEdjECCmorBoXjVQIHQM7+gXbfBNcBfQPQtOsDSjpDB9UTGQE431L80C7DBPtV8QHLn
+r8KC5jBhkXQQJJKKz+pRLXBXvSEQDO2hMBQkI/BYfisQFK1Bj68bKTBaUW3QBpXX8CgiJ3BMvex
QF+Hn78be6bBiVKiQOiOD8D4m57BIhi7QEgAjT+E3avB/aCoQC70jcB+DpbBkO+vQMY5WkAbpbPB
R0bvQBzzgEB4wqvBiRWYQMCINEBZZpXBduGPQBuEhUCn5ZrBTbWQQOaOOECmkqHBWGm2QDlsJkAn
dqnB4fXcQHU/o0DpnL3Bh5LSQNfriECDMLTBHoLfQAwXR0A5VaXBOiwLQcRJlUBcMarB7pGSQEsI
U0B0GLrBjfXCQLT7vsBA2ZTBky/lQD3tgr8Kn77BcxYpQGL5K8C9k4vBsRvKQL53LcASurHBvExc
QIeFgb9VypjBNIHcQH/usj/23LrBxY9zQJYCnMB704nBdyCeQHr45j6ODZ3Bc6nSQLPVbcAke6LB
Awy4QFd4JUARO5LBRRR/QOZ2GEBwKJDBdvFiQN1wlkC/k5nBm/qpQJbxnEBgppvBLIdiQLqSIUCH
SqTB7cz5QJ1TtkDM97vBWdDiQF5OjkB5iMTBYQTCQGfFuEDDYL/BY3rtQORDM0BXk57BdjEUQbvR
jUDP2qPB/DMQQaViq0BrZ6/B

>  <OMEGA_E>  (22) 
OqMMP0LnND/Q5WQ/2nOKP/GZhz8ufI0/

>  <OMEGA_NBR>  (22) 
     84950

$$$$
50215530
     RDKit          3D

 44 47  0  0  1  0  0  0  0  0999 V2000
    2.7584   -2.9421  -17.3278 C   0  0  0  0  0  0  0  0  0  0  0  0
    5.7505   -4.3252  -19.1014 C   0  0  0  0  0  0  0  0  0  0  0  0
    6.7363   -0.0667  -22.7861 C   0  0  0  0  0  0  0  0  0  0  0  0
    4.6380   -4.2281  -18.2467 C   0  0  0  0  0  0  0  0  0  0  0  0
    6.1186   -3.2308  -19.9007 C   0  0  0  0  0  0  0  0  0  0  0  0
    6.3250   -1.1361  -21.9820 C   0  0  0  0  0  0  0  0  0  0  0  0
    6.5990    1.2488  -22.3259 C   0  0  0  0  0  0  0  0  0  0  0  0
    4.2615   -1.9317  -18.9858 C   0  0  0  0  0  0  0  0  0  0  0  0
    5.5785    0.4304  -20.2682 C   0  0  0  0  0  0  0  0  0  0  0  0
    3.8946   -3.0319  -18.1878 C   0  0  0  0  0  0  0  0  0  0  0  0
    5.3737   -2.0290  -19.8532 C   0  0  0  0  0  0  0  0  0  0  0  0
    5.7570   -0.8956  -20.7121 C   0  0  0  0  0  0  0  0  0  0  0  0
    6.0052    1.5156  -21.0651 C   0  0  0  0  0  0  0  0  0  0  0  0
    6.5108    3.0356  -19.1590 C   0  0  0  0  0  0  0  0  0  0  0  0
    4.2542    3.3531  -18.9302 C   0  0  0  0  0  0  0  0  0  0  0  0
    5.8115    4.2629  -22.8618 C   0  0  0  0  0  0  0  0  0  0  0  0
    5.7537    5.3357  -21.7702 C   0  0  0  0  0  0  0  0  0  0  0  0
    6.4673    4.0039  -21.4913 C   0  0  0  0  0  0  0  0  0  0  0  0
    5.8539    2.9403  -20.5244 C   0  0  1  0  0  0  0  0  0  0  0  0
    5.6174    3.1537  -16.8025 C   0  0  0  0  0  0  0  0  0  0  0  0
    1.8293   -2.8754  -16.6270 N   0  0  0  0  0  0  0  0  0  0  0  0
    5.4847    3.2831  -18.2620 N   0  0  0  0  0  0  0  0  0  0  0  0
    4.4316    3.2025  -20.2258 N   0  0  0  0  0  0  0  0  0  0  0  0
    3.0297    3.5745  -18.3174 N   0  0  0  0  0  0  0  0  0  0  0  0
    7.6910    2.8356  -18.8951 O   0  0  0  0  0  0  0  0  0  0  0  0
    6.3214   -5.2410  -19.1432 H   0  0  0  0  0  0  0  0  0  0  0  0
    7.1596   -0.2562  -23.7614 H   0  0  0  0  0  0  0  0  0  0  0  0
    4.3529   -5.0710  -17.6346 H   0  0  0  0  0  0  0  0  0  0  0  0
    6.9745   -3.3069  -20.5549 H   0  0  0  0  0  0  0  0  0  0  0  0
    6.4427   -2.1501  -22.3347 H   0  0  0  0  0  0  0  0  0  0  0  0
    6.9485    2.0682  -22.9365 H   0  0  0  0  0  0  0  0  0  0  0  0
    3.6939   -1.0142  -18.9355 H   0  0  0  0  0  0  0  0  0  0  0  0
    5.1122    0.6178  -19.3122 H   0  0  0  0  0  0  0  0  0  0  0  0
    4.8992    3.7184  -23.1467 H   0  0  0  0  0  0  0  0  0  0  0  0
    6.4395    4.4170  -23.7517 H   0  0  0  0  0  0  0  0  0  0  0  0
    6.3395    6.2606  -21.8777 H   0  0  0  0  0  0  0  0  0  0  0  0
    4.7991    5.5620  -21.2727 H   0  0  0  0  0  0  0  0  0  0  0  0
    7.5661    4.0543  -21.4826 H   0  0  0  0  0  0  0  0  0  0  0  0
    4.6603    3.4067  -16.3230 H   0  0  0  0  0  0  0  0  0  0  0  0
    5.8918    2.1189  -16.5498 H   0  0  0  0  0  0  0  0  0  0  0  0
    6.3997    3.8386  -16.4434 H   0  0  0  0  0  0  0  0  0  0  0  0
    3.7056    3.2578  -20.9113 H   0  0  0  0  0  0  0  0  0  0  0  0
    2.1974    3.6299  -18.8689 H   0  0  0  0  0  0  0  0  0  0  0  0
    2.9793    3.6787  -17.3241 H   0  0  0  0  0  0  0  0  0  0  0  0
  1 10  1  0
  1 21  3  0
  2  4  2  0
  2  5  1  0
  3  6  2  0
  3  7  1  0
  4 10  1  0
  5 11  2  0
  6 12  1  0
  7 13  2  0
  8 10  2  0
  8 11  1  0
  9 12  2  0
  9 13  1  0
 11 12  1  0
 13 19  1  0
 14 19  1  0
 14 22  1  0
 14 25  2  0
 15 22  1  0
 15 23  2  0
 15 24  1  0
 16 17  1  0
 16 18  1  0
 17 18  1  0
 19 18  1  6
 19 23  1  0
 20 22  1  0
  2 26  1  0
  3 27  1  0
  4 28  1  0
  5 29  1  0
  6 30  1  0
  7 31  1  0
  8 32  1  0
  9 33  1  0
 16 34  1  0
 16 35  1  0
 17 36  1  0
 17 37  1  0
 18 38  1  0
 20 39  1  0
 20 40  1  0
 20 41  1  0
 23 42  1  0
 24 43  1  0
 24 44  1  0
M  CHG  1  23   1
M  END
>  <OMEGA_C>  (23) 
cYkwQGJLPMBcn4rBxQO4QBxoisC2z5jBtI/XQHCwiL3cSbbBg2qUQGxMh8Ap+ZHBZ8vDQMPETsCt
NJ/BL2bKQMFrkb8L26/B6irTQBzYnz9Ym7LBEl6IQGBA97/14pfBxoKyQPhh3D46JaLBm0F5QDEK
QsCtgJHBZ/WrQDbbAcBO057BMjm4QEZEZb9XsqXBTSrAQKD/wT9FhajBlFjQQH5GQkClRZnBniKI
QBqZVkAPcZfB6ve5QNNpiEDz5LbBYR64QDu+qkBoKa7BJPTOQPsfgEAV7qvBR1O7QPwtPEDtMaTB
oMGzQFzWSUCUa4bBtCbqP1IGOMAvBIXBuYKvQMYeUkCQGJLBA9CNQKj1TEB5zqHBBOdBQIDEZEAL
ipLB1Bz2QNF6NUAXKZfBC0nKQD62p8AtJZnBFxvlQBQqg75uF77Bu0qLQFpFosCfE43BSC/fQGuk
U8B1cKTBlCrOQKOaCcBxrbLB61neQK9cBEDwfbfBwGhsQHrRgb/ge5fBT5ejQFknHj9cf5rBDMac
QHL6bUBfLLnBaRDOQA5YjUBtA77Bx9zKQKpWyEB0Ba/Ba5KZQNb7sUBmLqrBlR3yQDm9gUBz3KvB
QSGVQH8HWkBnlYLBaom8QCecB0DmZYTB9MnMQPirdUAkjIPBGCltQEyAUEBJSqfB3qEMQJFQaEB5
85bBWqw+QJlva0DQl4rB0OmXQPQoH8AbPIHB5EiXQH2cj8CTnJrB+MvgQBIVD7/lFLfBZQGTQMi/
hMDvuo/B2KWkQA9EYcDoEqLBOzzTQIFZxb/Jya/Bp9/WQNxGSz//SrXBEJ6pQI377r/ku5PBKKCx
QN2qOz5D4aTBvyacQImLNcBlSYzBZOmtQKjEDMDRtJ7BUsm7QBF4lr9LkabBvV2+QL/Glj8jRazB
XY6tQNwRW0BBmbTBafXoQEMgiEAeEazB1KmRQFr1NEBkkpbBwneGQNJohEBvX5zBk4qMQC8YNkC6
06LBjXW0QJNEKkA2NKrBKvvWQEsyp0AgTr7BnHiUQFi7DMAPeXDBEFjNQCefjEA94LTB/+DaQFyD
U0AaraXBE78GQf5UoEBIJarB6QWSQBIvTUDoX7vBI0yQQDjJr8DnPJ3BqeTyQIgYWL90FL7B9reI
QHCSnMALBorBTNmnQJhHcsDiaKrBR8HaQP0jJcDJO7HBoAPiQMnZxT8z1rrBaLewQCUtXb+HEZHB
1tWfQGrN7z4c1Z3BqIixQFJ+LEAn/ZLBtSBzQC3tFECbj5HBTbhMQGNokkAhgJvBdFSeQPYwnkCs
7ZzBzNJdQNXXGEBC3KXBpmzxQPQqvUC2arzBnkXgQKx3kkAJB8XB6G+6QKPMuUAhhMDBgGDoQGKB
Q0BFtJ7Bw3EPQRofm0D+jqPBnC8LQYvztkDYWa/B

>  <OMEGA_E>  (23) 
WHIEP2R7nj8=

>  <OMEGA_NBR>  (23) 
     43272

$$$$
50215906
     RDKit          3D

 47 50  0  0  1  0  0  0  0  0999 V2000
    2.8665   -2.9634  -17.3240 C   0  0  0  0  0  0  0  0  0  0  0  0
    1.8944   -2.7492  -16.6353 C   0  0  0  0  0  0  0  0  0  0  0  0
    6.6758   -0.0969  -22.7960 C   0  0  0  0  0  0  0  0  0  0  0  0
    6.2430   -1.1645  -22.0043 C   0  0  0  0  0  0  0  0  0  0  0  0
    6.5805    1.2155  -22.3156 C   0  0  0  0  0  0  0  0  0  0  0  0
    4.2832   -1.9661  -18.9853 C   0  0  0  0  0  0  0  0  0  0  0  0
    5.5402    0.4037  -20.2693 C   0  0  0  0  0  0  0  0  0  0  0  0
    4.7810   -4.2286  -18.2500 C   0  0  0  0  0  0  0  0  0  0  0  0
    6.1340   -3.2442  -19.8902 C   0  0  0  0  0  0  0  0  0  0  0  0
    3.9856   -3.0661  -18.1822 C   0  0  0  0  0  0  0  0  0  0  0  0
    5.7056   -0.9220  -20.7262 C   0  0  0  0  0  0  0  0  0  0  0  0
    5.3677   -2.0539  -19.8614 C   0  0  0  0  0  0  0  0  0  0  0  0
    5.9847    1.4877  -21.0566 C   0  0  0  0  0  0  0  0  0  0  0  0
    6.5013    3.0170  -19.1451 C   0  0  0  0  0  0  0  0  0  0  0  0
    4.2529    3.3847  -18.9270 C   0  0  0  0  0  0  0  0  0  0  0  0
    5.8589    4.2001  -22.8791 C   0  0  0  0  0  0  0  0  0  0  0  0
    5.7116    5.2821  -21.8095 C   0  0  0  0  0  0  0  0  0  0  0  0
    6.4634    3.9815  -21.4768 C   0  0  0  0  0  0  0  0  0  0  0  0
    5.8465    2.9147  -20.5125 C   0  0  1  0  0  0  0  0  0  0  0  0
    0.7291   -2.4150  -15.8357 C   0  0  0  0  0  0  0  0  0  0  0  0
    5.6284    3.3375  -16.7999 C   0  0  0  0  0  0  0  0  0  0  0  0
    5.8379   -4.2982  -19.0939 N   0  0  0  0  0  0  0  0  0  0  0  0
    5.4877    3.3574  -18.2641 N   0  0  0  0  0  0  0  0  0  0  0  0
    4.4256    3.1839  -20.2161 N   0  0  0  0  0  0  0  0  0  0  0  0
    3.0270    3.6137  -18.3195 N   0  0  0  0  0  0  0  0  0  0  0  0
    7.6768    2.8014  -18.8725 O   0  0  0  0  0  0  0  0  0  0  0  0
    7.0838   -0.2839  -23.7784 H   0  0  0  0  0  0  0  0  0  0  0  0
    6.3210   -2.1764  -22.3737 H   0  0  0  0  0  0  0  0  0  0  0  0
    6.9653    2.0304  -22.9107 H   0  0  0  0  0  0  0  0  0  0  0  0
    3.6885   -1.0662  -18.9314 H   0  0  0  0  0  0  0  0  0  0  0  0
    5.0718    0.5891  -19.3139 H   0  0  0  0  0  0  0  0  0  0  0  0
    4.5443   -5.0740  -17.6209 H   0  0  0  0  0  0  0  0  0  0  0  0
    6.9753   -3.3129  -20.5640 H   0  0  0  0  0  0  0  0  0  0  0  0
    4.9813    3.6175  -23.1962 H   0  0  0  0  0  0  0  0  0  0  0  0
    6.5197    4.3670  -23.7426 H   0  0  0  0  0  0  0  0  0  0  0  0
    6.2658    6.2275  -21.9051 H   0  0  0  0  0  0  0  0  0  0  0  0
    4.7275    5.4780  -21.3587 H   0  0  0  0  0  0  0  0  0  0  0  0
    7.5580    4.0748  -21.4204 H   0  0  0  0  0  0  0  0  0  0  0  0
    0.3993   -3.3039  -15.2778 H   0  0  0  0  0  0  0  0  0  0  0  0
    0.9876   -1.6133  -15.1283 H   0  0  0  0  0  0  0  0  0  0  0  0
   -0.0826   -2.0744  -16.4954 H   0  0  0  0  0  0  0  0  0  0  0  0
    4.6811    3.6494  -16.3358 H   0  0  0  0  0  0  0  0  0  0  0  0
    5.8805    2.3190  -16.4697 H   0  0  0  0  0  0  0  0  0  0  0  0
    6.4291    4.0292  -16.4992 H   0  0  0  0  0  0  0  0  0  0  0  0
    3.6960    3.2101  -20.8995 H   0  0  0  0  0  0  0  0  0  0  0  0
    2.1924    3.6346  -18.8699 H   0  0  0  0  0  0  0  0  0  0  0  0
    2.9780    3.7578  -17.3312 H   0  0  0  0  0  0  0  0  0  0  0  0
  1  2  3  0
  1 10  1  0
  2 20  1  0
  3  4  2  0
  3  5  1  0
  4 11  1  0
  5 13  2  0
  6 10  2  0
  6 12  1  0
  7 11  2  0
  7 13  1  0
  8 10  1  0
  8 22  2  0
  9 12  2  0
  9 22  1  0
 11 12  1  0
 13 19  1  0
 14 19  1  0
 14 23  1  0
 14 26  2  0
 15 23  1  0
 15 24  2  0
 15 25  1  0
 16 17  1  0
 16 18  1  0
 17 18  1  0
 19 18  1  6
 19 24  1  0
 21 23  1  0
  3 27  1  0
  4 28  1  0
  5 29  1  0
  6 30  1  0
  7 31  1  0
  8 32  1  0
  9 33  1  0
 16 34  1  0
 16 35  1  0
 17 36  1  0
 17 37  1  0
 18 38  1  0
 20 39  1  0
 20 40  1  0
 20 41  1  0
 21 42  1  0
 21 43  1  0
 21 44  1  0
 24 45  1  0
 25 46  1  0
 25 47  1  0
M  CHG  1  24   1
M  END
>  <OMEGA_C>  (24) 
kXQ3QEKoPcCLl4rBXnvyPzTzL8ABFYXBhqDVQAByxr1HXrbB3sbHQK0Plb/bCLDBzZPSQAqVmz9N
hrLB0Q+JQA+p+7/y4ZfBQEmxQLi3zj6AJ6LB5f2YQF1Qh8Dm/5HB50nEQNqgT8A5H5/BRRN/QBY7
RMAgdZHBe5S2QH4GbL83z6XBCcSrQB5zA8Aj5J7B44K/QGlsvj/gc6jBuQrQQBoXQUAzKZnBeBeI
QIyeWECPapfBRXy7QNNmhkBtCLfBUsW2QEwHqUDgea7BeNTOQHbRfkCG0KvBtRa7QKCKOkCTGaTB
/aM6P/KPGsAnX33Bghu0QCyaVUBEZobBbdC6QMOKicA1wJjBEZuvQKLfVkDMHJLBO56NQM7FS0B9
uqHBF7tBQEhGZ0BajpLBk6j1QMBJM0DR+pbBpq7iQBZakb4cOr7B2UXKQJNKC8A9/bLB4+PeQKby
AUAsSbfBMRFsQKN3iL9zc5fBUkyiQIjOFj/3gprBLmuRQAheosCt94zBbzXfQBkHVMAcg6TBKmef
QNuFZ0DTkbnBBKHQQN6+i0DE8L3BloHIQKdHx0CPPa/BvEeXQLZLr0Ce3qrBUNvxQO5kgkAFXavB
J3fMPtlyU8AQcnTBZNB8PwiBzr+eDXLBcyqpvX3CBMCO9oPBnMuVQPqPaUCrr4LBvyy8QJlqFED8
wYPBBLvNQFXvgEBr/oPByYtsQNByTUAuMqfBIFAMQLmdaECG9ZbBc5c+QH5/cEA5porBs4r4QAkY
cMCQ/o3BQAUMQZOba8DuV4jBQ47JQAhhBr44/LbBTKK6QJ6YmL9dwLDBrgjKQDwplT8fxrLB+dHR
QAoUJMAhkJvBawSrQOR4sj73FKLBKSmsQMj2iMDyvZHBVFGEQHP/LsDT55vBtcLSQANrZ8C7TpTB
irOrQAQ8db9AUabBIluqQHw4BsDBL5/Bye26QDR7tj+fQqjBGHPOQL/WNkAQV5jBGxGIQH66XkC8
rZfBzWjDQKmri0DcKrXBk7LKQFhuqUCOjqvBVYTWQA0AdECiuKrBifK7QJvKNUDwkaPBtJEeQeEc
YMBqYoHBrSywQLUbV0DiEobB8eKFQIVrdcCKiZXB6guuQO1qVUA30pHB6ZaPQDn/UkAz7aHBZP9A
QGS9c0BUZZPBgSzzQMYbJUA7s5XB+rLUQPYvn75VCb/Bx5K6QIZ6DMB59bPBdA/WQEFn/T8xlrfB
+DLvQMpQB8AZWp7B2GqeQLDYBj/xKZrBeAytQCf6pMDWr4zBsn1LQP4fFsDZd57B/66iQLvegkAV
jLfBc5DXQB6yjkCjV7zBvgvkQBrTwUDJ26vBSSqvQLj/tUA8EKfBOAH5QEMaZkDPAqvBg9wnQePt
jcA/GoHB36woQfhFLMCXiITBqCQZQUCGT8BBjHLBDGKSQAthckBY24LBhka0QDyLFUB4CYPB6nfL
QEqofkAziYPBNYN0QGiIXEDixKfBXV8OQFb9ekCeNJjBf486QPuje0B2f4vBM9oxQBmbM8AUCYrB
ACrnPxUAKsAvW4TBCEndQGSQD79pcLfBV1HQQNZWxb8zD7DB9bfUQHQQTD9wdLXBNQSJQMqj/r93
JZjBZmOyQD75SD7Sn6TByp6WQHLbhMCF+4/BD9HEQDBAWcD9eJ3Bvjh7QCDNPsDfupDBecm6QOmY
lb/lkabB71mtQM1ODMDUqp7Bdlq+QE88mD99HKzB/AGuQGFsXUC2DrTBQIvrQLtfh0C+IazBiOyW
QIFANkBAzpXB4LiLQG59hUAeZ5vBUrGPQLFpOEC1/aHBVCC2QLpMK0CA0KnBy9oiPzSEHsBNCXvB
5iXXQNO5p0BtEr7BVGO5QObnisCMRZbB94POQHf7jEBcnLTBBdXdQN0oUkD9qqXBwn4IQWSQnkCT
jqrBOByRQKufUUDEiLrBPODtQB7vWb9Bp77BCNTWQNRaJcBgpbHBWEPfQBTpxT/fF7vBpZ5sQKr0
ir/Z2pjBTJOiQJGi+T7BTZ3BktmNQIFAncDGRIrBqZXgQAPqY8DQcKLBUUe3QL8TLEDVlJLBFbJ+
QNwFF0C0kJDBFUVYQHMzlEDwJ5rB0RCkQGS6nkARLJzB0HNiQFG/HEBNuaTBqaobPPtL1b8huYDB
kYBhPVVEWsDSm3rB3l12PxL/DcBPvmrBRXfyQGPtvEBpbbzBZq/eQMsRk0Cb8cTBY7u6QK4mu0C5
6b/BJ1jsQLLVQEDv357BX7IRQcGemEDmLqTBYMIMQbAvtUBKzK/B

>  <OMEGA_E>  (24) 
CKktP5YNYT/Wjo4/

>  <OMEGA_NBR>  (24) 
     47977

$$$$
50216014
     RDKit          3D

 43 46  0  0  1  0  0  0  0  0999 V2000
    2.7779   -2.9758  -17.3452 C   0  0  0  0  0  0  0  0  0  0  0  0
    6.6964   -0.0993  -22.7955 C   0  0  0  0  0  0  0  0  0  0  0  0
    6.3107   -1.1715  -21.9800 C   0  0  0  0  0  0  0  0  0  0  0  0
    6.5583    1.2185  -22.3365 C   0  0  0  0  0  0  0  0  0  0  0  0
    4.2711   -1.9488  -18.9818 C   0  0  0  0  0  0  0  0  0  0  0  0
    5.5812    0.3975  -20.2615 C   0  0  0  0  0  0  0  0  0  0  0  0
    4.7116   -4.2211  -18.2482 C   0  0  0  0  0  0  0  0  0  0  0  0
    6.1175   -3.2635  -19.8610 C   0  0  0  0  0  0  0  0  0  0  0  0
    3.9287   -3.0480  -18.1860 C   0  0  0  0  0  0  0  0  0  0  0  0
    5.7607   -0.9287  -20.7044 C   0  0  0  0  0  0  0  0  0  0  0  0
    5.3815   -2.0547  -19.8379 C   0  0  0  0  0  0  0  0  0  0  0  0
    5.9906    1.4846  -21.0637 C   0  0  0  0  0  0  0  0  0  0  0  0
    6.5003    3.0065  -19.1524 C   0  0  0  0  0  0  0  0  0  0  0  0
    4.2519    3.3502  -18.9204 C   0  0  0  0  0  0  0  0  0  0  0  0
    5.7870    4.2559  -22.8408 C   0  0  0  0  0  0  0  0  0  0  0  0
    5.7448    5.3160  -21.7354 C   0  0  0  0  0  0  0  0  0  0  0  0
    6.4532    3.9768  -21.4803 C   0  0  0  0  0  0  0  0  0  0  0  0
    5.8417    2.9093  -20.5179 C   0  0  1  0  0  0  0  0  0  0  0  0
    5.6358    3.2800  -16.7949 C   0  0  0  0  0  0  0  0  0  0  0  0
    1.8309   -2.9016  -16.6697 N   0  0  0  0  0  0  0  0  0  0  0  0
    5.7815   -4.3120  -19.0745 N   0  0  0  0  0  0  0  0  0  0  0  0
    5.4599    3.1275  -18.2463 N   0  0  0  0  0  0  0  0  0  0  0  0
    4.4190    3.1681  -20.2136 N   0  0  0  0  0  0  0  0  0  0  0  0
    3.0535    3.6969  -18.3141 N   0  0  0  0  0  0  0  0  0  0  0  0
    7.6933    2.8863  -18.8980 O   0  0  0  0  0  0  0  0  0  0  0  0
    7.1008   -0.2881  -23.7790 H   0  0  0  0  0  0  0  0  0  0  0  0
    6.4348   -2.1860  -22.3292 H   0  0  0  0  0  0  0  0  0  0  0  0
    6.8870    2.0385  -22.9576 H   0  0  0  0  0  0  0  0  0  0  0  0
    3.6937   -1.0371  -18.9391 H   0  0  0  0  0  0  0  0  0  0  0  0
    5.1263    0.5836  -19.2998 H   0  0  0  0  0  0  0  0  0  0  0  0
    4.4524   -5.0635  -17.6242 H   0  0  0  0  0  0  0  0  0  0  0  0
    6.9672   -3.3510  -20.5218 H   0  0  0  0  0  0  0  0  0  0  0  0
    4.8692    3.7198  -23.1240 H   0  0  0  0  0  0  0  0  0  0  0  0
    6.4078    4.4175  -23.7343 H   0  0  0  0  0  0  0  0  0  0  0  0
    6.3348    6.2389  -21.8366 H   0  0  0  0  0  0  0  0  0  0  0  0
    4.7961    5.5413  -21.2263 H   0  0  0  0  0  0  0  0  0  0  0  0
    7.5523    4.0209  -21.4807 H   0  0  0  0  0  0  0  0  0  0  0  0
    4.6505    3.3543  -16.3115 H   0  0  0  0  0  0  0  0  0  0  0  0
    6.1744    2.4072  -16.3973 H   0  0  0  0  0  0  0  0  0  0  0  0
    6.2145    4.1927  -16.5897 H   0  0  0  0  0  0  0  0  0  0  0  0
    3.6867    3.2004  -20.8937 H   0  0  0  0  0  0  0  0  0  0  0  0
    2.2318    3.8273  -18.8689 H   0  0  0  0  0  0  0  0  0  0  0  0
    3.0113    3.8166  -17.3222 H   0  0  0  0  0  0  0  0  0  0  0  0
  1  9  1  0
  1 20  3  0
  2  3  2  0
  2  4  1  0
  3 10  1  0
  4 12  2  0
  5  9  2  0
  5 11  1  0
  6 10  2  0
  6 12  1  0
  7  9  1  0
  7 21  2  0
  8 11  2  0
  8 21  1  0
 10 11  1  0
 12 18  1  0
 13 18  1  0
 13 22  1  0
 13 25  2  0
 14 22  1  0
 14 23  2  0
 14 24  1  0
 15 16  1  0
 15 17  1  0
 16 17  1  0
 18 17  1  6
 18 23  1  0
 19 22  1  0
  2 26  1  0
  3 27  1  0
  4 28  1  0
  5 29  1  0
  6 30  1  0
  7 31  1  0
  8 32  1  0
 15 33  1  0
 15 34  1  0
 16 35  1  0
 16 36  1  0
 17 37  1  0
 19 38  1  0
 19 39  1  0
 19 40  1  0
 23 41  1  0
 24 42  1  0
 24 43  1  0
M  CHG  1  23   1
M  END
>  <OMEGA_C>  (25) 
ackxQAZzPsDjworBG0nWQJhTy700XbbB4PDJQHD0lb8i16/BRN3RQLb2mz8nsbLB2ayIQOxy+b+z
2pfBUpmyQOKFyz6kF6LBj8WWQNkSh8Bc/JHBOcLDQJDdUMA8457BKnB7QKsSQ8ABfZHBw1e4QNa/
bb+hoqXBRzWsQHSAA8D9s57BFbO/QPIFvj9hgqjBaALQQONpQEA3OJnBYg+IQG1qVkAGXZfBJC+5
QHcwiEDeubbBldW3QLccqkAX4q3BYoDOQOGDfkC816vB9O66QEUxOkCiJKTBUli0QMvrUUAGXIbB
0VnqPz2zOcCMW4XB5gG5QN77icCkmJjBbLeuQD0pSECC+JHBy2iNQC3CSkBitaHBemxDQNOabEA8
g5LBUy/2QN25OEArL5fBeDnjQH5+k75nO77Be+nNQNrmC8AxorLBV2LcQF13AkA/qbfBKWZsQLW/
hL9cg5fBDwukQP9kFT8SZprByHmOQDgIosBE/ozB//LeQDF3VsCxLKTBTNCbQAESbkDx/bjBFQ3N
QNxbjUDj373BarbKQP2kx0Bqsa7BoXmZQCJSsUB4z6nBWazxQPCqgEBj2KvBFdGUQHCsVkDcfYLB
VZTFQJ8PGkCeLYPBDd3GQKIqhkDJt4TBAfNrQNLSTEBkJqfBPdUOQKrxdEBs85bBh7hAQDlDdEDK
k4rB67IrQJPwOMCCM4vBsvfaQLiJ+L0DlrXBJ6zPQJRVlr8Zwq7BBdrSQCgwmj+skrLBv1yJQFrQ
8b85ipfBQb20QAI63D6usqHBHpKTQOsGhsBF2JHBvlHEQOZYUMAs+53B2Lp3QBs9P8CeepHBuy+8
QO0HaL87zqTBrTOuQOZEAcAP7p3B95e/QGbHvz/Ck6jBqATRQEflS0CKoJrBQUeJQNcaU0DE6JbB
jizSQMoeq0AU06vBZlnqQHBJikDmoLLBpti9QB/GfkBCGq7BaIO3QGUCPEBI46TBybK7QCbFUUD7
G4fByIfaP6IAM8DOJobBQf62QOHAicCcBJjBpKayQHnOV0DHpJLBkPWKQGvoRUB2R6HB/mZHQAl3
W0B/GZHB+Kb3QJUVQ0AYUpnBo/XpQAu/qb7dL73BeubVQBx6DMDEHrHBGlrbQPyqAEAY67fBf6xv
QMtwdb/+UJfBAZ2mQM9jIz+M/ZnBaECJQBwDocBxGo3BF4XgQFw5V8Cv5qLBT4DdQHPSskDXt6PB
sP3EQHEZyEAOlK/B63juQEyqj0CNQ7vBxX0DQZvGdEBXZ6/BVNGjQNK4f0CRBrTBrC2eQGrsXUAo
kILBW67HQDNOEUDHOoXBHQLUQF/IgEB86oTBzMpiQOz6QkDVE6bB4NMOQFeCV0CWzpTBa8lJQOxy
ZUACNInBgGOXQFBbI8DQP4HBoWLgQM7BEr94BLfB48/SQGtcxr+rqq/BLa7WQIRISD9IRrXBiWqp
QPZM7r+jk5PBmsuxQHY5QD4IxaTBvUaTQMjbhMDXPZDBh56kQJkJYcDrxqHB1PmbQF6uNsCTYYzB
U7K7QDY2lr+ea6bBLNetQGY9DMDYgp7B72q+QDh4lj8hPKzBJautQCSmWkBWqbTB1i/pQM4CiEAu
M6zB2QWSQBwENkDll5bBktWGQP3PhEB6c5zBIsqMQCORNkB42KLBzaG0QK5EKkCJPKrBiw7XQKG/
pkA0d77BWLCTQAt5E8DRXHDBk6eXQPrFjsDIu5rBQH7NQCldjEBs/7TBPCLbQBeTU0Afw6XBXuEG
QeU3oEB2VKrBNwuSQMacTEDYaLvBvFHyQIWSXb/2Bb7B3hHaQFrLJcDIFrHB9szhQCSvwz+q3brB
LESwQGKfXL8AzJDBoE2gQGnj9T7xsZ3BpeSIQMBIncAvtYrBKgWoQDfnccDVHKrBhuuxQCqiLUCy
BZPBn+RzQGJMFkBei5HBXYJNQM/gkkDslJvBZbqeQLOLnkBAD53BBTleQEJBGUD91qXBuYzxQJ+4
vEBKn7zBgT7gQGjhkUB/K8XB8YK6QKZYuUCgrcDBQLPoQH7MQ0BNyp7ByZoPQTcgm0DsvqPB8k4L
Qaa4tkCyka/B

>  <OMEGA_E>  (25) 
oA4QP7gCHj+fE58/

>  <OMEGA_NBR>  (25) 
     58602

$$$$
50216011
     RDKit          3D

 42 45  0  0  1  0  0  0  0  0999 V2000
    6.6139   -0.7962  -22.2505 C   0  0  0  0  0  0  0  0  0  0  0  0
    6.0580   -1.8087  -21.4510 C   0  0  0  0  0  0  0  0  0  0  0  0
    6.4733    0.5527  -21.8786 C   0  0  0  0  0  0  0  0  0  0  0  0
    5.1844   -0.1197  -19.9236 C   0  0  0  0  0  0  0  0  0  0  0  0
    5.6336   -3.6000  -19.0305 C   0  0  0  0  0  0  0  0  0  0  0  0
    3.5165   -2.4172  -18.8443 C   0  0  0  0  0  0  0  0  0  0  0  0
    3.8300   -4.3860  -17.6074 C   0  0  0  0  0  0  0  0  0  0  0  0
    5.3423   -1.4703  -20.2840 C   0  0  0  0  0  0  0  0  0  0  0  0
    4.8150   -2.5183  -19.3985 C   0  0  0  0  0  0  0  0  0  0  0  0
    5.7448    0.9114  -20.7147 C   0  0  0  0  0  0  0  0  0  0  0  0
    5.1405   -4.5333  -18.1089 C   0  0  0  0  0  0  0  0  0  0  0  0
    6.8131    3.1492  -20.1513 C   0  0  0  0  0  0  0  0  0  0  0  0
    5.9355    3.7178  -22.1392 C   0  0  0  0  0  0  0  0  0  0  0  0
    3.6013    3.7297  -19.0296 C   0  0  0  0  0  0  0  0  0  0  0  0
    3.1283    2.2800  -19.2170 C   0  0  0  0  0  0  0  0  0  0  0  0
    4.6242    2.5896  -19.1095 C   0  0  0  0  0  0  0  0  0  0  0  0
    5.5190    2.3958  -20.3678 C   0  0  2  0  0  0  0  0  0  0  0  0
    8.0517    4.8771  -21.4866 C   0  0  0  0  0  0  0  0  0  0  0  0
    3.0435   -3.3464  -17.9792 N   0  0  0  0  0  0  0  0  0  0  0  0
    6.8496    4.1046  -21.1590 N   0  0  0  0  0  0  0  0  0  0  0  0
    4.9598    3.0515  -21.5659 N   0  0  0  0  0  0  0  0  0  0  0  0
    6.1267    3.8643  -23.5062 N   0  0  0  0  0  0  0  0  0  0  0  0
    7.6288    2.9573  -19.2567 O   0  0  0  0  0  0  0  0  0  0  0  0
    5.9243   -5.5529  -17.6938 F   0  0  0  0  0  0  0  0  0  0  0  0
    7.1500   -1.0540  -23.1519 H   0  0  0  0  0  0  0  0  0  0  0  0
    6.1786   -2.8451  -21.7298 H   0  0  0  0  0  0  0  0  0  0  0  0
    6.9245    1.3240  -22.4853 H   0  0  0  0  0  0  0  0  0  0  0  0
    4.6290    0.1334  -19.0326 H   0  0  0  0  0  0  0  0  0  0  0  0
    6.6230   -3.7096  -19.4495 H   0  0  0  0  0  0  0  0  0  0  0  0
    2.8893   -1.5813  -19.1168 H   0  0  0  0  0  0  0  0  0  0  0  0
    3.4451   -5.1174  -16.9122 H   0  0  0  0  0  0  0  0  0  0  0  0
    3.5129    4.4489  -19.8572 H   0  0  0  0  0  0  0  0  0  0  0  0
    3.4267    4.2466  -18.0744 H   0  0  0  0  0  0  0  0  0  0  0  0
    2.6141    1.7588  -18.3961 H   0  0  0  0  0  0  0  0  0  0  0  0
    2.7003    1.9611  -20.1789 H   0  0  0  0  0  0  0  0  0  0  0  0
    5.0967    2.3121  -18.1557 H   0  0  0  0  0  0  0  0  0  0  0  0
    7.8311    5.5658  -22.3155 H   0  0  0  0  0  0  0  0  0  0  0  0
    8.3681    5.4541  -20.6051 H   0  0  0  0  0  0  0  0  0  0  0  0
    8.8583    4.1912  -21.7847 H   0  0  0  0  0  0  0  0  0  0  0  0
    4.0128    2.9984  -21.8826 H   0  0  0  0  0  0  0  0  0  0  0  0
    5.4879    3.4410  -24.1486 H   0  0  0  0  0  0  0  0  0  0  0  0
    6.9033    4.3931  -23.8485 H   0  0  0  0  0  0  0  0  0  0  0  0
  1  2  2  0
  1  3  1  0
  2  8  1  0
  3 10  2  0
  4  8  2  0
  4 10  1  0
  5  9  2  0
  5 11  1  0
  6  9  1  0
  6 19  2  0
  7 11  2  0
  7 19  1  0
  8  9  1  0
 10 17  1  0
 11 24  1  0
 12 17  1  0
 12 20  1  0
 12 23  2  0
 13 20  1  0
 13 21  2  0
 13 22  1  0
 14 15  1  0
 14 16  1  0
 15 16  1  0
 17 16  1  1
 17 21  1  0
 18 20  1  0
  1 25  1  0
  2 26  1  0
  3 27  1  0
  4 28  1  0
  5 29  1  0
  6 30  1  0
  7 31  1  0
 14 32  1  0
 14 33  1  0
 15 34  1  0
 15 35  1  0
 16 36  1  0
 18 37  1  0
 18 38  1  0
 18 39  1  0
 21 40  1  0
 22 41  1  0
 22 42  1  0
M  CHG  1  21   1
M  END
>  <OMEGA_C>  (26) 
SqXTQMHQS78RAbLBKNvBQE6D57+nm6vBQCXPQL2ADT90B6/BuualQJgq9b2CY5/Bxka0QHJmZsBg
PpjBEg5hQBazGsASwZbBvx51QARajMDu24zB+POqQJIxvL+fRaLBIhSaQLIrIcAmMJvBzNW3QBtP
aT+zt6XBsH6kQHEQkcAT35DB0gTaQA+MSUDgNaHBku+9QPfvbUAdHbHBT3xmQFezbkCnPJjBjTVI
QA/sEUB9vJnBcPmTQMy8JUBJ4JjB4JuwQGFUGUAs8aLBo9MAQWARnEB65KvBN8lCQF8rVsBv1Y/B
+C/bQBVZg0C6RanBpraeQGNMQ0DlhqzBEg7EQFFQd0CcDLzBNB/0QKFEPUCiDZrBlpO9QEixscDy
jI3BzczkQHvphr8oN7nBKLfFQC4WNsCR1q3BPJXdQKp4qT/e4bPBcSCUQHqUCD7RQpjBQu/TQEdq
bcCtmJvBjOk4QCpoyr9L75jBuXxcQHvBo8AaTIfB/dNgQGBdjkCY257BtE5bQNXjh0B4mJDBJU0n
QJAf4T9AK5PBbtIsQL4F+z9fbqHBSRijQB/6E0DrPpHBG5j6QKQaskAfhrLBneMFQbOHrkAv16TB
dLsNQQwehkADR67BmmiAQAblP0CJD6/BxpyvQDs5XEBTMMHB9+fcQGGUjEDRyb7BW3DIQAg+Ar+5
yLHB4tq7QCgF1b+jOKzB/9HGQMhqPj9ws6zBdMuqQCAbn75FmJzBRo1xQMPlLsCo5pXB2Ge6QFRD
d8DgOZvBdYGKQG0In8CJ14/B3HusQH42x7+ZqKHBXmufQGwML8D/qZvB0M+4QCCrVz+O66HB3Rxc
QHnvd8ADAJDBdjq/QC6yV0Cwr6LBbIt/QPrKZUB48ZnBYv3LQMC6UUAK24jBsAq7QHSC7z9KYobB
zXvQQC4CCkCxU5HBFlu1QG7qCUBE75vBnOSgQPsatUDJQKLBjOKvQLxansAMV5XB7qecQAG+hkB+
FKHBrw2IQNZSFEDQj5nBfLxDQG/8hED1JJPBTOrgQPoGaUBLP6fBSKERQInvesAbhorBYlnTQOg3
Fb/19bnBCPS9QBxtKMCYBrDBFz/QQIEI0T8kALHBkJ2eQD1dcr7lh5TBpcxHQNOk7791BpbBywfY
QMcXd8DtrJ/BUUyCQJgUu8DNOovBum61QKJag0DgMIrBc4joQD7jaUAkr4TBQ3TLQJj1nj8rcoDB
ilqYQKKZ2D/n84XBN//wQGHu3z+7NJLB++CBQJ1zxEC6o6DBMd+4QNsPwUDTi5zBuiCrQNOvvEDu
dKrB7mVmQNIWyz/q8JfB0aokQM5ZZUA+243BY5Y3QFBepED4hJPBBXnCQKj1Dr+sebLB+Ta1QNx8
1L9WXazBDUvGQFgWNT8ruK3B0ravQOBXaL79npzBsyCEQE1uIcAM2pHB0OOsQL/SfsCam53Bzo2H
QNufncB3M4/BzROsQLbgwL/IWqHBheqeQFBeK8CH3JrBw6y7QDggZj8AzKLB3btwQEtFasBM+4vB
Tfa1QC73W0ApHaXBygaEQAqmXEDGq5fBBiMKQRJjMUBnqZ3BHxMAQYItcECjlpXBm2DrQDqAGECp
l5fBlGu/QPq4EUDEZ53BQN15QI0Kp0AOHqbBWkShQBEyosCi2JfBUp+TQBXag0BhtaDBKFydQPQ2
HEA1SJXBTb0/QHo7c0Bd1ZHBUbzJQDbqcUA7Iq3Boxs9QGXHYsAjWIPB1cHJQDtRL79F3LrBj/mx
QJtHKMB0FrDBw23RQBSXxT+sbLLB5UepQCG/272oL5TB4r9xQMmbxb9EhI/Bv2DBQISRg8DjfKTB
FPR8QDmeucC/q4rBDW8JQeExP0CdSKbBOWEZQSaZEUAkxpvBACIIQSQ3fUDE743BqF/wQO9nlUA9
cpjBERPwQM/70j/cJZHBHyJGQB7bskBD7qDBMIKTQMU2wUAxyKfBMI5eQD9Xm0C6rq3B0AqaQOc8
7j/i0I7B9F4vQEeSUUAiWIvBxxocQCmRkkDpH5TB

>  <OMEGA_E>  (26) 
HxuAP9SDkz8BfZI/

>  <OMEGA_NBR>  (26) 
     10061

$$$$
