50157506
     RDKit          3D

 58 62  0  0  1  0  0  0  0  0999 V2000
    4.8592    4.3341  -22.7683 C   0  0  0  0  0  0  0  0  0  0  0  0
    5.1412    5.1675  -23.8661 C   0  0  0  0  0  0  0  0  0  0  0  0
    7.2098    4.3566  -22.1459 C   0  0  0  0  0  0  0  0  0  0  0  0
    5.8891    3.9424  -21.8735 C   0  0  0  0  0  0  0  0  0  0  0  0
    6.4719    5.5870  -24.1198 C   0  0  0  0  0  0  0  0  0  0  0  0
    7.5010    5.1313  -23.2766 C   0  0  0  0  0  0  0  0  0  0  0  0
    6.3099    3.4301  -19.4128 C   0  0  0  0  0  0  0  0  0  0  0  0
    4.0520    3.4898  -19.0787 C   0  0  0  0  0  0  0  0  0  0  0  0
    6.6870   -0.6500  -23.0282 C   0  0  0  0  0  0  0  0  0  0  0  0
    7.4099   -1.0827  -20.6480 C   0  0  0  0  0  0  0  0  0  0  0  0
    4.9870   -1.3570  -21.3043 C   0  0  0  0  0  0  0  0  0  0  0  0
    7.3875    1.2633  -21.5617 C   0  0  0  0  0  0  0  0  0  0  0  0
    4.9594    0.9909  -22.2140 C   0  0  0  0  0  0  0  0  0  0  0  0
    5.6865    0.5491  -19.8219 C   0  0  0  0  0  0  0  0  0  0  0  0
    7.6551   -0.2155  -21.9027 C   0  0  2  0  0  0  0  0  0  0  0  0
    5.2211   -0.4891  -22.5628 C   0  0  1  0  0  0  0  0  0  0  0  0
    5.9477   -0.9284  -20.1711 C   0  0  2  0  0  0  0  0  0  0  0  0
    5.6029    2.9849  -20.7004 C   0  0  2  0  0  0  0  0  0  0  0  0
    5.9126    1.4751  -21.0687 C   0  0  1  0  0  0  0  0  0  0  0  0
    5.5224    4.0853  -17.1143 C   0  0  0  0  0  0  0  0  0  0  0  0
    5.7715    7.0398  -25.9239 C   0  0  0  0  0  0  0  0  0  0  0  0
    9.3907    6.4292  -22.7565 C   0  0  0  0  0  0  0  0  0  0  0  0
    5.3075    3.5563  -18.4664 N   0  0  0  0  0  0  0  0  0  0  0  0
    4.1816    3.1066  -20.3235 N   0  0  0  0  0  0  0  0  0  0  0  0
    2.8342    3.7594  -18.4752 N   0  0  0  0  0  0  0  0  0  0  0  0
    7.5121    3.5111  -19.1853 O   0  0  0  0  0  0  0  0  0  0  0  0
    6.8351    6.4251  -25.1671 O   0  0  0  0  0  0  0  0  0  0  0  0
    8.8083    5.4117  -23.5855 O   0  0  0  0  0  0  0  0  0  0  0  0
    3.8490    3.9888  -22.6047 H   0  0  0  0  0  0  0  0  0  0  0  0
    4.3419    5.4887  -24.5176 H   0  0  0  0  0  0  0  0  0  0  0  0
    8.0067    4.0730  -21.4743 H   0  0  0  0  0  0  0  0  0  0  0  0
    6.8573   -0.0234  -23.9161 H   0  0  0  0  0  0  0  0  0  0  0  0
    6.8743   -1.7039  -23.2818 H   0  0  0  0  0  0  0  0  0  0  0  0
    7.6034   -2.1377  -20.8918 H   0  0  0  0  0  0  0  0  0  0  0  0
    8.0899   -0.7612  -19.8453 H   0  0  0  0  0  0  0  0  0  0  0  0
    3.9478   -1.2324  -20.9656 H   0  0  0  0  0  0  0  0  0  0  0  0
    5.1674   -2.4132  -21.5530 H   0  0  0  0  0  0  0  0  0  0  0  0
    8.0800    1.5791  -20.7675 H   0  0  0  0  0  0  0  0  0  0  0  0
    7.5567    1.8748  -22.4602 H   0  0  0  0  0  0  0  0  0  0  0  0
    5.1306    1.6070  -23.1091 H   0  0  0  0  0  0  0  0  0  0  0  0
    3.9158    1.1038  -21.8853 H   0  0  0  0  0  0  0  0  0  0  0  0
    4.6474    0.6582  -19.4776 H   0  0  0  0  0  0  0  0  0  0  0  0
    6.3729    0.8548  -19.0186 H   0  0  0  0  0  0  0  0  0  0  0  0
    8.6948   -0.3371  -22.2406 H   0  0  0  0  0  0  0  0  0  0  0  0
    4.5398   -0.8081  -23.3654 H   0  0  0  0  0  0  0  0  0  0  0  0
    5.7784   -1.5563  -19.2839 H   0  0  0  0  0  0  0  0  0  0  0  0
    4.5707    4.0811  -16.5628 H   0  0  0  0  0  0  0  0  0  0  0  0
    6.2546    3.4564  -16.5867 H   0  0  0  0  0  0  0  0  0  0  0  0
    5.9035    5.1151  -17.1799 H   0  0  0  0  0  0  0  0  0  0  0  0
    6.2015    7.6718  -26.7149 H   0  0  0  0  0  0  0  0  0  0  0  0
    5.1461    6.2577  -26.3790 H   0  0  0  0  0  0  0  0  0  0  0  0
    5.1557    7.6586  -25.2546 H   0  0  0  0  0  0  0  0  0  0  0  0
   10.4338    6.5989  -23.0616 H   0  0  0  0  0  0  0  0  0  0  0  0
    8.8200    7.3631  -22.8669 H   0  0  0  0  0  0  0  0  0  0  0  0
    9.3643    6.1054  -21.7056 H   0  0  0  0  0  0  0  0  0  0  0  0
    3.4162    2.9203  -20.9395 H   0  0  0  0  0  0  0  0  0  0  0  0
    1.9860    3.6645  -18.9963 H   0  0  0  0  0  0  0  0  0  0  0  0
    2.8035    4.0490  -17.5185 H   0  0  0  0  0  0  0  0  0  0  0  0
  1  2  2  0
  1  4  1  0
  2  5  1  0
  3  4  2  0
  3  6  1  0
 18  4  1  6
  5  6  2  0
  5 27  1  0
  6 28  1  0
  7 18  1  0
  7 23  1  0
  7 26  2  0
  8 23  1  0
  8 24  2  0
  8 25  1  0
  9 15  1  0
  9 16  1  0
 10 15  1  0
 10 17  1  0
 11 16  1  0
 11 17  1  0
 12 15  1  0
 19 12  1  6
 13 16  1  0
 13 19  1  0
 14 17  1  0
 14 19  1  0
 18 19  1  0
 18 24  1  0
 20 23  1  0
 21 27  1  0
 22 28  1  0
  1 29  1  0
  2 30  1  0
  3 31  1  0
  9 32  1  0
  9 33  1  0
 10 34  1  0
 10 35  1  0
 11 36  1  0
 11 37  1  0
 12 38  1  0
 12 39  1  0
 13 40  1  0
 13 41  1  0
 14 42  1  0
 14 43  1  0
 15 44  1  6
 16 45  1  6
 17 46  1  1
 20 47  1  0
 20 48  1  0
 20 49  1  0
 21 50  1  0
 21 51  1  0
 21 52  1  0
 22 53  1  0
 22 54  1  0
 22 55  1  0
 24 56  1  0
 25 57  1  0
 25 58  1  0
M  CHG  1  24   1
M  END
>  <OMEGA_C>  (1) 
iX6bQI6wikBkJbbBXoSkQMhbpUDW7b7BBbfmQEdpi0DDKrHBMHO8QHtQfEDX/K7BgxnPQFXIskBz
9cDBfQjwQEkzpEBgNrrB3erJQJyGW0BkTZvBS6qBQNhYX0AqoZjBSPzVQKdpJr++ObjBLR7tQFqV
ir8XL6XBGZWfQLyxrb8jb6rBi2bsQO+yoT9IfqzBZbOeQNSpfT9ftrHBc/e1QMiSDD88k57BRvb0
QLCiXL65OK/B5hKnQBpx+r6bgLTBSVO+QK6tbb9/XqHBvUqzQIkIP0BhmqXBTDS9QA7RvD+0jKjB
y7ewQA+7gkAe6ojBd7C4QG5G4UAaZM/BaEAWQUO8zUBbDbbBIdepQPKaY0BJu5PB4c+FQAjSRkB4
lqLB4WM1QH+acEAdzZPBRGPwQG+1YECGe5nBgrnaQIKazUBIVsnB0e4MQaIsrUAqr7zBO1Z2QA1J
f0Bn1rTBqPCKQCKjr0D8I8TBeBsAQbpVgkB3y6vBTG/bQOgIwLwpVL/B9fnbQCQa2r8RQbrBVE/z
QHnQCMBsIqfBQHABQSzcQr88w57BGal8QH6+nb+WuafBGVulQMBxGsCUbKzBjUcBQaIgyj/DI6bB
P9DxQIb67z+ArrPB9y2kQB6yzT9k37jBGpx6QPJKjT8MFa/B3reUQOeBKD8X0pvBLe/LQCvTWj8R
JpjB2x0LQZ6brL637LHBY0aRQJ7iTr9a7LrBB+m4QCY1x7+ARZrBI0OSQH2YgkCcgITBjSXIQOY0
XUChsYTBdOm8QDCvo0BwcInBwnLGQL9/9UAbuNXB06ykQHs/yEA0CNPBj/ukQN8S9UBkCcrBCvEm
QVYq00A/frjBuB4NQWqe60Bw77bBG9QVQXFfw0ASpa3BR6NaQEfmOkAIhKfBQzb+P/iGakBb+JfB
Jm0zQBSRgUDXJYzBRxqdQOj4h0Bq0rbBLiGlQKVCo0B3hL/B0yTnQK45j0C0DLHBMc29QNIJfECj
W6/BFVHOQLomtUB3AcHBOVTvQLkJq0ANybnB1tfKQE6rXEC3hpvB3z2CQJctYkCmGJnBnXLrQO8l
j7+HiKTB3z2eQFZ3rb+tKarBVmbWQHAlNr/SvLfB29C0QLt4ED8+dJ7BARftQBFNnD+HHazBQM2f
QOcXej9aybHBDXG8QD3+bL/P/aDBF9X0QMTci77boa7B5EunQMnPA78LTbTBOY60QJBMP0DG2KXB
Tri9QOCcuz8zgqjBMZewQDTFfkC974jBvwK2QBKA40A8Qc/BAEIbQY5eu0ACbrPBRkKqQAK5cEB0
cZTBA++GQBN1SECo/KLB18Q1QAZjbUCULZTBFw3xQHl9WkCfTZnBW8jYQBxH0ECxa8nB5nkLQXqA
vUB2yrvBRS97QM+/dECvzbXBBseLQB2hqkDDF8XBu2MAQcMVh0DNn6vBF24AQQ8CTb/sBp7B0g3x
QCmQC8D2VabBF3ajQB/XGsDX96vBfq95QFDlmb/pqqfBntfcQNS/173v5r7B8+7bQEX84r+6krnB
j2CTQKyCMz/J7pvBkFHKQByGXj+D7ZfB0mYBQQlIxD/Rp6XBK6TzQGOH6D+gVLPB+XCmQFgJyT+s
AbnBjX58QPhdjz/6Yq/BIwG2QM1RxL8p1pnBbyALQaIw2L6sH7HBE+GRQB9EVb/fzbrBkq+RQNLY
hkDRKIXBywu+QJWZREDLS4XBuMvGQP5EmkB2u4fB/enCQE4F+EC/otXBuAyiQMU8ykC1z9LB0H2i
QNXs9kAGxsnBlAsqQfEny0DIHLbBNiUVQQyky0DwP6zBGKYeQaysmUDbh7HB/lZdQI9/PEDi+6fB
g63/P7ufYUAZOpjBPekyQDmegEC3lIzB09+aQMs/i0DbD7bBTQqkQHjupUAc177B+jzmQMAPi0AP
MbHBAuq7QMKOfEDB+a7BX83OQAWpskCf8cDBhLHvQCZno0ANR7rBwenJQDloXUASaZvBsIWBQNDH
Y0AFw5jBEMifQN94rL8AiKrB3KjWQO0gJb+dN7jBKyTtQATeib8zIKXBTUSfQBcEgD990bHBTsG1
QP7NDj9+nZ7B4bnsQBE+oj+IcKzBf6anQKIZ9r69lrTBpju+QByNa79TZqHB4lb1QLZtWL63Jq/B
2wyzQFRfP0CYmqXBnF69QFq+vT94kKjBse2wQJODg0D7/YjBCvO4QC524UDzXM/BLmkWQQxjzUAk
MbfB9M2pQEYFdUAwYpTBmpqFQPGZRkAKh6LB8g81QJCYb0C2r5PBmUDwQNzdW0COU5nBQbjaQIwl
zUDMW8nB7dUMQRaOqkD+7rzB++l0QFqQgEA5tbTBfneKQBa9sEBT/MPBjK//QBjzgUDFzqvBjuN8
QI5LnL+75KfB35GlQMDbGcBSgazBv6bcQNGI2b/uObrBbGLcQHTin7wjUL/BRlwBQdqRQb87qp7B
LVbzQNp8CMD9DqfBVCGlQGXZzj/39bjB6YN7QCXJjj9oSa/BP2eUQIy1Kj+R8JvBGHrLQKQGXT/r
IpjB3V0BQVGgyj9YDabBFFfyQL1z8D8Ln7PBjAiSQNZ4TL8PDbvBGJC4QHIyxr8fUZrBS1kLQVP1
qr6qyLHBLV+SQOInjEACMoXBvyS+QIHPTUBKEoXBlJ7HQIk5nkCwLIjBhvPGQG1U9UBuutXBxk+k
QETTyEDn89LBg9ClQPe49UC8/MnBYycnQQkr0UAGvLnBJ4wNQSsK60Dm4LjBsN4VQUKrxkDVjq7B
ryVaQD8xN0A+SqfBWzv9P0qPYUD7gZfBjT8zQAYUg0AONIzBL8boQGaUjUBPg7HBsRbwQDX5qUCo
FLrBKmWeQDiFh0C707bBnVq/QMUYeUBsrK/Bn33OQBGOtkCl88DBePikQG39pEDqIL/BqT3LQHUS
XkDC7ZvBdaiCQM0lY0AGcZnBhiifQHxstL8+sajBtODRQKG9S7/UmbfBNMXtQEgejL+ly6TBRWSc
QKsTZD/H8bDBzy+4QEeiFD9VEZ7BiUbrQA6SmT+3Fq3B0gSkQOX2G7+UN7PBtPq/QJVpar+GU6DB
+A3zQPq7mL4zUa/Bqxi1QJANPkB7F6bBj1q9QNL8tz84g6jB2Q6xQAcXh0CD04nB5QW7QEY/3UBJ
ctHBSn5dQBXrkEDPRsvBFZ+qQC0Kd0BUFZXBuGGHQCUkSEAhQ6PByag2QPlra0AcZ5TBVonxQBNj
XUDQzJnBBTfZQNEr1EBS6sjB5XuBQMzasUAJuMTB03MBQcO5hEBFT6zBZfYHQYFRtkABarvBr5V+
QDzScUAI6LXB/DV9QGeeor/eiKXBs6qkQEKIHsDpTqrBV3bXQAZh7r9vPrnB1m3VQPKMYb4WDL/B
coQCQZN/Or9v4J7BiZrzQAtXCsCXXabBZe+fQN1iuj8UcbjBNIp3QGk2gz9T0a3BtYyXQA/2NT+v
8JrBonLPQKdvbT8BE5jBq4EBQaQExz+YPqfBotPuQGKj4T+omLTBQKOMQA/nd799IrnBRXK8QOcU
v78Z45jBLsoJQad44r6PerLBcySSQI64j0DINobBRNm+QGppV0DogIXB3wXHQDmFokAaUYnB39jI
QBca9UDT6tbBAyS0QESkv0CD4tXBYjGdQFLe6UBSAM7BZjYlQGDTnUDMds/BTGWGQLLahUC9LdHB
B91JQGfPa0AvMsbBzkBeQDXRO0B5P6jBpeoAQIhQXECcUJjBmbEzQEQ/gECj24zBCb/oQPwjjUBZ
obHBSiXwQBacqUDILbrB8M2dQP5eiUBzjrbB2BW/QOIGekAMo6/Bc2vOQCg0t0CH48DBRY+kQNTc
pkDx1r7BejXLQEyRXkCN95vBLLOCQL4jY0DGbZnBV/XRQF7BS78AkbfBrIntQHgBjL+/uqTBmfae
QCa1s7/HtajBlU3rQMSgmT9uDa3Bm3ucQFafZT9++7DBBve3QIjcFT8IE57BNgjzQFgqmb79QK/B
fwukQITHGr8fPLPB1q+/QIRjab/yT6DBGgG1QCBdPkB8GqbBdlW9QAyKuD+xhajBsiWxQLgoiECa
74nBXje6QMKr4EDW9NDBbPRiQHJZkkCWo8vBiaKqQHGJeECdKpXB3FOHQHn1R0CcPaPByPI2QCzp
aUCpT5TBnYPxQD+rXUAb2ZnBr8HZQGSu00C3EcnBjT6BQDwRs0CujcTBa4IBQfaHg0CbjqzBXBYI
QRU8tUCgn7vB0p98QFOmd0CIdrXBgK/VQAmhY75hBL/BoHvXQKF97r8iMLnBiFfzQFVRCsB9SKbB
ZVwCQVtYOr83yp7BYb18QH+Zob/dlaXB0WykQFA0HsDgUKrB5nwBQakPxz8AMafBoP/uQEp14T+I
kLTBTzKgQMUBuz/xerjB26J3QLFWhD895K3B8UqXQDHONz/w+ZrBGirPQAVubj8HEJjBjcwJQfsY
5L7LYbLBLbyMQOF3dr99LLnBMPy7QGVtvr9r35jBvkySQPwskUClWIbB17G+QPSbWUDLjYXBZVjH
QK1qo0A1e4nBPf7IQEbw9kAIr9bBLGyuQFVLxECJP9XBMFOfQMmd8ECe6czBZXEqQCVYnkAb8s/B
55KKQNfLiUBebdHB5zBRQIvKa0BY9cbBbxBeQPE5O0CvMqjBUkcBQBh/WUD0J5jBhgs0QEQ1f0Ce
xozBUDGeQKPehEBiKrfBNeinQCFTn0AB77/BMu7lQCdskEAdI7DB8Py8QMySe0CjBa/BmCTQQMWR
s0C2nsDBRYPvQC5hrED7rLjB7rfJQNAjXEA8NpvBtliBQGogZEByvZjBcNqtQB/xgb9wUbbB6mv5
QDN3Rr/rYq/BLQu+QM79vr9G46LBb9fOQLF0oj9Hd7TBAnGTQDdtDT+Q7qfBzFnfQIODST9DDKHB
Me3XQGGcVL4RSbfBklOcQOdhbb/JwKrBszPoQBiTML8YzaPBs1mzQGwoPkDzpKXBjR29QAW+tj87
tqjBOKawQE/FhkDSE4nBvVjMQM7A+UBQmcfBgakaQWzOu0AZ6rDBL3ipQJGOaUCT0pPB8qSFQKLR
SkDktaLBu5w0QDdjdUCQ35PBWQfwQEIuYkDfK5nBxv/YQIDJzUCJMMnBgXALQbf7wEC8nLnBBkN+
QOG9a0AkobbBU3eQQLwopECTKsbBm3H+QIYdiUDBU6rBVgOWQPaOGr+45LvBdhq0QNBaBMDBVLjB
N/z/QAzI6b/qZLHBQZMLQeAeRL65A7DBNsCxQNhOtb8CqprBEUXEQF0II8Df0qTB4rzsQHDZ6z/Y
MrXBcwO3QKVK1T8+HLrB1dx2QN1icz/Rha3BQ/WGQD9kGz8nt5/Bo4nTQAzdWD+rxZjBCWX9QDhC
rT/Uv6HBuznkQD6/jb4dg7/Bjhp9QNQYwb+cHarBIAcAQRLcjL/iOZ7BK/qRQPnWiEB7yoTByrTG
QNjxY0AHm4TBVaO+QB7wpkDKz4nB6m/UQNZIBkF8wc7BN6GpQPFF+0BMMsbBJFPdQKp2A0ERocDB
cFspQcy7zUDcv7LB1J4TQWcUyEC6dKnBqIYeQUmumUAk9K/BbU9aQLs7QUD8t6fBr2z8PwrAbkBN
AZjBmtMyQAs5hEBPPYzBTh/aQC3moECI6a3BjKvjQMpwu0CvorbBwZOnQAIxc0Ak8rjBkHm8QH13
fUAZ/q7ByKTQQP8KtEBRqMDBNguzQNtQkkAT+sHB1X/JQHGQWkC5VpvBFgGBQCPeY0DsypjBIfXE
QAXySr9Ti7jBUjH4QKIBbb/H8KjBo0+qQE5qwr+aVabBdITjQBCrqD/sg7DBX6GUQPA6Nj/Ryq3B
XBPIQBhlGT9+T57BdxztQOR2Ib4PULPB162eQOAuQb+sqrDB0fPRQJUnYL/6DaHBt6qyQLnCPkAk
rKXBwYa8QC0TuD/ImqjBNrWwQAd4hkApKonB4/e+QGMW80DLFMrBbUmIQHfQSUCUns3Bl1epQA53
aUCc65PBcCOFQIodSkDdwKLBcPgzQMMzdUBr6JPB4y/wQEELXUDIopnByMPaQIRazkC9G8nBR+2h
QG4xi0ATHczB7HbpQGd+pkAzTKbBoMT5QO631UBYprXB2UOOQPJ7REB9qrnBkaS8QECqa76W0L/B
8fLLQJU3678Wq7rBUVn/QOSu/L/+6qrBqi0KQevX7b6CKqXBQCqPQEcuvb/rvaDB+mWxQPVUJMAk
T6jBdPf/QKFx4T8WvazBMQDcQKya7j8R67fBWWiLQEnanz85HrXBe8pzQHNnOz/6EajBStmsQJrM
IT87vZjBrFrkQNHShT+OeZrBBB4EQXq0Vb4l6LjBG4WCQOXum7/VbLTBrijaQGUvtr86tJnBfwKS
QEYqiUBq6YTBszrGQNtTYkDKrYTBgWa/QB5VpkDK3YnB7PnIQD1DA0Ff+tDBcc6dQPRB6EBHQcvB
SfLAQOY5A0HOv8LBHO55QL3uRkCt8dXBFNabQLL1EEC538vB+kRZQLmHS0CxLcjB+EBZQGiMP0BG
uafBQvr6P+9DbkDdA5jBllIyQLJNhECJSYzB

>  <OMEGA_E>  (1) 
gLzSPSB32j1Q1Nw9GCMePphJHj7wD1U+QGJdPg==

>  <OMEGA_NBR>  (1) 
     74788

$$$$
50157432
     RDKit          3D

 50 54  0  0  1  0  0  0  0  0999 V2000
    6.6194    5.4667  -23.9902 C   0  0  0  0  0  0  0  0  0  0  0  0
    7.6220    5.1039  -23.0734 C   0  0  0  0  0  0  0  0  0  0  0  0
    5.3144    4.9650  -23.8389 C   0  0  0  0  0  0  0  0  0  0  0  0
    7.3193    4.2524  -21.9961 C   0  0  0  0  0  0  0  0  0  0  0  0
    5.0062    4.1158  -22.7613 C   0  0  0  0  0  0  0  0  0  0  0  0
    5.9999    3.7652  -21.8086 C   0  0  0  0  0  0  0  0  0  0  0  0
    6.3510    3.2555  -19.3303 C   0  0  0  0  0  0  0  0  0  0  0  0
    4.0888    3.4492  -19.0576 C   0  0  0  0  0  0  0  0  0  0  0  0
    7.2662   -1.3065  -20.4985 C   0  0  0  0  0  0  0  0  0  0  0  0
    4.8274   -1.4893  -21.1382 C   0  0  0  0  0  0  0  0  0  0  0  0
    6.5540   -0.9020  -22.8830 C   0  0  0  0  0  0  0  0  0  0  0  0
    5.6176    0.4128  -19.7041 C   0  0  0  0  0  0  0  0  0  0  0  0
    7.3470    1.0223  -21.4613 C   0  0  0  0  0  0  0  0  0  0  0  0
    4.9099    0.8341  -22.1064 C   0  0  0  0  0  0  0  0  0  0  0  0
    5.8127   -1.0805  -20.0201 C   0  0  2  0  0  0  0  0  0  0  0  0
    7.5457   -0.4777  -21.7736 C   0  0  1  0  0  0  0  0  0  0  0  0
    5.0985   -0.6646  -22.4180 C   0  0  2  0  0  0  0  0  0  0  0  0
    5.6527    2.8286  -20.6304 C   0  0  2  0  0  0  0  0  0  0  0  0
    5.8863    1.3014  -20.9711 C   0  0  1  0  0  0  0  0  0  0  0  0
    5.5390    3.9694  -17.0529 C   0  0  0  0  0  0  0  0  0  0  0  0
    5.3319    3.4724  -18.4184 N   0  0  0  0  0  0  0  0  0  0  0  0
    4.2291    3.0222  -20.2864 N   0  0  0  0  0  0  0  0  0  0  0  0
    2.8687    3.7759  -18.4869 N   0  0  0  0  0  0  0  0  0  0  0  0
    7.5478    3.2437  -19.0633 O   0  0  0  0  0  0  0  0  0  0  0  0
    6.8514    6.1303  -24.8101 H   0  0  0  0  0  0  0  0  0  0  0  0
    8.6268    5.4801  -23.1969 H   0  0  0  0  0  0  0  0  0  0  0  0
    4.5479    5.2322  -24.5512 H   0  0  0  0  0  0  0  0  0  0  0  0
    8.0983    3.9665  -21.3048 H   0  0  0  0  0  0  0  0  0  0  0  0
    4.0043    3.7264  -22.6570 H   0  0  0  0  0  0  0  0  0  0  0  0
    7.9620   -0.9971  -19.7047 H   0  0  0  0  0  0  0  0  0  0  0  0
    7.4137   -2.3739  -20.7198 H   0  0  0  0  0  0  0  0  0  0  0  0
    4.9550   -2.5588  -21.3615 H   0  0  0  0  0  0  0  0  0  0  0  0
    3.7971   -1.3058  -20.7993 H   0  0  0  0  0  0  0  0  0  0  0  0
    6.7471   -0.3091  -23.7892 H   0  0  0  0  0  0  0  0  0  0  0  0
    6.6943   -1.9698  -23.1067 H   0  0  0  0  0  0  0  0  0  0  0  0
    4.5842    0.5756  -19.3642 H   0  0  0  0  0  0  0  0  0  0  0  0
    6.3163    0.7049  -18.9062 H   0  0  0  0  0  0  0  0  0  0  0  0
    8.0547    1.3234  -20.6748 H   0  0  0  0  0  0  0  0  0  0  0  0
    7.5396    1.6086  -22.3719 H   0  0  0  0  0  0  0  0  0  0  0  0
    5.1109    1.4184  -23.0164 H   0  0  0  0  0  0  0  0  0  0  0  0
    3.8730    1.0059  -21.7819 H   0  0  0  0  0  0  0  0  0  0  0  0
    5.6212   -1.6807  -19.1184 H   0  0  0  0  0  0  0  0  0  0  0  0
    8.5776   -0.6532  -22.1117 H   0  0  0  0  0  0  0  0  0  0  0  0
    4.4008   -0.9705  -23.2114 H   0  0  0  0  0  0  0  0  0  0  0  0
    4.5688    4.0516  -16.5410 H   0  0  0  0  0  0  0  0  0  0  0  0
    6.1857    3.2702  -16.5025 H   0  0  0  0  0  0  0  0  0  0  0  0
    6.0179    4.9589  -17.0917 H   0  0  0  0  0  0  0  0  0  0  0  0
    3.4693    2.8489  -20.9130 H   0  0  0  0  0  0  0  0  0  0  0  0
    2.0279    3.6904  -19.0213 H   0  0  0  0  0  0  0  0  0  0  0  0
    2.8293    4.0971  -17.5407 H   0  0  0  0  0  0  0  0  0  0  0  0
  1  2  2  0
  1  3  1  0
  2  4  1  0
  3  5  2  0
  4  6  2  0
  5  6  1  0
 18  6  1  6
  7 18  1  0
  7 21  1  0
  7 24  2  0
  8 21  1  0
  8 22  2  0
  8 23  1  0
  9 15  1  0
  9 16  1  0
 10 15  1  0
 10 17  1  0
 11 16  1  0
 11 17  1  0
 12 15  1  0
 19 12  1  1
 13 16  1  0
 13 19  1  0
 14 17  1  0
 14 19  1  0
 18 19  1  0
 18 22  1  0
 20 21  1  0
  1 25  1  0
  2 26  1  0
  3 27  1  0
  4 28  1  0
  5 29  1  0
  9 30  1  0
  9 31  1  0
 10 32  1  0
 10 33  1  0
 11 34  1  0
 11 35  1  0
 12 36  1  0
 12 37  1  0
 13 38  1  0
 13 39  1  0
 14 40  1  0
 14 41  1  0
 15 42  1  1
 16 43  1  6
 17 44  1  6
 20 45  1  0
 20 46  1  0
 20 47  1  0
 22 48  1  0
 23 49  1  0
 23 50  1  0
M  CHG  1  22   1
M  END
>  <OMEGA_C>  (2) 
ANLTQF3vrkDr67/Bt+fzQGlTo0A6lrjB5w+qQE3hnkACtr7BnTfqQLYTiEDq96/BAjOgQPG0g0Af
F7bB+v6/QFL5cED4d67BZDvLQJpaUEB/pJrBw9eCQOi/XEDvdZjB6YToQDs8p78F/aPB/nmaQD2i
vr/8GqnBE7rRQNnnZr9cELfBqcOzQGBV0z7ooZ3BpBrrQJLbgj/AsKvBlB2dQNmFVT/x2bDBjgG6
QDRMir8lKaDBXHbxQOqP9L5uMK7BSSejQMUhKr8PWLPBpuK0QCcINUARC6XB+Vy8QH2Vpj/KxKfB
Lj+xQBwKfkBQbIjBjp6qQM47XkDXWJPBt1SHQJRrQUCQSqLBNJk3QKWocUAj5ZPB7YfxQG2ZT0Cx
gZjB3D7bQForxEARe8bBdwcKQWNdr0BAk7nBwoiRQIBup0DwaMTByJIBQbbbfUBUcKrBNyOAQHp9
bkByQbXBhsj+QJNCf786o53B9TztQPDtF8A6wqXBBo+eQAzEI8BQ5KrBhQNzQO0lp78KZabBWejX
QMQ8nr4xUL7BazfWQM0i/L9+2rjBnbGSQBFYEz/66ZrB5x7KQOdyND/mP5fBEOAAQVhlqT8XZqXB
qETxQETlzT+y+bLBO4yjQAePtT+nIbjBld53QGfBgD9TQa7B5uCzQAsi17+I8pjBCj4JQSY4J7+7
5LDBLNOMQHNweL8IsbnByjOSQFWmgUDhU4TBoPHFQH1LUUAzBYTB45LAQPGunkC2u4jBcgheQF9U
NkDaTafBZ8gBQD4wbECvK5jBaBM1QHgbg0BUU4zBgQHVQDoJr0Ai97/BRNH0QPJUo0DMkbjB2CWr
QL4in0Bq1L7BpcLqQNwgiEDF+K/BjeagQOgFhEBfOLbBd23AQBllcUCuiq7B+FPLQPUtUUD6uJrB
AuKCQId3XEAIepjB/2WaQGU6vr9U0KjBqbrQQJjLaL9WArfB/7ToQATCpb9w/aPB2micQLjxVD/b
srDBq0i0QCd22z4tjp3Bh7rqQM1fgz813qvBSWKiQMhcK78MIbPBmGu6QCKSiL+yAqDB2/3wQF/f
877vR67BnvS0QNa8NUA+HKXB/zy8QMGGpz+ExqfBenmxQGZkgEDPk4jB4sWqQHJ/X0DWbZPB62qH
QJnHQkDMYKLB8I43QGYvb0B8y5PB0ZrxQCy9T0BLkZjB+rTcQP04xECpg8bBR4UKQfpCr0CzfrnB
jdSSQArCp0AClMTBi78BQcPBfUAMZqrB4MKAQJNob0AHcbXB3ydzQN3Qpr9n/aXB6nieQMWiI8Co
jqrB+iHVQH1H/b+QwLjBcnXWQGlopb7eUL7BSlP/QBtHer9Lvp3BeGHtQFlLF8BXtKXBx1CiQCJ5
tD/HCbjBV8t2QOSFgD8z+a3B8l+TQGHOFz8NuZrB1wLLQIE8Oj9xRpfB7eIAQfPzqj9lsaXB/GPw
QNBXzT+HOLPB1a6LQARje79PX7nBA7y0QGd+1L+zvJjBtewIQYxcJ7+sGbHBj3uSQJcQg0B1dYTB
smfGQBjmVEDlG4TBLpLAQI8joEDBB4nBokheQAwyOUBrc6fB85sBQB5TaUAyCZjBzxU1QGBGgUAW
LYzBp1nWQABwrkDcwb/BiSb2QEoDokDabLjBPT6sQNVWn0D/kL7BTtbrQCT+hkDKza/B2rOhQD2N
hECA7bXBeCbBQCG9cUCGPK7B6/LKQOUuUUB1XprB6rSCQLzdW0BhT5jB9wmnQEWClL9L77TBCoPz
QGmThL+Li67BH5m4QG/l0b8yoKHBEhrMQHFMiD+khbPBThKRQIo27D4JlKbBZ6zdQCIvFj8KLqDB
GzPSQARD2r75QbbB6hOXQEAMhL/ASanBxdDjQCEoaL8X4KLB+kS1QBNGNUCq5aTBSQS8QL1moj/F
uqfBLVKwQMU8e0AgHojB1iOqQKNqW0C9D5PBktGHQNx+RkAFWaLBt9E2QE0Mb0BaxJPB6CXxQNnD
WEBeT5jBW0feQA2Sw0DQTMbBUksLQV1BrUAca7nBevqTQIBUqEAeS8TBp04CQYTUeUA0VarBvmSB
QC9ucUDtHrXBwEuPQNMpN7/bXrrB8EKrQH9WDsC86LbBaBf4QDFUBsAQfrDBSgsJQR2UAL+Cb6/B
EVWtQGm3xL9WVJnB4+i8QHElLcBchqPBbuXqQAmuyj9TgLTBO3C0QPqFvz8hDLnBr0hyQDvJYz/y
C6zBEZ2FQC9uDD9tSZ7BuJvSQG3HLD8Y25fB1Yz8QAwyjT/rEKHBJnbdQCn0Br9Xjr7BveBwQM3a
x7+GY6jBD5L7QB2arL8pbZ3BYk2RQARcfUBa94PBmyrGQEpAUEDeyYPBOiO+QGr5nUDmZYjBbeRf
QGROQkA9pqfBdLYBQFT4bEBcOZjBAzYzQM/3fkAWCIzB

>  <OMEGA_E>  (2) 
AAAAAAAAAACAnuc9

>  <OMEGA_NBR>  (2) 
      2839

$$$$
50157457
     RDKit          3D

 57 61  0  0  1  0  0  0  0  0999 V2000
    7.3514    3.9684  -22.1510 C   0  0  0  0  0  0  0  0  0  0  0  0
    4.9874    4.4370  -22.4864 C   0  0  0  0  0  0  0  0  0  0  0  0
    7.6719    4.7668  -23.2610 C   0  0  0  0  0  0  0  0  0  0  0  0
    5.3143    5.2988  -23.5354 C   0  0  0  0  0  0  0  0  0  0  0  0
    6.0006    3.7559  -21.7729 C   0  0  0  0  0  0  0  0  0  0  0  0
    6.6578    5.4407  -23.9664 C   0  0  0  0  0  0  0  0  0  0  0  0
    6.3390    3.2486  -19.3249 C   0  0  0  0  0  0  0  0  0  0  0  0
    4.0747    3.4852  -19.0374 C   0  0  0  0  0  0  0  0  0  0  0  0
    6.7265   -0.9077  -22.8558 C   0  0  0  0  0  0  0  0  0  0  0  0
    7.1544   -1.3811  -20.4046 C   0  0  0  0  0  0  0  0  0  0  0  0
    4.8038   -1.4974  -21.3338 C   0  0  0  0  0  0  0  0  0  0  0  0
    7.3842    0.9538  -21.3128 C   0  0  0  0  0  0  0  0  0  0  0  0
    5.0251    0.8591  -22.2194 C   0  0  0  0  0  0  0  0  0  0  0  0
    5.4564    0.3652  -19.7649 C   0  0  0  0  0  0  0  0  0  0  0  0
    7.5913   -0.5390  -21.6244 C   0  0  2  0  0  0  0  0  0  0  0  0
    5.2294   -0.6422  -22.5540 C   0  0  1  0  0  0  0  0  0  0  0  0
    5.6594   -1.1300  -20.0942 C   0  0  2  0  0  0  0  0  0  0  0  0
    5.6327    2.8080  -20.6115 C   0  0  2  0  0  0  0  0  0  0  0  0
    5.8805    1.2761  -20.9720 C   0  0  1  0  0  0  0  0  0  0  0  0
    5.1333    5.9875  -26.6347 C   0  0  0  0  0  0  0  0  0  0  0  0
    5.5607    4.1288  -17.0860 C   0  0  0  0  0  0  0  0  0  0  0  0
    5.9861    6.9395  -25.7605 C   0  0  0  0  0  0  0  0  0  0  0  0
    5.3295    3.5409  -18.4155 N   0  0  0  0  0  0  0  0  0  0  0  0
    4.2020    2.9895  -20.2468 N   0  0  0  0  0  0  0  0  0  0  0  0
    2.8603    3.8500  -18.4664 N   0  0  0  0  0  0  0  0  0  0  0  0
    7.5438    3.3011  -19.1037 O   0  0  0  0  0  0  0  0  0  0  0  0
    7.0357    6.2339  -25.0418 O   0  0  0  0  0  0  0  0  0  0  0  0
    8.1437    3.5102  -21.5776 H   0  0  0  0  0  0  0  0  0  0  0  0
    3.9518    4.2894  -22.2177 H   0  0  0  0  0  0  0  0  0  0  0  0
    8.7008    4.8640  -23.5744 H   0  0  0  0  0  0  0  0  0  0  0  0
    4.5346    5.8641  -24.0243 H   0  0  0  0  0  0  0  0  0  0  0  0
    7.0383   -0.2965  -23.7155 H   0  0  0  0  0  0  0  0  0  0  0  0
    6.8665   -1.9727  -23.0930 H   0  0  0  0  0  0  0  0  0  0  0  0
    7.3061   -2.4480  -20.6257 H   0  0  0  0  0  0  0  0  0  0  0  0
    7.7601   -1.0980  -19.5312 H   0  0  0  0  0  0  0  0  0  0  0  0
    3.7431   -1.3094  -21.1112 H   0  0  0  0  0  0  0  0  0  0  0  0
    4.9457   -2.5624  -21.5699 H   0  0  0  0  0  0  0  0  0  0  0  0
    8.0114    1.2283  -20.4518 H   0  0  0  0  0  0  0  0  0  0  0  0
    7.6856    1.5459  -22.1896 H   0  0  0  0  0  0  0  0  0  0  0  0
    5.3305    1.4658  -23.0847 H   0  0  0  0  0  0  0  0  0  0  0  0
    3.9616    1.0384  -22.0030 H   0  0  0  0  0  0  0  0  0  0  0  0
    4.3945    0.5415  -19.5383 H   0  0  0  0  0  0  0  0  0  0  0  0
    6.0667    0.6253  -18.8875 H   0  0  0  0  0  0  0  0  0  0  0  0
    8.6516   -0.7297  -21.8464 H   0  0  0  0  0  0  0  0  0  0  0  0
    4.6202   -0.9137  -23.4288 H   0  0  0  0  0  0  0  0  0  0  0  0
    5.3506   -1.7448  -19.2359 H   0  0  0  0  0  0  0  0  0  0  0  0
    4.3561    6.5654  -27.1563 H   0  0  0  0  0  0  0  0  0  0  0  0
    5.7793    5.4913  -27.3739 H   0  0  0  0  0  0  0  0  0  0  0  0
    4.6586    5.2290  -25.9948 H   0  0  0  0  0  0  0  0  0  0  0  0
    4.5982    4.2583  -16.5694 H   0  0  0  0  0  0  0  0  0  0  0  0
    6.2059    3.4605  -16.4969 H   0  0  0  0  0  0  0  0  0  0  0  0
    6.0511    5.1070  -17.1980 H   0  0  0  0  0  0  0  0  0  0  0  0
    6.4492    7.6970  -26.4099 H   0  0  0  0  0  0  0  0  0  0  0  0
    5.3285    7.4346  -25.0308 H   0  0  0  0  0  0  0  0  0  0  0  0
    3.4345    2.7627  -20.8465 H   0  0  0  0  0  0  0  0  0  0  0  0
    2.0115    3.7402  -18.9837 H   0  0  0  0  0  0  0  0  0  0  0  0
    2.8358    4.2221  -17.5386 H   0  0  0  0  0  0  0  0  0  0  0  0
  1  3  2  0
  1  5  1  0
  2  4  1  0
  2  5  2  0
  3  6  1  0
  4  6  2  0
 18  5  1  6
  6 27  1  0
  7 18  1  0
  7 23  1  0
  7 26  2  0
  8 23  1  0
  8 24  2  0
  8 25  1  0
  9 15  1  0
  9 16  1  0
 10 15  1  0
 10 17  1  0
 11 16  1  0
 11 17  1  0
 12 15  1  0
 19 12  1  6
 13 16  1  0
 13 19  1  0
 14 17  1  0
 14 19  1  0
 18 19  1  0
 18 24  1  0
 20 22  1  0
 21 23  1  0
 22 27  1  0
  1 28  1  0
  2 29  1  0
  3 30  1  0
  4 31  1  0
  9 32  1  0
  9 33  1  0
 10 34  1  0
 10 35  1  0
 11 36  1  0
 11 37  1  0
 12 38  1  0
 12 39  1  0
 13 40  1  0
 13 41  1  0
 14 42  1  0
 14 43  1  0
 15 44  1  6
 16 45  1  6
 17 46  1  1
 20 47  1  0
 20 48  1  0
 20 49  1  0
 21 50  1  0
 21 51  1  0
 21 52  1  0
 22 53  1  0
 22 54  1  0
 24 55  1  0
 25 56  1  0
 25 57  1  0
M  CHG  1  24   1
M  END
>  <OMEGA_C>  (3) 
8j7rQPb6fUAnNbHB/JifQAv8jUAU5LPB0H/1QLuJmEB1FrrB7g6qQB+QqUCTSLzBogTAQAphcEDj
Lq7B7gzVQCMarkA/u7/BvNjKQM/oT0BcmZrBBmSCQCMOX0CsTJjBQT/XQOxfaL+m2LbBNvHkQDTJ
sL+yPKPBx7iZQDasv7+hq6rBqUvsQDotdD+ygKrBnc2gQOvvWz9LwbHBpJquQGf2uj6SHp7Bp+vy
QHT+Cb/V/qzBEFenQG9oJL+dbrTBFhq1QDCkkL/uwKDB4T60QIa1M0BE5KTBQy28QEdYoz+/xqfB
vUOkQE2Zv0DIE9XBJ/GxQDQfhEAasIjBRY6/QBkQ3kCFFc7BI4uqQO6dYkALU5PBwXaGQEVTP0B7
+aHBCA83QAZmdkA8u5PB/WbxQAxFU0Bn1JjBRSThQBh8x0CvVcjBm0wCQaqnYEDjnqzBCut8QCJD
iUDJvbHBYzYLQbmlm0B3mLzBtRuRQFKmu0DWMcDBljnhQLXJl75jub3BY7rbQCiA/L9/vrjBbMvp
QI2rHMB7AaXB/lL4QESLjL/MP5zB+o5vQJmbp7+046jBiEOeQCj+I8Auj6zBoS4AQRU6nT9dnaPB
hvD1QK/exT8+hLHByJOqQEOeuz9frbjB7Ip9QLPqhD8TBrDB7J+MQCygCj9qTpzBTSLCQIYSID+g
GZfBEW0KQaDPOr9uxa7BvNiTQLXqab8abrvB6jerQC1U378d45nBSWWLQHkX0kABQNnBA/C4QPu4
r0DH/drBXxOVQL9Tp0Bk9c/BtySTQA5EiEAKjoTB4pbGQBp5XUCV+YPBg6LBQPRso0COlYnB7F/O
QHZN9kCLR9PBSYOqQDno7UAoP8jBjc9bQHzQMECcxabBDb0AQMJeb0CV3pfBSX01QD4bh0D1TozB

>  <OMEGA_E>  (3) 
iMNHPg==

>  <OMEGA_NBR>  (3) 
      4090

$$$$
50222500
     RDKit          3D

 54 58  0  0  1  0  0  0  0  0999 V2000
    7.2318    4.2240  -21.9061 C   0  0  0  0  0  0  0  0  0  0  0  0
    4.9287    4.0162  -22.6865 C   0  0  0  0  0  0  0  0  0  0  0  0
    7.5408    5.0083  -23.0188 C   0  0  0  0  0  0  0  0  0  0  0  0
    5.2411    4.7973  -23.8038 C   0  0  0  0  0  0  0  0  0  0  0  0
    5.9198    3.7254  -21.7204 C   0  0  0  0  0  0  0  0  0  0  0  0
    6.5552    5.3059  -23.9711 C   0  0  0  0  0  0  0  0  0  0  0  0
    6.3215    3.2243  -19.2845 C   0  0  0  0  0  0  0  0  0  0  0  0
    4.0737    3.5655  -19.0534 C   0  0  0  0  0  0  0  0  0  0  0  0
    7.3962   -1.2666  -20.6313 C   0  0  0  0  0  0  0  0  0  0  0  0
    4.9365   -1.5468  -21.1379 C   0  0  0  0  0  0  0  0  0  0  0  0
    6.5302   -0.8481  -22.9652 C   0  0  0  0  0  0  0  0  0  0  0  0
    5.7209    0.3599  -19.7039 C   0  0  0  0  0  0  0  0  0  0  0  0
    7.3214    1.0728  -21.5476 C   0  0  0  0  0  0  0  0  0  0  0  0
    4.8599    0.7931  -22.0523 C   0  0  0  0  0  0  0  0  0  0  0  0
    5.9635   -1.1149  -20.0668 C   0  0  2  0  0  0  0  0  0  0  0  0
    7.5658   -0.4063  -21.9035 C   0  0  1  0  0  0  0  0  0  0  0  0
    5.0956   -0.6859  -22.4115 C   0  0  2  0  0  0  0  0  0  0  0  0
    5.6048    2.7801  -20.5642 C   0  0  2  0  0  0  0  0  0  0  0  0
    5.8808    1.2781  -20.9606 C   0  0  1  0  0  0  0  0  0  0  0  0
    5.5605    4.2998  -17.1444 C   0  0  0  0  0  0  0  0  0  0  0  0
    5.9029    6.5116  -25.9444 C   0  0  0  0  0  0  0  0  0  0  0  0
    5.3185    3.6152  -18.4181 N   0  0  0  0  0  0  0  0  0  0  0  0
    4.1846    2.9355  -20.1941 N   0  0  0  0  0  0  0  0  0  0  0  0
    2.8763    4.0462  -18.5483 N   0  0  0  0  0  0  0  0  0  0  0  0
    7.5156    3.1638  -19.0112 O   0  0  0  0  0  0  0  0  0  0  0  0
    6.9420    6.0899  -25.0390 O   0  0  0  0  0  0  0  0  0  0  0  0
    7.9994    3.9959  -21.1813 H   0  0  0  0  0  0  0  0  0  0  0  0
    3.9266    3.6334  -22.5610 H   0  0  0  0  0  0  0  0  0  0  0  0
    8.5439    5.3877  -23.1470 H   0  0  0  0  0  0  0  0  0  0  0  0
    4.4812    5.0137  -24.5401 H   0  0  0  0  0  0  0  0  0  0  0  0
    8.1218   -0.9388  -19.8723 H   0  0  0  0  0  0  0  0  0  0  0  0
    7.5780   -2.3225  -20.8805 H   0  0  0  0  0  0  0  0  0  0  0  0
    5.1002   -2.6045  -21.3920 H   0  0  0  0  0  0  0  0  0  0  0  0
    3.9197   -1.4190  -20.7381 H   0  0  0  0  0  0  0  0  0  0  0  0
    6.6447   -0.2264  -23.8654 H   0  0  0  0  0  0  0  0  0  0  0  0
    6.7026   -1.9033  -23.2240 H   0  0  0  0  0  0  0  0  0  0  0  0
    4.7017    0.4697  -19.3051 H   0  0  0  0  0  0  0  0  0  0  0  0
    6.4491    0.6669  -18.9387 H   0  0  0  0  0  0  0  0  0  0  0  0
    8.0632    1.3904  -20.8000 H   0  0  0  0  0  0  0  0  0  0  0  0
    7.4307    1.6842  -22.4554 H   0  0  0  0  0  0  0  0  0  0  0  0
    4.9824    1.4068  -22.9570 H   0  0  0  0  0  0  0  0  0  0  0  0
    3.8370    0.9105  -21.6654 H   0  0  0  0  0  0  0  0  0  0  0  0
    5.8504   -1.7425  -19.1705 H   0  0  0  0  0  0  0  0  0  0  0  0
    8.5831   -0.5303  -22.3033 H   0  0  0  0  0  0  0  0  0  0  0  0
    4.3663   -1.0062  -23.1701 H   0  0  0  0  0  0  0  0  0  0  0  0
    4.6001    4.4997  -16.6468 H   0  0  0  0  0  0  0  0  0  0  0  0
    6.1825    3.6630  -16.4983 H   0  0  0  0  0  0  0  0  0  0  0  0
    6.0807    5.2506  -17.3324 H   0  0  0  0  0  0  0  0  0  0  0  0
    6.3407    7.1257  -26.7452 H   0  0  0  0  0  0  0  0  0  0  0  0
    5.4186    5.6272  -26.3839 H   0  0  0  0  0  0  0  0  0  0  0  0
    5.1561    7.1036  -25.3951 H   0  0  0  0  0  0  0  0  0  0  0  0
    3.4143    2.6051  -20.7395 H   0  0  0  0  0  0  0  0  0  0  0  0
    2.0291    3.9189  -19.0641 H   0  0  0  0  0  0  0  0  0  0  0  0
    2.8593    4.5203  -17.6680 H   0  0  0  0  0  0  0  0  0  0  0  0
  1  3  2  0
  1  5  1  0
  2  4  1  0
  2  5  2  0
  3  6  1  0
  4  6  2  0
 18  5  1  6
  6 26  1  0
  7 18  1  0
  7 22  1  0
  7 25  2  0
  8 22  1  0
  8 23  2  0
  8 24  1  0
  9 15  1  0
  9 16  1  0
 10 15  1  0
 10 17  1  0
 11 16  1  0
 11 17  1  0
 12 15  1  0
 19 12  1  1
 13 16  1  0
 13 19  1  0
 14 17  1  0
 14 19  1  0
 18 19  1  0
 18 23  1  0
 20 22  1  0
 21 26  1  0
  1 27  1  0
  2 28  1  0
  3 29  1  0
  4 30  1  0
  9 31  1  0
  9 32  1  0
 10 33  1  0
 10 34  1  0
 11 35  1  0
 11 36  1  0
 12 37  1  0
 12 38  1  0
 13 39  1  0
 13 40  1  0
 14 41  1  0
 14 42  1  0
 15 43  1  1
 16 44  1  6
 17 45  1  6
 20 46  1  0
 20 47  1  0
 20 48  1  0
 21 49  1  0
 21 50  1  0
 21 51  1  0
 23 52  1  0
 24 53  1  0
 24 54  1  0
M  CHG  1  23   1
M  END
>  <OMEGA_C>  (4) 
3GrnQEorh0CcP6/BzredQGSEgEDrfbXBlU7xQP1DoECIJrjB3ranQLyDmUAwbr7BxW69QJltbkBP
w63BHMTRQC7KqUDhxL/B3EnKQMtaTkC2RprBIlyCQG0xZEBDbZjBhq3sQOYgor/2DKXBrvedQOr+
xb9jGqnBCPfQQB4fWb/GuLfB5xG3QK5IuD6HoZ3ByUjqQPtPiT9mYazBoYSbQJwJSz8ba7DB9NS+
QNK1jr/JiKDBIxvyQFgG0L51Oq/BUQ+jQLyVL7/SSrPBc1qzQGrtMUBwg6TBii+8QGiZoz9Hr6fB
WO+xQDOYiUDOJ4nB3uS8QPhe0EAkjs/BIjGqQAxfZ0BFWJPB+ueFQDbfO0B0jaHBaBU4QBB6gUDx
YpTBy3/wQLJ7SkDYFpjBdiTeQF7gwkDoT8jBuPr/QOm8f0Bmc6nBf017QCSKaEDmfLTBnbMIQRRo
rEADLbnB5GWPQEBwoEApUsTBwfIBQbFXcL+I+p7B0n7yQLujFMBRC6fBITWjQNmvJsDXIqvBbtx6
QLygtb+v56XBaKHUQCPPZ75Q7L7BqXvWQAWe87/CyrnBEXSWQF558D7DcJrBCl/OQF66Kj9jgpfB
CQMBQWL3sT9+ZqbB88ftQBGV1z+gpLPBKnCfQOwQtD/ep7fBtZB1QCwXaT+lUq3Bdza7QKEJ378i
XZnBU1QJQT/DB78SbbLBVLiLQE/KgL9gXLnBxzOTQLH9j0CQLIXBUdfFQPJtakCd/IPBeZXCQOkE
qEDVqIrBsObKQOAF5EAk9tXB4WStQNYRtEBPEtPBCf+kQAtR40AgKcvB84NaQLy5JkCL6qXBztwB
QO/OekBLg5jBFP82QD6mkEAfWI3BNSfqQJUNikCfKa/B7WqiQDp6gED6bbbBl7T0QBxjpEBt3bfB
Lz+tQONAmkBOOb/BGnLAQFQ7cUAJKK7B7YjWQMfmrECa8r/B7X3KQKj+UEDQUJrBxRqCQGQ0X0Df
OZjBUlaqQH++k78igLXB9Gj1QFCtg79hD67BsqS3QE4q07/W9qHB1LPOQJDxiT+7cbPBK+uQQLIm
6j7cT6fBtFDcQEyhEz9r6Z/BornVQPo4075LMLbBBLuXQHKOhL9PD6rBnhnjQDjPab9XmKLB1IC0
QMToNEBj1KTBega8QOA9oj/O0KfBF8ywQJQigkC0TIjBnm7EQDsOz0DlutDB596pQOr+YEA2FpPB
X9KGQMPHRUBULKLB7fw1QAzcc0BsmZPB6sfwQEI7VEC/K5jBYU7jQGodx0DQUsjBFQQBQUz+gkDP
K6nBAt+CQKv5ZEBd9rXB6iUKQUJCskBQXbjBYAiWQKLon0Bod8XBWsmTQLFhNb9wPbvB7CKvQNrU
DcCTdbfBq4T6QJ+3BcB/A7DBlwoKQZrI+769fa7BIpiqQMXNxr/s05nB72e8QKyuLcDh2aPBN4rt
QBBIzT9e/LPB7iK4QJo0wT+CP7nBwV50QLgEZD8fEa3BK6eDQBGbCD8FL5/BdbDPQCw7KD//uJfB
KUv7QOE0jD+uZ6DBmMniQLDSAL/7U77BHwNyQJfmyL9bnqnB26n5QD3wrb+l25zB8tqRQJNrhUBw
L4TBU5fFQLHkWEAZt4PBviHAQDm3oUCM8IjBCLDSQAIq5EDIzdbBnju7QDKIsEAIdtTBfeinQGV/
3kDJT83BYE1dQEeePkDBVqfBazUAQHLFb0Dy55fBcn8zQDNng0DZ9ovB

>  <OMEGA_E>  (4) 
aPk3PnB1cz4=

>  <OMEGA_NBR>  (4) 
     82602

$$$$
50222480
     RDKit          3D

 63 67  0  0  1  0  0  0  0  0999 V2000
    7.2344    4.2579  -21.9005 C   0  0  0  0  0  0  0  0  0  0  0  0
    4.9470    3.9800  -22.7042 C   0  0  0  0  0  0  0  0  0  0  0  0
    7.5423    5.0115  -23.0371 C   0  0  0  0  0  0  0  0  0  0  0  0
    5.2676    4.6983  -23.8555 C   0  0  0  0  0  0  0  0  0  0  0  0
    5.9296    3.7374  -21.7182 C   0  0  0  0  0  0  0  0  0  0  0  0
    6.5657    5.2397  -24.0188 C   0  0  0  0  0  0  0  0  0  0  0  0
    6.3235    3.2283  -19.2756 C   0  0  0  0  0  0  0  0  0  0  0  0
    4.0729    3.5452  -19.0403 C   0  0  0  0  0  0  0  0  0  0  0  0
    7.3397   -1.2839  -20.5806 C   0  0  0  0  0  0  0  0  0  0  0  0
    4.9022   -1.5196  -21.2057 C   0  0  0  0  0  0  0  0  0  0  0  0
    6.5958   -0.8369  -22.9488 C   0  0  0  0  0  0  0  0  0  0  0  0
    5.6500    0.3646  -19.7219 C   0  0  0  0  0  0  0  0  0  0  0  0
    7.3477    1.0660  -21.4797 C   0  0  0  0  0  0  0  0  0  0  0  0
    4.9121    0.8252  -22.1074 C   0  0  0  0  0  0  0  0  0  0  0  0
    5.8845   -1.1119  -20.0840 C   0  0  2  0  0  0  0  0  0  0  0  0
    7.5851   -0.4162  -21.8360 C   0  0  1  0  0  0  0  0  0  0  0  0
    5.1386   -0.6554  -22.4639 C   0  0  2  0  0  0  0  0  0  0  0  0
    5.6133    2.7939  -20.5618 C   0  0  2  0  0  0  0  0  0  0  0  0
    5.8843    1.2896  -20.9618 C   0  0  1  0  0  0  0  0  0  0  0  0
    5.2503    9.6401  -23.4253 C   0  0  0  0  0  0  0  0  0  0  0  0
    5.5466    4.2164  -17.0987 C   0  0  0  0  0  0  0  0  0  0  0  0
    6.0461    8.6611  -24.3030 C   0  0  0  0  0  0  0  0  0  0  0  0
    5.0941    7.6646  -25.0007 C   0  0  0  0  0  0  0  0  0  0  0  0
    5.8838    6.6435  -25.8640 C   0  0  0  0  0  0  0  0  0  0  0  0
    5.3144    3.5767  -18.3977 N   0  0  0  0  0  0  0  0  0  0  0  0
    4.1907    2.9529  -20.2005 N   0  0  0  0  0  0  0  0  0  0  0  0
    2.8725    4.0095  -18.5266 N   0  0  0  0  0  0  0  0  0  0  0  0
    7.5183    3.1823  -19.0034 O   0  0  0  0  0  0  0  0  0  0  0  0
    6.9402    5.9795  -25.1222 O   0  0  0  0  0  0  0  0  0  0  0  0
    7.9955    4.0717  -21.1573 H   0  0  0  0  0  0  0  0  0  0  0  0
    3.9429    3.6073  -22.5654 H   0  0  0  0  0  0  0  0  0  0  0  0
    8.5348    5.4193  -23.1601 H   0  0  0  0  0  0  0  0  0  0  0  0
    4.5235    4.8422  -24.6249 H   0  0  0  0  0  0  0  0  0  0  0  0
    8.0334   -0.9749  -19.7848 H   0  0  0  0  0  0  0  0  0  0  0  0
    7.5153   -2.3407  -20.8302 H   0  0  0  0  0  0  0  0  0  0  0  0
    5.0587   -2.5787  -21.4581 H   0  0  0  0  0  0  0  0  0  0  0  0
    3.8699   -1.3749  -20.8546 H   0  0  0  0  0  0  0  0  0  0  0  0
    6.7630   -0.2126  -23.8389 H   0  0  0  0  0  0  0  0  0  0  0  0
    6.7647   -1.8933  -23.2049 H   0  0  0  0  0  0  0  0  0  0  0  0
    4.6150    0.4890  -19.3708 H   0  0  0  0  0  0  0  0  0  0  0  0
    6.3462    0.6536  -18.9208 H   0  0  0  0  0  0  0  0  0  0  0  0
    8.0574    1.3658  -20.6945 H   0  0  0  0  0  0  0  0  0  0  0  0
    7.5107    1.6824  -22.3760 H   0  0  0  0  0  0  0  0  0  0  0  0
    5.0908    1.4409  -23.0013 H   0  0  0  0  0  0  0  0  0  0  0  0
    3.8729    0.9586  -21.7722 H   0  0  0  0  0  0  0  0  0  0  0  0
    5.7185   -1.7432  -19.1986 H   0  0  0  0  0  0  0  0  0  0  0  0
    8.6186   -0.5538  -22.1866 H   0  0  0  0  0  0  0  0  0  0  0  0
    4.4420   -0.9583  -23.2594 H   0  0  0  0  0  0  0  0  0  0  0  0
    5.9428   10.3414  -22.9368 H   0  0  0  0  0  0  0  0  0  0  0  0
    4.5417   10.2014  -24.0520 H   0  0  0  0  0  0  0  0  0  0  0  0
    4.6965    9.0781  -22.6588 H   0  0  0  0  0  0  0  0  0  0  0  0
    4.5832    4.3880  -16.5964 H   0  0  0  0  0  0  0  0  0  0  0  0
    6.1739    3.5625  -16.4750 H   0  0  0  0  0  0  0  0  0  0  0  0
    6.0575    5.1787  -17.2502 H   0  0  0  0  0  0  0  0  0  0  0  0
    6.6003    9.2272  -25.0661 H   0  0  0  0  0  0  0  0  0  0  0  0
    6.7550    8.1040  -23.6729 H   0  0  0  0  0  0  0  0  0  0  0  0
    4.5211    7.1202  -24.2356 H   0  0  0  0  0  0  0  0  0  0  0  0
    4.4023    8.2229  -25.6486 H   0  0  0  0  0  0  0  0  0  0  0  0
    5.1832    5.8817  -26.2364 H   0  0  0  0  0  0  0  0  0  0  0  0
    6.3331    7.1759  -26.7153 H   0  0  0  0  0  0  0  0  0  0  0  0
    3.4230    2.6496  -20.7649 H   0  0  0  0  0  0  0  0  0  0  0  0
    2.0283    3.8996  -19.0513 H   0  0  0  0  0  0  0  0  0  0  0  0
    2.8505    4.4544  -17.6313 H   0  0  0  0  0  0  0  0  0  0  0  0
  1  3  2  0
  1  5  1  0
  2  4  1  0
  2  5  2  0
  3  6  1  0
  4  6  2  0
 18  5  1  6
  6 29  1  0
  7 18  1  0
  7 25  1  0
  7 28  2  0
  8 25  1  0
  8 26  2  0
  8 27  1  0
  9 15  1  0
  9 16  1  0
 10 15  1  0
 10 17  1  0
 11 16  1  0
 11 17  1  0
 12 15  1  0
 19 12  1  1
 13 16  1  0
 13 19  1  0
 14 17  1  0
 14 19  1  0
 18 19  1  0
 18 26  1  0
 20 22  1  0
 21 25  1  0
 22 23  1  0
 23 24  1  0
 24 29  1  0
  1 30  1  0
  2 31  1  0
  3 32  1  0
  4 33  1  0
  9 34  1  0
  9 35  1  0
 10 36  1  0
 10 37  1  0
 11 38  1  0
 11 39  1  0
 12 40  1  0
 12 41  1  0
 13 42  1  0
 13 43  1  0
 14 44  1  0
 14 45  1  0
 15 46  1  1
 16 47  1  6
 17 48  1  6
 20 49  1  0
 20 50  1  0
 20 51  1  0
 21 52  1  0
 21 53  1  0
 21 54  1  0
 22 55  1  0
 22 56  1  0
 23 57  1  0
 23 58  1  0
 24 59  1  0
 24 60  1  0
 26 61  1  0
 27 62  1  0
 27 63  1  0
M  CHG  1  26   1
M  END
>  <OMEGA_C>  (5) 
63/nQAhBiEA/NK/BH06eQFm4fkAborXB0FrxQGZeoEAKTLjB+o+oQMhYlkD9177Bo7+9QOswb0Db
vq3BeRrSQMqrp0COJsDBNVrKQKqcTkBtNJrBGFWCQNPkYkB5UpjBxt7qQPRWpL8VpaTBCt+cQNaB
wr9WpanBoRDTQPQ/Vr89l7fB4sy0QCKxuj6Hxp3BZiDrQIZyiD9n1qvBnC+dQGBDUz/927DB+E28
QBpTjr8HrKDBErnyQOgS1b4QsK7Bo2+kQGLFJ7/8tbPB0J+zQB/PMkCofqTBRky8QHwRpT/YsafB
fQKoQNE9GkH2ZrvBA36xQO7shkAlyojBX3nBQNCTCkGRbMLBnQKjQDJE9UB4AcjBTUi8QNCX1ECF
6c7BQQ+qQAzpZEBmLpPBkxqGQGz8PECRmqHB6NY3QLRNgECINpTBGJbwQC2rS0D8BpjBKxbeQDJY
v0A6+sjBPNv/QAZLgkApQqnB8Fh8QAveZkDdhbTBmo4IQdRqrUDLR7nBbsCQQIDzmkDM/8TB94gA
QQyWeb9UR57BAH3wQIjOFcA8pKbBpOChQCoKJcBDqqvBuat3QET+r7861qbB32rYQG2xWb4gtr7B
B3jYQOtW8r+xo7nBKq6TQDBa+j5Y95rBSRTLQNlRJz/YXZfB6eoAQSzSrj9UjqXBklfwQDNa1z8d
ArPBNOiiQPBvuD+eArjBCN53QLBpdT9dLa7B7f22QEQi37/NlpnBuOUJQRrIDb8lfrHBiiSOQAlW
db82E7rBMyu+QGB2JUF4frfBj1WRQAg5I0F8asDBWUmWQBRAEUE/RbXBaqmSQFBqjEBixYTBM5DF
QPj/Y0DYzIPBBtfBQE+4pUBcAIrBWzXTQNCiE0Fnh8jBJCnYQNupAUEqYr3BJK2QQEbY40CV4sHB
39+MQByRA0FPMM3B79ylQIk2vEA95NHBhajKQFih5UD8uNXBLxNbQIGSKUCZHqbBc88BQKGSeUD6
aJjB7W02QKaKjkD6DI3BRs7nQLEeiEDWP6/BlK2eQGJzfkBmubXBDsbxQIddoEAsULjBDgKpQPJh
lkA05r7BIP+9QBcTb0C4zq3BMIrSQB7yp0BHJcDBrGXKQMrdTkDXPprBqlaCQKRAYkBQTZjB4ADr
QFyro7+fq6TBKdicQIyOwr9wf6nB1IzSQD/UV789lLfB7Bu1QEcIvj66vp3B8OrqQKCTiD+w8qvB
R9GcQP41Uj/EyrDBRpC8QBShjb87m6DBEHzyQD4a1b4Qwq7BUAqkQL8pKb/rm7PBxKyzQPcEM0CV
iaTBNDu8QJZHpT+UtafBTcBOQPBLFUGXLsTB+oWxQHwkhkCSu4jBj8Z7QNWrBUGE2MvBxIKlQHDr
90AgbcbBQN+7QDjq10DDGc7BnBiqQAUaZEAHLJPBzCWGQIiKPUC8qKHB+cY3QExFf0AuIpTBCKjw
QNhYTEBjFpjBmBDeQOLuwEC7ycjBBxEAQQT9gUCZTqnBwy19QNw4ZkA2qrTBpMsIQe5IrUAvSbnB
/0qRQL71mkA7FMXBTLMAQTAfd7+EXJ7B3pnwQJGGFcBUpKbBdtGhQH4fJcDAfavBz8x3QHL8r7+0
n6bBK6XXQAsIZL7Au77BKezXQIRB87+ZmbnBFxWUQN3g/T5v3prB1pjLQAYKKj/XZJfBBesAQW2P
rz+juqXBOdnvQA711j9aJ7PB5EOiQOl3tz+o+bfBck53QLVddD/uCq7BLoS3QMj53b+nfZnByrsJ
QZHbDb+VoLHBT4yNQKDUd7+A6rnBzywWQNcjHEGMJcjBJL06QCCxDEGp7LzBBCd7QJ87IkHH/cHB
ZbWSQE0/i0DQrITBms7FQGZOYkBz0IPBWaPBQK0ZpUCn4InBAzFPQFmL8UCCCM7Bcc2HQCtQDkGg
GdPBrwC8QMfWCEHwVsTBNKabQAUE50CZHL/BeRKkQAPBwECZBNHB40fJQICz6UAn6tTBmihbQI8d
K0AJPabBAMMBQBemeEABWJjBnU42QEJqjUBj6ozB

>  <OMEGA_E>  (5) 
kNukPuCpoj4=

>  <OMEGA_NBR>  (5) 
     93615

$$$$
50157513
     RDKit          3D

 60 64  0  0  1  0  0  0  0  0999 V2000
    4.9445    4.1379  -22.8828 C   0  0  0  0  0  0  0  0  0  0  0  0
    5.2312    4.9642  -23.9800 C   0  0  0  0  0  0  0  0  0  0  0  0
    7.1838    4.5172  -22.0180 C   0  0  0  0  0  0  0  0  0  0  0  0
    5.9099    3.9245  -21.8706 C   0  0  0  0  0  0  0  0  0  0  0  0
    7.4673    5.3867  -23.0841 C   0  0  0  0  0  0  0  0  0  0  0  0
    6.4894    5.6155  -24.0877 C   0  0  0  0  0  0  0  0  0  0  0  0
    6.3054    3.4365  -19.3995 C   0  0  0  0  0  0  0  0  0  0  0  0
    4.0428    3.5616  -19.0896 C   0  0  0  0  0  0  0  0  0  0  0  0
    5.4315   -1.0162  -22.7908 C   0  0  0  0  0  0  0  0  0  0  0  0
    7.7899   -0.7834  -21.9134 C   0  0  0  0  0  0  0  0  0  0  0  0
    5.9254   -1.4971  -20.3602 C   0  0  0  0  0  0  0  0  0  0  0  0
    6.4681    1.2648  -22.5518 C   0  0  0  0  0  0  0  0  0  0  0  0
    4.6030    0.5515  -20.9941 C   0  0  0  0  0  0  0  0  0  0  0  0
    6.9718    0.7791  -20.1223 C   0  0  0  0  0  0  0  0  0  0  0  0
    6.7492   -0.2122  -22.9049 C   0  0  2  0  0  0  0  0  0  0  0  0
    4.8777   -0.9284  -21.3475 C   0  0  1  0  0  0  0  0  0  0  0  0
    7.2456   -0.6982  -20.4674 C   0  0  2  0  0  0  0  0  0  0  0  0
    5.6077    2.9667  -20.7000 C   0  0  2  0  0  0  0  0  0  0  0  0
    5.9087    1.4232  -21.0844 C   0  0  1  0  0  0  0  0  0  0  0  0
    9.0242    6.9889  -21.8967 C   0  0  0  0  0  0  0  0  0  0  0  0
    5.5196    4.2086  -17.1322 C   0  0  0  0  0  0  0  0  0  0  0  0
    5.8055    6.6376  -26.1819 C   0  0  0  0  0  0  0  0  0  0  0  0
    8.8404    6.0571  -23.1147 C   0  0  0  0  0  0  0  0  0  0  0  0
    5.2968    3.6454  -18.4748 N   0  0  0  0  0  0  0  0  0  0  0  0
    4.1784    3.1653  -20.3347 N   0  0  0  0  0  0  0  0  0  0  0  0
    2.8216    3.8335  -18.4841 N   0  0  0  0  0  0  0  0  0  0  0  0
    7.5037    3.5380  -19.1534 O   0  0  0  0  0  0  0  0  0  0  0  0
    6.8036    6.4615  -25.1468 O   0  0  0  0  0  0  0  0  0  0  0  0
    3.9784    3.6606  -22.8102 H   0  0  0  0  0  0  0  0  0  0  0  0
    4.4880    5.1066  -24.7505 H   0  0  0  0  0  0  0  0  0  0  0  0
    7.9559    4.2971  -21.2957 H   0  0  0  0  0  0  0  0  0  0  0  0
    4.6908   -0.6019  -23.4905 H   0  0  0  0  0  0  0  0  0  0  0  0
    5.6250   -2.0694  -23.0427 H   0  0  0  0  0  0  0  0  0  0  0  0
    7.9935   -1.8348  -22.1646 H   0  0  0  0  0  0  0  0  0  0  0  0
    8.7207   -0.2020  -21.9871 H   0  0  0  0  0  0  0  0  0  0  0  0
    5.5368   -1.4216  -19.3340 H   0  0  0  0  0  0  0  0  0  0  0  0
    6.1183   -2.5526  -20.6026 H   0  0  0  0  0  0  0  0  0  0  0  0
    7.4043    1.8356  -22.6390 H   0  0  0  0  0  0  0  0  0  0  0  0
    5.7273    1.6648  -23.2598 H   0  0  0  0  0  0  0  0  0  0  0  0
    3.8571    0.9531  -21.6958 H   0  0  0  0  0  0  0  0  0  0  0  0
    4.2083    0.6059  -19.9688 H   0  0  0  0  0  0  0  0  0  0  0  0
    6.5979    0.8388  -19.0895 H   0  0  0  0  0  0  0  0  0  0  0  0
    7.9127    1.3430  -20.2047 H   0  0  0  0  0  0  0  0  0  0  0  0
    7.1380   -0.2813  -23.9315 H   0  0  0  0  0  0  0  0  0  0  0  0
    3.9453   -1.5071  -21.2725 H   0  0  0  0  0  0  0  0  0  0  0  0
    7.9868   -1.1120  -19.7679 H   0  0  0  0  0  0  0  0  0  0  0  0
   10.0177    7.4590  -21.9406 H   0  0  0  0  0  0  0  0  0  0  0  0
    8.2487    7.7688  -21.9116 H   0  0  0  0  0  0  0  0  0  0  0  0
    8.9367    6.4025  -20.9702 H   0  0  0  0  0  0  0  0  0  0  0  0
    4.5608    4.2717  -16.5968 H   0  0  0  0  0  0  0  0  0  0  0  0
    6.2099    3.5602  -16.5726 H   0  0  0  0  0  0  0  0  0  0  0  0
    5.9549    5.2146  -17.2243 H   0  0  0  0  0  0  0  0  0  0  0  0
    6.1889    7.3275  -26.9482 H   0  0  0  0  0  0  0  0  0  0  0  0
    5.5809    5.6649  -26.6439 H   0  0  0  0  0  0  0  0  0  0  0  0
    4.8884    7.0540  -25.7397 H   0  0  0  0  0  0  0  0  0  0  0  0
    9.6206    5.2818  -23.0964 H   0  0  0  0  0  0  0  0  0  0  0  0
    8.9325    6.6482  -24.0379 H   0  0  0  0  0  0  0  0  0  0  0  0
    3.4138    3.0151  -20.9615 H   0  0  0  0  0  0  0  0  0  0  0  0
    1.9726    3.7305  -19.0024 H   0  0  0  0  0  0  0  0  0  0  0  0
    2.7920    4.1321  -17.5302 H   0  0  0  0  0  0  0  0  0  0  0  0
  1  2  2  0
  1  4  1  0
  2  6  1  0
  3  4  2  0
  3  5  1  0
 18  4  1  6
  5  6  2  0
  5 23  1  0
  6 28  1  0
  7 18  1  0
  7 24  1  0
  7 27  2  0
  8 24  1  0
  8 25  2  0
  8 26  1  0
  9 15  1  0
  9 16  1  0
 10 15  1  0
 10 17  1  0
 11 16  1  0
 11 17  1  0
 12 15  1  0
 19 12  1  6
 13 16  1  0
 13 19  1  0
 14 17  1  0
 14 19  1  0
 18 19  1  0
 18 25  1  0
 20 23  1  0
 21 24  1  0
 22 28  1  0
  1 29  1  0
  2 30  1  0
  3 31  1  0
  9 32  1  0
  9 33  1  0
 10 34  1  0
 10 35  1  0
 11 36  1  0
 11 37  1  0
 12 38  1  0
 12 39  1  0
 13 40  1  0
 13 41  1  0
 14 42  1  0
 14 43  1  0
 15 44  1  6
 16 45  1  6
 17 46  1  1
 20 47  1  0
 20 48  1  0
 20 49  1  0
 21 50  1  0
 21 51  1  0
 21 52  1  0
 22 53  1  0
 22 54  1  0
 22 55  1  0
 23 56  1  0
 23 57  1  0
 25 58  1  0
 26 59  1  0
 26 60  1  0
M  CHG  1  25   1
M  END
>  <OMEGA_C>  (6) 
AzmeQJtphED/D7fBKGanQLPankD+1r/BSOHlQPiMkEDrJLDBNB69QHsqe0AP967BxfPuQD5grEAt
rLjBTKnPQHSys0CPs8DBJsbJQPHvW0AuMpvBe16BQMvxY0Bpt5jBLM+tQAIUgr95U7bBlkb5QGGP
SL+nTq/B+5y9QCuiv7/H4aLBU/rOQI3joT8harTBkEuTQPMxDT/g86fBSxnfQPpzRz9g+qDBQ/nX
QIpIWb4kPbfBQRacQNOsbb+fx6rB49vnQBS7Mr9NvaPB4XGzQBzePUCPmaXBGhS9QNUptj/arKjB
GWMQQeGk30B5LK/Bp6CwQJ6shkCzDonBdsa5QHdn1ECYdNHBe3INQejTwUD/6rjBkn+pQIBNaUBo
zJPBfLWFQIGTSkCRraLBMpU0QDVYdUBx35PBAx7wQGBuYkAeOpnBH7fZQLnEzkCuLMnBqp1+QDtH
akBae7bBhp2PQDFpo0AKAcbBCZf+QPqBiUCxXarB8RqWQKwXGr+J7LvBJwC0QHVwBMCAV7jBWsr/
QDDc6r8XUbHBAIgLQejQTr6s5a/BZi2xQGv4tb/vq5rB0cjDQGteI8AT0qTB0O/sQLj16j/GHLXB
VEa3QOMY1T8iFLrBnNp2QEX8cz8Kka3BjqqGQIoaGz8BwJ/BOCLTQBy6Vj8/t5jB2DT9QJvnqz9J
o6HBGGrkQLIHkL7Kc7/BLH98QKrpwL8WLqrBnJP/QDpXjr+gJJ7BlEggQdSv7kBShq/BlfoDQWOa
+EDzSq/B4/wOQSnhzEDlwqfBBPKRQBeyiEAnxoTBSLfGQNDZY0C2lITB746+QJrdpkBgy4nBUAvG
QK966kDXldfBppayQPJGtUCfJtXBj22cQKC64UD96s3B1O0ZQakEqUCExbjBhesOQeO91ECSTcDB
R3taQCj3QEAcsafBRn/8P0HBbkDxBJjBba8yQAc6hEDNPYzBUUObQOA0iUAJhbbBcE6kQFOjpEA2
Kb/BoSPmQHX4ikDoTLHBfwy8QApYekB+Rq/BucPvQHcmpEAoO7rB/7nOQDBUs0Am8cDBCjbKQIBf
XUAIqZvB3OCBQA0lZUCNBpnBCHbWQPyOMr9U+LfBSintQE56i78i2aTBgK2fQNonr79MJqrBar3s
QInxnj8heazBwTefQJ5Odj/DwLHBc/i1QIH9Dj8zgZ7BEEb1QMbceb7X/q7BYn6nQMIoBr9nVLTB
W02+QD6pbL+2GqHBbzazQFpDPkCxzKXByXO9QD4euz99lajBkcwUQRFr2EDJJbbBjm6xQDr0hEDw
V4nBHUO4QJv+3kBq9c/BdhQPQcOVr0C7P7zBaDeqQHmcdkDYspTBZ86FQD0oRkAntqLBGgQ2QG89
ckCj8ZPBqoHwQOUsW0DEh5nB8N3ZQInnz0C2AcnBSkx2QO5+ekBBZrXBseCKQBCPrkDhdcTBInL/
QAX2gUBN3avB2RrcQDDdtL0DKb/BKGjcQJnT4L+Q1LnBdU/zQJOKCcBcpqbBxmkBQZObQb8fcp7B
1cd8QHHXnb86gKfBr1WlQBl/G8C++6vB5GsBQZ0JyT9bJqbBvzvyQFxB6z9svbPBCAmlQAwJyD/8
+rjBNXx7QDrSij/kNq/BR62UQNLSLD/szZvBldXLQKpEYD/CF5jBJkwLQU8Kv74jo7HBssqRQIrM
Wr/Eu7rBQbe4QITjxL+p75nB36clQbSb4EBzorfBtIEKQVLJ8kDw4rjBT1gSQa8+00Czh63BPvmS
QIYxjkDglYXByE6+QFHlUECtToXBj27IQIdyn0BVoYjBoL/FQDoz9UBt5dXBYY+pQL2gw0C3GNTB
1dWfQA2p70BWL8vBNmMZQXw+lUAKgrnBm4wRQR7JtEBG3cTBXGlaQPzvNUCvaKfBAr/+P/XCY0Dq
sZfBIpE0QF8VhUC2hozBeuPnQB2yj0AZArHBL4/vQDw2q0Bet7nB8DKeQMPMh0Asv7bB3K++QOL/
e0CFVq/BrNikQH2JpEAxPr/BqoTOQICLtkDk4sDBDr/KQIfhXUA4opvBSjCCQGFPYUBiFpnBE2Sf
QH+Hsb8jKqnBOmnSQO4lPL9J5rfBDOTtQGXbiL9IGqXBWo6cQL51bj8HHrHBKdK3QM4KFT9SO57B
MjnrQCI3nz/OEK3BjmmkQHJFEL9RkbPBhPK/QOZHaL95r6DB5k3zQFasfr7Rf6/BdpS0QFZ7P0B/
4aXBcCG9QEp9uz+BiajBiTSDQCzbl0CZUNHBaKuwQKNEhUAMY4nBzKi+QJHl8UDvGs3Bgnh8QEIx
rUBLV8bBKiKqQEzadEBBsJTBFdyGQKP6SEDKBqPBBuE1QKinZ0CB95PBFwzxQPBFXUAzgpnBMeba
QDgM0EDNhsnBQcwAQUIFiEDMj6vBT6oHQW7nt0Ay8LrBL4N+QECbcUAY4bXBRn59QP4Rob+aCabB
1BClQNbPHMAw66rBJDPYQPAM5r+FqrnBARHWQDnbE75vRL/BLngCQW5nNr83GJ/B1PHzQPdpCMCE
0KbB41OgQBCKwT8/iLjBzJp3QNMxhz9lDa7BxRGXQPcQMz+EJZvBUtfOQLZbaz83JZjB1l4BQX9k
yz/nIKfB4+buQI2E6T/Ye7TBBz2NQPG+ab+LkrnBflK8QGMnwL9tVZnBD/cJQZzAwr5TobLB/6xN
QKS3nkAMPNbBjOifQKZ6pEBCUNXBWHKGQDgcakB3RdDBd7eRQKYrjUD+sIXB7Pe+QA+QU0DsNYXB
szzGQFT7oEBzyIjBvkjNQN5SAUFK7dPBMdafQDYQ5EBVk8/BrGW5QFJYBEGUh8bBMslCQBeFoEBY
asLBmrV1QKHxz0AjdcfBXzNdQJ0mPkCgEKjB3BQAQDAvWUCY55fBPRUzQCezekBVVozBzDvoQKWO
kEBQyLDBdn3vQMEUrEDmh7nBxpCeQLY2iEDLZ7bBNi6/QGwSfUDTDK/BINKkQC2CpEAv+77BsFrO
QIaltkBIw8DBUtDKQFK0W0BZVJvBsj6CQIDFXUAU4pjBcLPtQDYZi7+OUaXBNDCfQK6ysb8+bKnB
BlHSQBgcN7/DE7jBkO23QCB8Dz/DSJ7BxlrrQB8cnz+yBq3BGJycQLyicT9AHbHBmMm/QIIrbb/h
46DBQD/zQEpefb5qnq/BIFOkQAQcDL8Bu7PBXhC1QK0/P0Aas6XBtk+9QHwTuz/tf6jB/qGFQAt1
jUCTadDBfAewQOTig0CmJInBnDK9QL2W7UCFKs7BuJt9QDM+qUAddMbBKiSqQOQhZEBt5JPBlk+H
QKp+SECF6KLBO1A1QOWCakBhIpTBECzxQC99YkCtdpnB2NLaQNH1zkD9nsnBwg4BQXMmiUBRXavB
S4MHQS5guUDUu7rB/Dh/QNi1ckA1bLXBFGUCQQ2ZPr83RJ/BZZrzQMJgCcDyJ6fB5cCkQH27HMBN
S6vB4xp9QGWAob/sSKbByQrWQBcC5b0nYL/B0QDYQP4t479B97nBNjeXQFaCLT9ULJvBoQrPQAA9
Yj/2K5jBBnABQSmayT+9CqfBuCnvQBL06j8EYbTBq1agQPqnxD9HeLjB0ct3QHhmiD+FA67BvBG8
QG8GxL+ImZnBeu4JQRdkwb6BwrLBoSGNQMJKYr8Ix7nB9CFUQDXtkEDE0NXBGeuiQEu/l0Dhj9TB
etOIQOl+V0D2Ac7BOEaRQAusg0Do3ITBzGzHQGbPYEDkuYTBmNG7QAj1pEAfxonBp0nMQJGs/UBD
BtXBJCagQMrb3EDF2dDBLKK0QP7AAkFCE8jB4QVDQKDynkDRTsLBHzV3QHfyykC73MjBnXdeQE6Q
P0DlDqjBiJ3/P410Y0Atb5jBJLcxQG3BekDLaIzBrDObQMRqiUDAQLbBKEWkQEwMpEDDB7/BGMzl
QPDRjEBny7DByOi7QNoifEDn667BuHjvQLV1pUB90rnByqDOQKa8skAK2cDBehLKQDKDXEAQW5vB
AqyBQI84ZUAF4ZjBHtHtQOOmiL8cP6XBHC+gQOdPrb8/YarBmD3WQCKVJb+KRLjBZn62QApgDj+G
lZ7B9KzsQKBaoz97mazB5v2eQOxQfT+MurHBUBG/QLpka7+rXaHBsFn1QCDxT75sUq/BTGenQCIH
+74CfLTBxj2zQPDOPkD/k6XBDoS9QAFDvT/XkqjBNFoSQWje3kBLV7bBiNewQGk6hUDeIYnBDpm3
QEZR4UCQNs/BbbsOQdkXs0BchrvBDO6pQJ1AdkD9d5TB9taFQD/1RUCJiKLBWR01QHXJckAY8pPB
KjzwQA2YWECoHJnBfN3ZQLQLzUDNXMnB6S52QNgJe0AkFrXBAuWKQEperUDHacTBodz+QAQAhUAs
LavBj9QBQap/Pb+53J7BvyH0QFfWB8CuLafBev6lQMNIGsC+WKzBjfR9QBqBnb/zoafBaHHbQMsg
v7xrZr/BuVXcQIK42b+mRLrBxz+VQI4wKT/i0JvB93XMQPXqXT9KLJjB8HoBQchrzD8rSqbBmsbx
QP+R8T8LzrPBwW+kQAM3zT9b57jBdDF7QEgYjT/0GK/B4Om5QPMCxr/1QJrBb0oLQYG0pL5xELLB
03+RQI1eUL8t3rrB3A0jQQPS6EAvkrfBE5IHQfSB9kBJArrBewcPQYS/3EAvt63BwUeSQE+XjkBN
coXB1qK9QG3KUUAvAYXBX83HQKvEn0C5cojBMxXFQA0I9UBgrdXBjpyiQAKmyEDeqNLBmPekQMm4
9UDWwsnBLoIZQVlxm0CM27fBxgwSQcoztUCmJsTBl7xaQIQYNUDOPKfBerH9P4B2ZEA4ypfBTuoy
QJ1zhUBdiozB

>  <OMEGA_E>  (6) 
EBtOPkDE0j3AbiE+eOQbPtCb3z0=

>  <OMEGA_NBR>  (6) 
     79967

$$$$
