50157456
     RDKit          3D

 52 55  0  0  1  0  0  0  0  0999 V2000
    5.4490   -0.4673  -22.5465 C   0  0  0  0  0  0  0  0  0  0  0  0
   10.2804   -2.1684  -19.5149 C   0  0  0  0  0  0  0  0  0  0  0  0
    6.3758   -1.2339  -21.8147 C   0  0  0  0  0  0  0  0  0  0  0  0
    9.3756   -1.4508  -20.3132 C   0  0  0  0  0  0  0  0  0  0  0  0
    5.2118    0.8782  -22.1969 C   0  0  0  0  0  0  0  0  0  0  0  0
    7.2489    4.3612  -22.1204 C   0  0  0  0  0  0  0  0  0  0  0  0
    7.5256    5.2365  -23.1843 C   0  0  0  0  0  0  0  0  0  0  0  0
    6.8144    0.6824  -20.3724 C   0  0  0  0  0  0  0  0  0  0  0  0
    4.9299    4.1998  -22.8563 C   0  0  0  0  0  0  0  0  0  0  0  0
    9.8048   -2.8387  -18.3678 C   0  0  0  0  0  0  0  0  0  0  0  0
    7.0571   -0.6526  -20.7278 C   0  0  0  0  0  0  0  0  0  0  0  0
    8.0196   -1.4288  -19.9403 C   0  0  0  0  0  0  0  0  0  0  0  0
    5.8997    1.4733  -21.1078 C   0  0  0  0  0  0  0  0  0  0  0  0
    5.9350    3.8703  -21.9119 C   0  0  0  0  0  0  0  0  0  0  0  0
    5.2151    5.0411  -23.9516 C   0  0  0  0  0  0  0  0  0  0  0  0
    6.5100    5.5942  -24.0914 C   0  0  0  0  0  0  0  0  0  0  0  0
    7.6084   -2.1092  -18.7699 C   0  0  0  0  0  0  0  0  0  0  0  0
    6.3267    3.4014  -19.4403 C   0  0  0  0  0  0  0  0  0  0  0  0
    4.0598    3.5333  -19.1256 C   0  0  0  0  0  0  0  0  0  0  0  0
    5.6157    2.9375  -20.7254 C   0  0  2  0  0  0  0  0  0  0  0  0
    4.1124    5.3884  -24.9375 C   0  0  0  0  0  0  0  0  0  0  0  0
    5.5519    4.1717  -17.1680 C   0  0  0  0  0  0  0  0  0  0  0  0
    6.6420    7.8468  -24.8044 C   0  0  0  0  0  0  0  0  0  0  0  0
    8.4961   -2.8002  -18.0137 N   0  0  0  0  0  0  0  0  0  0  0  0
    5.3220    3.7992  -18.5744 N   0  0  0  0  0  0  0  0  0  0  0  0
    4.1908    3.0487  -20.3414 N   0  0  0  0  0  0  0  0  0  0  0  0
    2.8381    3.7581  -18.5016 N   0  0  0  0  0  0  0  0  0  0  0  0
    7.5295    3.4464  -19.1988 O   0  0  0  0  0  0  0  0  0  0  0  0
    6.8013    6.4490  -25.1317 O   0  0  0  0  0  0  0  0  0  0  0  0
    6.3097   -2.0687  -18.3855 F   0  0  0  0  0  0  0  0  0  0  0  0
    4.9190   -0.9103  -23.3767 H   0  0  0  0  0  0  0  0  0  0  0  0
   11.3278   -2.2070  -19.7755 H   0  0  0  0  0  0  0  0  0  0  0  0
    6.5633   -2.2624  -22.0854 H   0  0  0  0  0  0  0  0  0  0  0  0
    9.7136   -0.9268  -21.1949 H   0  0  0  0  0  0  0  0  0  0  0  0
    4.5002    1.4608  -22.7631 H   0  0  0  0  0  0  0  0  0  0  0  0
    8.0444    4.0594  -21.4553 H   0  0  0  0  0  0  0  0  0  0  0  0
    8.5213    5.6364  -23.3066 H   0  0  0  0  0  0  0  0  0  0  0  0
    7.3319    1.1119  -19.5274 H   0  0  0  0  0  0  0  0  0  0  0  0
    3.9333    3.8015  -22.7353 H   0  0  0  0  0  0  0  0  0  0  0  0
   10.4997   -3.3959  -17.7571 H   0  0  0  0  0  0  0  0  0  0  0  0
    3.5819    6.2883  -24.5930 H   0  0  0  0  0  0  0  0  0  0  0  0
    4.5525    5.5787  -25.9275 H   0  0  0  0  0  0  0  0  0  0  0  0
    3.4044    4.5493  -25.0060 H   0  0  0  0  0  0  0  0  0  0  0  0
    4.5953    4.4475  -16.7002 H   0  0  0  0  0  0  0  0  0  0  0  0
    5.9906    3.3185  -16.6299 H   0  0  0  0  0  0  0  0  0  0  0  0
    6.2418    5.0273  -17.1236 H   0  0  0  0  0  0  0  0  0  0  0  0
    6.8922    8.4604  -25.6823 H   0  0  0  0  0  0  0  0  0  0  0  0
    5.5997    8.0376  -24.5090 H   0  0  0  0  0  0  0  0  0  0  0  0
    7.3125    8.1071  -23.9721 H   0  0  0  0  0  0  0  0  0  0  0  0
    3.4258    2.7889  -20.9307 H   0  0  0  0  0  0  0  0  0  0  0  0
    1.9858    3.5484  -18.9807 H   0  0  0  0  0  0  0  0  0  0  0  0
    2.8116    4.1295  -17.5735 H   0  0  0  0  0  0  0  0  0  0  0  0
  1  3  2  0
  1  5  1  0
  2  4  2  0
  2 10  1  0
  3 11  1  0
  4 12  1  0
  5 13  2  0
  6  7  2  0
  6 14  1  0
  7 16  1  0
  8 11  2  0
  8 13  1  0
  9 14  2  0
  9 15  1  0
 10 24  2  0
 11 12  1  0
 12 17  2  0
 20 13  1  6
 14 20  1  0
 15 16  2  0
 15 21  1  0
 16 29  1  0
 17 24  1  0
 17 30  1  0
 18 20  1  0
 18 25  1  0
 18 28  2  0
 19 25  1  0
 19 26  2  0
 19 27  1  0
 20 26  1  0
 22 25  1  0
 23 29  1  0
  1 31  1  0
  2 32  1  0
  3 33  1  0
  4 34  1  0
  5 35  1  0
  6 36  1  0
  7 37  1  0
  8 38  1  0
  9 39  1  0
 10 40  1  0
 21 41  1  0
 21 42  1  0
 21 43  1  0
 22 44  1  0
 22 45  1  0
 22 46  1  0
 23 47  1  0
 23 48  1  0
 23 49  1  0
 26 50  1  0
 27 51  1  0
 27 52  1  0
M  CHG  1  26   1
M  END
>  <OMEGA_C>  (1) 
Rl6uQMpC774kX7TBd3wkQVTHCsB/HpzBkgbMQCXvnb90hK7BZwIWQS+0ub9agaLB+MamQOjOYD8z
k7HBufbnQI+Oi0Ck9rDBftHwQBuRp0BcebnBvg/aQKmuLj/H+qLBXcGdQCNlhkC+2bbBWeAcQcGt
NcBV8ZLBoNPhQFoRJ7+Y0qXBOVAAQaPhtr+xhZ/Bjcq8QDWWvD/P3KjBZeu9QM+zd0CJS6/Bd+Km
QNFQoUDNnL/Bk1HQQA4Es0Awu8DBMnjzQLX9BsDNKJbBH3TKQOivWUDQhZvBiumBQHIhYkA9AZnB
CrSzQIL/O0CVzaXB+JiDQKRtrEDnf8fBDamxQGx+hUAoWInB7IrUQCEZ+0BWb8bBBvAHQbk2M8Ak
HJDBqU2qQOYlc0BymJTBHxuGQI4eQ0BCu6LBOqM1QIyEcEAwA5TBWfHwQBqRXEAMl5nBi6TZQBZe
zkDJDcnBL+nJQARlBMCIFZPBW2idQEgHab9uA7vBgD41QSE/DcBCNJ7B3wbSQGnLEMDzrrDB32ob
Qe9Abb89j6nBggGQQBv6uj/NGrbBCLYAQTLmgUB8pKvBR1cIQWVdtEDdc7rBmp7qQOdSjj8TOJzB
ebt7QOxLc0Ds4bXBxv4nQfhWWcCLDo7BdD5lQB86yUBxvsTBtK2RQKOEskB7a8/BauJZQNqTkUBU
DMjB1gyTQI9RjkDpmYXBRbO/QFNiVEASCoXB3LzHQGrfoEAM/YjBP43cQNxdB0Fzdc3BjjCzQNuZ
AEFXEsTBoP/pQMC2AUHXxr/BMUBbQE19MkARcqfBPS7+P/0YY0CM2JfBvvAzQMokhEB0lozB9jmu
QBac777IWbTBh+8IQaJsNMAdSpDB17PLQDVVnr+jda7B8yHzQAXDB8BKSJbBzL2mQIDxYD/hkrHB
SvnnQEOGi0BT+LDBidPwQMiMp0BDernBt8vZQA/5LT8U7qLBv8CdQKRqhkBe2bbBh3weQWFLM8A5
p5PBJGzhQIEwKL8Uv6XBjDsAQV8Tt79sf5/BmbO8QHWGvD8l2ajBdey9QFqvd0BRTK/BBOOmQKBS
oUDnnL/BmFLQQP0Gs0ABu8DBxSAWQcsquL+mYKLB4HrKQIK1WUCxhpvBjfGBQJ8wYkAD/5jBh7Kz
QLEGPEBBzaXBNY+DQMJ9rEC0e8fB1LyxQOd3hUDFVonBvWjUQCIf+0AibsbBILskQQq4B8COgJzB
gVmqQKopc0B5l5TBBRyGQPxBQ0AkuqLBqLg1QD+PcEBx/5PBr/nwQCF+XEAzmZnBEKjZQHdozkD4
C8nBws0cQbU8P7+tFKvB91KdQPf2aL92AbvBM1IEQZI6V8C3MInBmaDRQCgNEcB+nLDBZ/PRQBlf
B8AH3pPBMBiQQOlCuz/eILbBGLgAQUDWgUCBp6vBu1gIQaZWtED8dLrBIFPqQLLojT/AKZzBybR7
QNpnc0A24LXBP0sqQYP4VcDiEY/BCz9lQOFKyUDNtsTBTZiRQJ6ZskBXaM/BtsJZQOOokUBxB8jB
xSOTQOtLjkALl4XBcMa/QDBMVEBdCoXB8NPHQCfWoEBH+4jBi2/cQPZjB0HXcs3BGgSzQC2RAEF7
FsTBdMbpQODAAUEjwr/BHTpbQOy+MkBUcafBclD+P0MwY0CG1JfBYg40QD4ihEDjkYzB5ojBQIdR
pr5qDbbBPRnMQDzQUMCYxozBK7/NQKulnL8B9a3B5Le+QH3KGcDH/5TBQ065QNwPgz+6ibPBfGvn
QPcrjUB12LDBSErwQDjLqEDtbbnBunnIQGguET8FwqDBU1idQC0+h0AG1bbBZjX4QOjHWMA8korB
zhTRQNU+Rr+KT6PBTPXdQBIM2b/eyZrBiq+9QD1Mvz8p3ajBA3i9QJFOekC1O6/B04mmQICtoUC4
q7/BJObPQNOPs0CSyMDBytYEQVKr7b9rI5jB7m/KQC8DWkDApZvB+OeBQOhSY0CNHJnB5ImzQG8T
PUAZ5aXBuWSDQN0ArEDYqMfBz8SxQNpnhkCTgYnBmJHTQExc+0BgsMbBPv4KQXJXLMDCLZDBOWKq
QEUddUDpwpTBgASGQEHhQkD5xaLBNKw1QHC9cUAwGpTBIcfwQCsWVkBAk5nBcjvZQOuTzkDoKsnB
hvwTQUDtlL/Fj53BcXa+QJVCK7+3NL7Bt+m0QHqedMDqMIjBeIrUQNBLEMBR5a/BlSedQJdjEsDW
1pbB3ZSvQNhx2j+nxrnBrmEAQWkQhEA0bqvB0wgIQdHRtUBmZLrBJR3KQNamZD//h5jB5ep6QAQM
dUAA1rXBmEABQeqmgcDMQ4TB5j9kQHzYyEDMDMXBJaWRQNavsUBflM/BcupZQHnykEATI8jBA0qT
QIn3j0BNz4XB5hS/QBCnVUDgKoXBoXbIQI5FoUBpIonBiZ3bQA5hB0FUwM3BURKyQJGbAEFdasTB
h7PoQGscAkFUAsDBahxbQDmQMEAUZafBcDT+P483Y0AB3pfBJgw0QLdQhUAjvIzBR4rBQPiypb4G
ErbBukYKQRB/L8D69Y/ByfzNQFBgnL+6/a3Bl8cEQfK37r9JSZjB6zi5QFoZgz8Yi7PBSGrnQPwh
jUC02LDBXUvwQBXAqEAcbrnB/bzIQFxmET/Yx6DBhVKdQLFGh0DW0rbBPMjzQAUDW8ChaorBYXzR
QAKtRb8/WaPB8AreQLYr2b/z0ZrBWLu9QBJUvz9l36jBqnO9QANOekCwOq/B2IamQEOzoUDdqb/B
i+bPQD2Ns0Cdx8DBubC+QEuaGcAb6ZTB4GzKQJ76WUB5pZvBXOWBQFtLY0DTG5nBQYazQMwLPUC9
5KXBVF+DQHEPrECIpcfBZcSxQGdXhkAhgInBt53TQFdb+0CprcbBvevJQIOrT8Dh6IzBTGCqQOoM
dUAGwpTBnwCGQE/KQkCaxKLBfak1QIXNcUDvGZTB1cTwQMUVVkCok5nBrz7ZQP2SzkBtKcnBvamU
QP68DsCANJfB+Fq+QPPyKr+jOL7BStcaQVpDOcAz043BENbUQMweEMB08K/BgP8QQR9Yqr8Vp5zB
aFSvQF5m2j/txLnBY2EAQYn/g0Bbb6vBqgoIQVa/tUBsZbrB+G7KQG+3ZD+ejZjBMdl6QDEvdUCv
0rXBPj38QOAzg8BICITBrUVkQM7qyECmCMXBJpyRQNy7sUCUkc/BktJZQEgGkUAMH8jBTEqTQJ7l
j0BCzYXBzxO/QOx+VUC9KoXBSnfIQPYzoUDkH4nBaKvbQEhhB0E/vc3BGiCyQLSdAEH1ZsTB/8Lo
QKAYAkG6/7/BoBRbQF9mMECHYqfBxSn+PwZOY0CL3ZfB0Q00QBFehUBuvIzBy6LVQLyJX74/kLXB
+yDDQCzdM8Ar1YnBryPOQOxSm7+F2K3BhlbLQISv5780b5HBmaTNQFL5kD9EH7PB7UedQG3uhUB/
6bbBEQSmQCjGoEANo7/BnHC3QE+W/T4zHKHBGHbmQCcEj0C/l7DB3WqmQPxodsC0ZozBBA2/QMIy
W7+umKPBSvW2QHWv8b/cdpvBjUm+QLdtwD+11KjBaA29QLZEe0AQIq/B8VHvQEpnqkCPQLnBfgvP
QHWps0Dq3cDB6EKaQD4cPcC5gZ3BSmzKQBJCWECFlJvBjuaBQJLdY0DFJ5nBv7WzQM1LPUCH46XB
IPoNQbU6vUAbarrBIqixQJC6hkCTi4nB7YO3QDlX2ED879DB64aSQL75ecCiB5bBgGeqQIgkdUBM
yJTB8BOGQOQ+Q0B2zaLB9ZE1QEOAckBrLZTBRajwQGmuUkAxd5nBmSbZQFnNzkBpUsnBldyEQATu
QMCa7KbBQovhQK1D+75EYL3BTpvSQJ0yMsBEHILBxuzTQIMQEMBvwq/Ba97gQCP4fr/MoI/BgTTT
QCBA8j/4GbnB3xN8QKf6bkCYIbbBRFKNQPYgp0AJeMXBq0GsQPmYQz8LOZnB3ZP/QKgqh0Dg/arB
sB+gQALdk8A1jobBsPUXQZ6Fp0DdN7/ByPAMQcuC3ECEar7B6iwVQelIwUDMcrLBfT+TQHwCkUAd
74XBX0++QP8oVkCeHIXBmtfIQE8toUDOMYnBo+7DQLv/7UAlJNfBsm+sQB15ukBSrtTBq6GcQCLJ
50BdxczBBVFbQMfmMEC3b6fBAx/+P7MAZEAg9ZfBJNIzQBvDhUBH0YzB83TXQCSUV77wY7XBZFaH
QCtQQsAVS4/B1/LPQKlZmr/WrK3BmNaNQGK4AsDlDZfBKnjOQMJ+kT9qCbPBJUOdQJbmhUAC8rbB
6hKmQMzEoEB0qL/B9Gi1QLgu+j7uSKHBjlnmQBkSj0DbkLDB8DSqQK9rdcDHDIzBPda+QNctW78D
nKPBaAa3QNqY8b8WdZvBcYu9QBMywD/x4qjBZuy8QLFIe0AFJK/Bdk7vQE9vqkCrObnBSBnPQAyx
s0Cl28DBlbfYQJrpLcAjzJfBRkfKQNK7V0AAmJvBvNCBQOwOZEACIpnBZ2WzQIFMPUDS6KXBEvgN
QRhPvUCWW7rBzsmxQPmihkAyjInBbK23QI5j2EBn79DBNdrRQPqMasBcPZDBSWSqQML6dEDgx5TB
T9KFQPHtQ0Anz6LBR4s1QKadckCtHpTBd4bwQAL0UUDIf5nBrUHZQCrdzkBdTcnBEXwAQSu8IsAE
lZvBLSPkQBTB9b4gIr3BeQlQQGv/S8C+2IvBv0XXQEw3D8A3c6/BpIdnQAxdtL+6mZnBXXbUQDj9
8j/i+bjB1hB8QP7PbkC3MbbBEXCNQMcep0BxgcXBM9SnQLmZPz/cnZnB6mP/QAxGh0Bl8KrB5TOl
QLEzk8BzFYbBWf0XQX6ep0CNJb/BKPAMQdqV3EC9XL7BCx8VQbZiwUDLYbLBa3WTQLsUkUCZ7IXB
ElW+QBTeVUCuHYXBaxzJQIP3oEAXNonBkiDEQH4T7kDhINfBfqmsQBqFukCSsNTBsb2cQKPL50D0
x8zBG5xaQORQMkCMdKfBSdr9Py1zZEAt5ZfBiP8zQEeghUAkvYzB5m7VQHsjY76JkbXBOeGTQNVj
esDRmJXB5srNQE3Um78p263B1SGbQMwWPcCfmZ3BrKPNQCe8kD+cH7PBGlCdQMPrhUCJ6LbBUwqm
QCLKoECuoL/Byx23QJAp/T6iJaHBC3nmQI0Nj0Dpk7DBgD+pQMBwcsAhtYvByPG+QPWUW78jmaPB
0kG3QCzG8b/ZbpvBMCq+QNhSwD/V2KjBqhK9QIZFe0BmIK/B51PvQBR1qkAIPLnB9g3PQLW2s0Cc
2cDBfKjLQFQj6b9vUJHB7HPKQFEiWEDzkpvB4fCBQMftY0C8JJnBtrWzQHpJPUA246XB8fgNQXVU
vUDRY7rBirqxQHa1hkBLiYnBe4W3QO1g2EAX7NDBzYPEQKzZMMCluonBL3WqQLoedUAmxpTB4RWG
QPRjQ0DJy6LBnq41QPWVckC2KJTB4q/wQEmFUkAidpnB1SXZQMjhzkDWTMnBndLnQDhrU79KK4/B
lE3hQF2Y/b7kYb3BS2J8QCWEl8B1/pbBv0nTQKxiEMBBya/BuHCLQMIkQsCsRaXB4XLTQLP+8T/S
FrnBQSp8QInlbkA8IrbB4VmNQDEjp0AldsXBJJirQF5WQz8xSpnB0ZT/QPY3h0Ak+arBbcCjQLrh
kMDUj4XBQfgXQfSmp0DEMb/BcOwMQRie3EBDY77BkykVQS5iwUACbLLBzlWTQAUJkUDa7IXBTle+
QIYVVkBHGoXBBfTIQG4foUCVL4nBu+zDQMsQ7kATH9fBo4CsQLh/ukC4q9TBW5mcQFbG50CQwszB
xklbQDAwMUBybqfB5Ur+P2UrZEAo8JfBMPszQG/FhUCfy4zB

>  <OMEGA_E>  (1) 
ZDsuP1ZeLj+4lC8/6KAvP7xpKD/I1yg/PEApPw==

>  <OMEGA_NBR>  (1) 
     60259

$$$$
50215905
     RDKit          3D

 50 53  0  0  1  0  0  0  0  0999 V2000
    6.8085    5.3680  -23.9441 C   0  0  0  0  0  0  0  0  0  0  0  0
    7.7516    4.5117  -23.3443 C   0  0  0  0  0  0  0  0  0  0  0  0
    5.4779    5.3783  -23.4861 C   0  0  0  0  0  0  0  0  0  0  0  0
    5.0379   -0.8141  -21.9657 C   0  0  0  0  0  0  0  0  0  0  0  0
    6.2611   -1.4377  -21.6604 C   0  0  0  0  0  0  0  0  0  0  0  0
    8.6892   -2.6958  -20.4173 C   0  0  0  0  0  0  0  0  0  0  0  0
    9.7895   -0.5469  -20.7703 C   0  0  0  0  0  0  0  0  0  0  0  0
    7.3663    3.6682  -22.2833 C   0  0  0  0  0  0  0  0  0  0  0  0
    5.0881    4.5373  -22.4269 C   0  0  0  0  0  0  0  0  0  0  0  0
    4.8358    0.5426  -21.6493 C   0  0  0  0  0  0  0  0  0  0  0  0
    9.9340   -3.2773  -20.1130 C   0  0  0  0  0  0  0  0  0  0  0  0
   11.0300   -1.1266  -20.4651 C   0  0  0  0  0  0  0  0  0  0  0  0
    7.0856    0.6570  -20.7295 C   0  0  0  0  0  0  0  0  0  0  0  0
    8.6069   -1.3237  -20.7466 C   0  0  0  0  0  0  0  0  0  0  0  0
    7.3001   -0.6982  -21.0516 C   0  0  0  0  0  0  0  0  0  0  0  0
    6.0300    3.6732  -21.8073 C   0  0  0  0  0  0  0  0  0  0  0  0
    5.8486    1.2855  -20.9929 C   0  0  0  0  0  0  0  0  0  0  0  0
   11.1140   -2.5032  -20.1329 C   0  0  0  0  0  0  0  0  0  0  0  0
    6.3390    3.1850  -19.3361 C   0  0  0  0  0  0  0  0  0  0  0  0
    4.0778    3.4083  -19.0399 C   0  0  0  0  0  0  0  0  0  0  0  0
    5.6231    2.7653  -20.6301 C   0  0  1  0  0  0  0  0  0  0  0  0
    5.5739    4.0483  -17.0911 C   0  0  0  0  0  0  0  0  0  0  0  0
   13.5154   -2.3356  -19.8536 C   0  0  0  0  0  0  0  0  0  0  0  0
    5.3345    3.4595  -18.4196 N   0  0  0  0  0  0  0  0  0  0  0  0
    4.2008    2.9495  -20.2641 N   0  0  0  0  0  0  0  0  0  0  0  0
    2.8638    3.7594  -18.4619 N   0  0  0  0  0  0  0  0  0  0  0  0
    7.5431    3.3051  -19.1315 O   0  0  0  0  0  0  0  0  0  0  0  0
   12.3096   -3.1399  -19.8257 O   0  0  0  0  0  0  0  0  0  0  0  0
    7.1060    6.0164  -24.7550 H   0  0  0  0  0  0  0  0  0  0  0  0
    8.7721    4.5014  -23.6979 H   0  0  0  0  0  0  0  0  0  0  0  0
    4.7541    6.0330  -23.9485 H   0  0  0  0  0  0  0  0  0  0  0  0
    4.2510   -1.3781  -22.4446 H   0  0  0  0  0  0  0  0  0  0  0  0
    6.4065   -2.4826  -21.8915 H   0  0  0  0  0  0  0  0  0  0  0  0
    7.7941   -3.2997  -20.3991 H   0  0  0  0  0  0  0  0  0  0  0  0
    9.7366    0.5011  -21.0256 H   0  0  0  0  0  0  0  0  0  0  0  0
    8.0942    3.0124  -21.8289 H   0  0  0  0  0  0  0  0  0  0  0  0
    4.0645    4.5491  -22.0825 H   0  0  0  0  0  0  0  0  0  0  0  0
    3.9026    1.0206  -21.9084 H   0  0  0  0  0  0  0  0  0  0  0  0
    9.9870   -4.3263  -19.8617 H   0  0  0  0  0  0  0  0  0  0  0  0
   11.9249   -0.5222  -20.4830 H   0  0  0  0  0  0  0  0  0  0  0  0
    7.8821    1.2255  -20.2727 H   0  0  0  0  0  0  0  0  0  0  0  0
    4.6161    4.1639  -16.5627 H   0  0  0  0  0  0  0  0  0  0  0  0
    6.2351    3.3877  -16.5111 H   0  0  0  0  0  0  0  0  0  0  0  0
    6.0497    5.0333  -17.2070 H   0  0  0  0  0  0  0  0  0  0  0  0
   14.3809   -2.9622  -19.5924 H   0  0  0  0  0  0  0  0  0  0  0  0
   13.6552   -1.9194  -20.8622 H   0  0  0  0  0  0  0  0  0  0  0  0
   13.4251   -1.5143  -19.1274 H   0  0  0  0  0  0  0  0  0  0  0  0
    3.4318    2.7500  -20.8714 H   0  0  0  0  0  0  0  0  0  0  0  0
    2.0162    3.6682  -18.9847 H   0  0  0  0  0  0  0  0  0  0  0  0
    2.8378    4.1032  -17.5233 H   0  0  0  0  0  0  0  0  0  0  0  0
  1  2  2  0
  1  3  1  0
  2  8  1  0
  3  9  2  0
  4  5  2  0
  4 10  1  0
  5 15  1  0
  6 11  2  0
  6 14  1  0
  7 12  1  0
  7 14  2  0
  8 16  2  0
  9 16  1  0
 10 17  2  0
 11 18  1  0
 12 18  2  0
 13 15  2  0
 13 17  1  0
 14 15  1  0
 21 16  1  6
 17 21  1  0
 18 28  1  0
 19 21  1  0
 19 24  1  0
 19 27  2  0
 20 24  1  0
 20 25  2  0
 20 26  1  0
 21 25  1  0
 22 24  1  0
 23 28  1  0
  1 29  1  0
  2 30  1  0
  3 31  1  0
  4 32  1  0
  5 33  1  0
  6 34  1  0
  7 35  1  0
  8 36  1  0
  9 37  1  0
 10 38  1  0
 11 39  1  0
 12 40  1  0
 13 41  1  0
 22 42  1  0
 22 43  1  0
 22 44  1  0
 23 45  1  0
 23 46  1  0
 23 47  1  0
 25 48  1  0
 26 49  1  0
 26 50  1  0
M  CHG  1  25   1
M  END
>  <OMEGA_C>  (2) 
Y9/ZQKPGq0Cdjb/Bcw34QPhfkEAhwbrB2UqvQLQarECf47vBJjahQB5pUL/Zua/BIVvIQG4GuL+H
SK3BEwcLQeqHLMCLVqPByqEcQdUDDL+TKabBgLjrQALDakA8RLLBVtGiQIQxkUBIarPBfb6aQGfn
Cj+5Ma3B0PEeQaG/UcBX56DB43owQS80kL9zuKPBAr3iQD4vKD8H1qXBy7UJQQZvqb8M+aXBh5rp
QNG+Mr+kaajBlvXAQHAVa0BGda7Biye7QC6LpD978afB+9IxQec0IMA6EKHBGNnKQHjXS0BosJrB
vn2CQNAgWkCrUZjBdPCzQFv7MECMCqXBb12yQN6LgUCKuojBIT9YQft5FcAf1J7BoLSqQMJoXUBQ
W5PBPm2GQCrEPEDKHKLBrkg3QHmZcEAFspPBwmDxQJeGU0BCDZnB/vNEQSD0SMACm57BiWTjQPeF
wEBMCsbBW1oMQYcLkEBUlb3BTSGYQEwOwUCYlr/BjAiIQPZjsL+BjrPBtwHNQF7jHsDGIa/B7mj5
QN4uU8BXMaPBJckbQUhKAD9ZNKjBCIIBQefLQECToa7BixCCQDmSkUDfqLDB8MN5QHShgj9vRK/B
nsofQWdxisCu5J7BVcw+QY2wBb803aPBLjr8QLfdnD9vLqLB4LaTQL4+hUBkgITB0IXHQN7PWECy
FoTBfJfBQJ4QoUD/p4nBPBhmQVmVPcBWvZzBn3taQZmv9b+/5abBLM1WQVvVwb/SBJnBaKNbQKn/
L0Cf+KbB8wkBQKLDakCr4JfBJp41QHFNg0CgL4zBxHTaQAJsq0ACkr/BJE74QP2Bj0DO0brBm/Sv
QKB9rEDP17vBGCKsQBRsHb83fbPBLIfHQBWptb+PSa3BCYgIQealMMA+WqLBVRgAQSYSs79ntpLB
JrHrQHplaUD8UrLByj6jQKDfkUB1VbPBPxmmQGupPT++1rDBHKcWQWrPYcC0JZzBD0wOQZOOCsDN
g4zBir7WQItx+D5aw6HB/Dr6QD0/2L8At53BsALdQHemXr/YWKTBhhLBQMJ8a0Dbc67B4nq7QKsE
pz/07qfBRKoZQbckT8BXIpHBWA7LQJoMT0Cb0JrBYH6CQGSnW0AKcJjBXhq0QGzcMUBzB6XBVT2y
QHVYgEDSnIjBWJkyQUtwosA/VI/BKQCrQN1TaUAj4pPB+pGGQL3HO0BgH6LBSdM2QJnbbUAlpJPB
GrfxQIERUkC4GpnBhlMnQdRmfcCOjorBUyvkQGQBwEB2EsbB1XEMQUqnjkDysL3BuA2ZQJ3IwUCE
hb/BibSbQFrmhL9eS7rBtyjMQMRLHcBYW6/BGGQGQUVbP8D9uarBXcvuQI+LFb/FEo/Bx1IBQXNr
PkAGva7Bh5uCQPHckkDWgLDBjguRQJ5ArT9toLXBm0gfQcQXi8CLxp/BW4QQQc4l979VJ4TBchbn
QFP1Zz9o75rBpqmTQLmOiUA06YTBr8i/QHOYSUBnToTB+7DIQNxnm0CGM4jB28g8QfDJscDEQ4nB
VPMmQeTPucADZJLBg548QaDZlsBP9ZXBUyFcQIZNLEDE46bBdUwAQLq9YkCzl5fBEh41QCcJg0Ar
PYzB4a/YQBoUrEDHzr/BbDn3QP9ZkUCu6LrBQyiuQLhprECuFrzBrzq/QAyTAL8mBLXBlfXJQIPp
s7/n0azBaQTMQCa2T8B82JnBLQPvQHU6tb9HV5DBY0PrQMIGbkDARbLB7AiiQIUckkDnd7PBfRi4
QCraWj8Wn7LB/lnWQOu/g8CqZZHBkkj5QKA7EsDz6ofBjX/FQFrAzT4Mx5/BsDPYQNJo8b8fXZnB
MhnNQBy8dL/5H6LBNYrAQL1RbkAUc67BAmS8QE7oqT/x+afBL/vsQOWNacDzXojBfQbLQBObT0AI
9prBT32CQNIQXUDLi5jB2eKzQLscM0C3JqXBM3SyQIHNgUBO04jBPL4GQYRCgsBTMm7B7RyrQDnY
a0DqFJTBeGeGQHG7O0CRKqLBz+02QJ4Tb0B5s5PBLoXxQAsSTEAkEZnBJDH2QDX/kcD4UoDBqeTh
QPRTwECTa8bBZ+kLQYIOkUDfxr3BkceWQLbowECb3L/BHHW8QDvFWb8yKr3Bt87PQPZmHMCisq7B
s7u6QP5vZ8DxtqDB8pf4QLdCwr6V74/BqWMBQdoiRUAiia7BEVqBQPhykkA5qbDBGk2vQIorxT/u
7LjBUODMQBfxpMCf0pHBVFAFQZb89L8aD4HBFavGQHkTPT/KkpfBDQuUQHHWi0AaLIXBWEu/QIgu
TEBec4TBtYTJQK9ZnEBXcojB7UYJQdqXnMC5y2LBcFEWQRUVa8ARXnPBmvL6QKlhUcDSbGbBLbVb
QAWOKkCk06bB+0AAQNmpYkAaj5fBLng1QMQ4hEDLW4zBB1nZQBC1pkD88MDBVeGuQOqRmEDExr/B
d/H3QDzvnEBdELnBgW26QCyM7L5u+7TBRpLKQJqIqb9xHK3B/2cAQdGnH8DKuJrBU/TDQHyz078K
aJDBCayiQGC0gUB2mbbBOjDsQIjdhEB/CrDB6f2xQO6EYj+ac7LBOScHQZ2MTsBWw5HBjm/RQBBG
GMDmeIfB7OnHQAR3/T7cJKDBzNbbQEo62r/f85nBs6fPQGBwV79uoqLBiBjBQM/jb0Dpja7BFx+7
QEY2sj9lFKjBrhr3QIvUSsAKEIjB1CPLQCJUUUDPt5rByaeCQBv0WEBpUZjB4Ey0QMTmNkCuIaXB
VZyxQJC5gEDsk4jBkdvyQBexa8DHTmrBR8SqQK+YXkARXZPBhPiGQIW8QUDLWaLBOTc3QAlZaECZ
bJPBzW7xQLbyTUADkpjBoFoDQVfEecCF+n7BeHjiQLgWuUC05MfBvaKXQK9Nn0DT8cXBM0EMQdLx
p0Cz87nBwXm0QNltVL/f97zBLvXSQEb2FcAsEq/BH1QJQX9vIsDiHKLB6D+nQDT/hr+z/o/Ba96B
QPP4bkCaqrXBjg4CQStKeEAiM6rBRnekQA3WxD8bcrjBTlUVQVXVdcDyR5LBCT+/QHC2FcD8IYDB
EdfLQC3gVj+MA5jBcsiSQB7KgkCPXITBUF3HQJ4wV0A9HITB2dG/QErWoEAGMInBXCEBQUZjisCc
RF7BiKP2QMItKMABsWXBYZrQQJlse8C6R2vBy0ldQIakOEAgbKfB/OsAQG/pYUArlZfBIio1QP3j
eUAivIvBWlvYQCC+rEBCaL/BBjHdQEc3gEAtmMDBVjXIQD6mvUClx7XB8JWgQMLtVb/pX6/B3xvI
QFF8ub/8L63BgaQKQQxkLcCnaqPB+dMcQbsMFL8DMabBtuXRQLwESUDVK7jBNdy8QJkWokCKVa3B
e+qZQE2MAz+erazBgU0eQZM0VMBQ/6DBKocwQdjVl78lwaPBJ8riQAx4JT+u1KXB2LAJQYU9q78C
DKbBS53pQNLvNL9mb6jB+o7BQGxoakA6Z67B3bW6QCVioT9unafBcX8xQdCtI8DDJ6HBwAjLQE9m
SkCArprBIaCCQO5nWUBtZ5jBBz60QOwfMEBLC6XB9mWyQBiRgEAqt4jB1kJGQVdnkMCKV5zBA8uq
QAfWW0DIXpPBcNiGQCvyP0CkYaLBFm03QIRWbkCWsZPBzZPxQB/zUkDcI5nBznFFQUxXRsDO4J7B
HAjhQGruwUAV4cXBFJfpQDmLZkBJ+8fB+oTEQMTR30Ao37TB7EmHQGtys79BIrPBLubMQKpiH8Bo
JK/BaEb4QPnvUsDZQ6PBB0kcQQi18T6OLqjBqqnVQOW9BEDxIbnBXXawQElIr0CA+aXBNUZ3QGLI
ez/Sea7B4tQeQV62i8CpAJ/BDwY/QQo5Gb/O36PBZZr8QMSjnD87aqLBVbeTQIhFhEDFgITBRnXH
QH6XVkC9FYTBdbbBQPEPoEDRmYnB6+hWQajLmcA8uJrBiGQ8QdbDlsAnO5XBOhhAQR/8osCBJqPB
4w1dQGJNOEAlfqfBPFcBQMZ0akBz8ZfBlIY1QJCjgEBEDozBqGvWQGslq0CiM8DB9Y2sQD4Dm0Do
M7/BntL1QHbXn0A6pbjBhzmhQDgwT7/NRK/BS9TIQBRytb9dFa3BHUQLQcrFKcB4X6PBtlodQSij
Br+VeqbBTNGhQPJNgEAPiLbBu0rrQGTrhEA6ArDBirSaQBxcDD9PzKzBLPweQTokUMAP8qDB0Rgx
QXwskL+NBqTBngXkQJBUND/OVabBPjwKQUiqpL/nL6bBU6HqQGj7KL9Jn6jBcsTAQPLea0DXoq7B
HMS7QGLcpz9x/afBPCcyQf59H8DIRKHB/CHLQMxtTUA4n5rBqsSCQGI3XUCndJjBQou0QNqIMkDg
FaXB0jKyQHligUCEoYjB2xtHQcf2jcCqY5zBgiSrQLbJakAm5JPBMPmGQLHzP0AFQKLBjUQ3QG+J
bUBJlpPBn1zxQOQmTUBPYZjBMSlGQfCkQcDoAZ/B423eQJ0swEBtwsbB2p6UQMEgo0CYGMXBCwgL
QXbXq0AuebnB376HQKpTsb8Y2rLBxnTNQALOHcC50K7BUo/5QMBiT8AhFqPBoMIcQUw9BT+/mKjB
osaBQFs6Z0Cw4rXBY+QBQfgqd0CkYKrBaKJ4QJOQgT9Yk67BVpMfQfOLicCj0Z7BW5E/QRlrCb80
QaTBqzL+QJzhpT+cQ6PBVMuTQPLyi0CfEYXB/m++QGojS0ClMITBJ6XJQLKWm0BjOYjBhctXQXgm
l8AvyprB7FI9QX40lMA2PpXB2OtAQWTOoMDgJaPBEvNcQAAvNECcLqfBANEAQLD+YkA+lJfBCmU1
QGrpgUBoF4zBjhfbQDDapUBOxcDBUyf6QCo9lkAroLnBcHWvQCZ/nUBG8r7BoXa5QJRL4r7PHrXB
kQXJQHYEqb95R63BVZD/QOyGIcC3HpvBFrDDQByH1b85h5DBtJvtQC27fEC9o7DBQLKiQCqBhkCh
1bXBSL6xQC4jaD9xg7LBiq4GQRAdUcBRP5LBHXLRQAHzGcBTr4fBJV7HQKj5+T7pM6DBgOzaQPxg
3L/lK5rBDoTOQDBTWb9txqLBJaTBQDrcbkCjdq7BYt66QGt3sj/OFqjBi8f2QBpVTcCwdIjBxQzL
QLg4UUCds5rBh5KCQPTKV0B2QJjBfjC0QBCMNkBTFKXBO36xQIZkf0AveojBCBbzQPy5b8ANKmvB
V7WqQCgjXUAyS5PBO96GQDK8QECVSaLBhQI3QBZ7Z0B0YpPBrYbxQKScUUDQu5jBr04DQZgDfcBx
8n/Bu7/kQA5JuEA9q8fBEdINQWmbnECcDLvBf72XQN3HqEDHj8TBn2yzQF+UTL8bIr3BJKnQQJz7
FcDESK/B83UIQYFhJMAqlaLBuEOnQKxkh7/i+I/B58sCQfVvYkC2W6vBQiiBQJ9LgEBxcbTBNcyk
QJKSyT9Ae7jBBb0UQfn4eMDw5pLB7Le/QOBZF8B0RoDBBofLQEUsUz82D5jBMrWSQL80gUAiOoTB
gJfHQOxjVUACFITBZkW/QDsDoEBWB4nBKlIBQXurjMDXSV/BI/z2QEdqLMAbZGbBes7QQJ9Tf8Ds
C2zBhBNdQF5eN0CsWafBRcoAQLNkYUD6kJfB8dk0QFDjeEDfsIvBrDjWQPIGrED8N8DBBu+rQMBD
nUABBr/B7rz1QMIPoEAZwrjB2nm/QMoU/75nCrXBRy/KQGQcs79D2KzBFffLQFsKT8BCCprBB5zv
QEpRt798W5DBnuSgQP1Gg0DjP7bBOgLrQPp7hUCxFLDBhba4QE1BXD8Uq7LBTi3WQIgOhMA6wpHB
0tT5QPjdFMA8D4jBPADGQDC+0T7xz5/B+43YQMTm8L+2bJnBUIrNQG2Zcr9LKKLBYC3AQGtkb0Bf
i67BWPa8QMYXqz/4BajBxU/tQDV2a8BAqojBSUPLQOucT0Cy3JrBwsqCQEDzXUBflpjBJGq0QHnD
M0CMLaXBTHuyQHw1gkDL0YjBzaHrQJLSvMC79YDBIU6rQKT4bEDTF5TBI96GQNApPUDWO6LBsG43
QKhEb0A1upPBLFrxQJKwSEDln5jBPXr4QM1akMDrOIDBknjeQGGIwEBW3MbBMeqTQL3kpUBm2cTB
YBoLQXlLq0DXsbnBcm68QB1lWb8ULb3BSd3PQF8VHMCmta7BKV66QPeCZcDc7KDBXGD5QPr8y76k
0I/BQ2OAQO8kcEDxX7XBZckBQZD5dkCAiqrBwziwQDXyxT+H/rjBSGDMQCMgpcBZTpLBzLIFQSmv
/L8JLIHBDSfHQDcMPz+Vm5fBSiSUQE3QjEAQO4XBiaS+QCKBTEC9a4TBEwjKQExQnEA6Y4jBhXf2
QFUczsDsk3PBE5DIQIXFvsBQioHBLhz6QA5Xy8DsHIjBqbVcQOvELEBC86bBitMAQDm/YkBZmJfB
UtU1QEEfhEBKXYzBNI/WQHVbrEAPR8DB4Uy0QENxj0ChG8HB2aXtQK5Rr0AaqrbBHyqqQGb5ML/1
v7LBqTbIQJznub9oCa3BgR4KQbziLsBcZ6LB648BQe1tqb8CDJPBIgypQEZLa0ApU7jBDzvjQKjF
lEAy963BljSjQHuBKD8nFLDBWnAYQbTyXcBHBJzBot8PQQ93A8DCsYzBG8vZQHTyAT9oWaLBC0r9
QLo1079y+J3BsHnfQMLiW78fnKTBiebAQMz2bUDKp67BfMK7QBi7pT8Z/KfB34AbQYjKSMAQJZHB
y1XLQKp5TUAqpprBMvSCQEyJXEBAjpjB59W0QAayMkC3JqXBw0GyQKzZgECaoojBD+4sQbxZY8AP
J4DBZUSrQHAJakAx6pPBWUiHQGinP0CPZqLBGrk3QHnTbEBlp5PBUbXxQHKmTUBsgpjBIeIpQQ/O
ecBgTYvB4x7fQE1AwEC0AsfBY5OiQH4DjUAOgMjBI8ADQZoTxkD087XBAViYQBtHkr8uNrnBkoDN
QB5DH8D0Fa/BsOYHQSvGP8BJtarBDF7xQBU4Ab9RlI/B0NWNQNX4QEBA8bjBNon1QNYEl0CeqKbB
cNGKQMP9mz9BP7TBaS0hQVpnicBud5/BPg0SQZJK5b+YYoTBpd3sQJx5dz+AJpzBsseTQDwdi0CW
DoXBHLe+QPwVSkC2OoTBKYHJQDc5m0ADM4jBLag4QSiKh8BGC3nBiNgyQWMzIcAVLX/BYpgdQW62
aMCwxXfBbcpdQE0ANEALX6fBLi8BQOOgYkAopJfBbQU2QOVegUD6I4zB

>  <OMEGA_E>  (2) 
vP4/P7gvQD/8G0E/aDU9PxioSj9kXj0/7M89P1A8Pj845D4/

>  <OMEGA_NBR>  (2) 
     73364

$$$$
50157480
     RDKit          3D

 57 61  0  0  1  0  0  0  0  0999 V2000
    4.9177    4.1974  -22.8670 C   0  0  0  0  0  0  0  0  0  0  0  0
    5.1795    5.0580  -23.9448 C   0  0  0  0  0  0  0  0  0  0  0  0
    7.2085    4.4650  -22.0946 C   0  0  0  0  0  0  0  0  0  0  0  0
    5.9213    3.9085  -21.9106 C   0  0  0  0  0  0  0  0  0  0  0  0
    7.4739    5.3389  -23.1636 C   0  0  0  0  0  0  0  0  0  0  0  0
    6.4577    5.6553  -24.0948 C   0  0  0  0  0  0  0  0  0  0  0  0
    6.3265    3.4170  -19.4388 C   0  0  0  0  0  0  0  0  0  0  0  0
    4.0654    3.5311  -19.1321 C   0  0  0  0  0  0  0  0  0  0  0  0
    7.4255   -1.0910  -20.6121 C   0  0  0  0  0  0  0  0  0  0  0  0
    4.9903   -1.3958  -21.2162 C   0  0  0  0  0  0  0  0  0  0  0  0
    6.6577   -0.7294  -22.9875 C   0  0  0  0  0  0  0  0  0  0  0  0
    5.7087    0.5489  -19.7978 C   0  0  0  0  0  0  0  0  0  0  0  0
    7.3789    1.2340  -21.5865 C   0  0  0  0  0  0  0  0  0  0  0  0
    4.9423    0.9287  -22.1865 C   0  0  0  0  0  0  0  0  0  0  0  0
    5.9700   -0.9347  -20.1133 C   0  0  2  0  0  0  0  0  0  0  0  0
    7.6448   -0.2553  -21.8948 C   0  0  1  0  0  0  0  0  0  0  0  0
    5.1998   -0.5605  -22.5003 C   0  0  2  0  0  0  0  0  0  0  0  0
    5.6242    2.9623  -20.7281 C   0  0  2  0  0  0  0  0  0  0  0  0
    5.9158    1.4457  -21.0705 C   0  0  1  0  0  0  0  0  0  0  0  0
    8.8563    5.9527  -23.2935 C   0  0  0  0  0  0  0  0  0  0  0  0
    5.5289    4.1677  -17.1737 C   0  0  0  0  0  0  0  0  0  0  0  0
    5.6831    6.9746  -25.9766 C   0  0  0  0  0  0  0  0  0  0  0  0
    5.3163    3.6033  -18.5121 N   0  0  0  0  0  0  0  0  0  0  0  0
    4.2003    3.1060  -20.3630 N   0  0  0  0  0  0  0  0  0  0  0  0
    2.8465    3.8252  -18.5416 N   0  0  0  0  0  0  0  0  0  0  0  0
    7.5261    3.4449  -19.1857 O   0  0  0  0  0  0  0  0  0  0  0  0
    6.7676    6.5393  -25.1238 O   0  0  0  0  0  0  0  0  0  0  0  0
    3.9396    3.7505  -22.7660 H   0  0  0  0  0  0  0  0  0  0  0  0
    4.4023    5.2669  -24.6651 H   0  0  0  0  0  0  0  0  0  0  0  0
    7.9997    4.2150  -21.4032 H   0  0  0  0  0  0  0  0  0  0  0  0
    8.1166   -0.7438  -19.8300 H   0  0  0  0  0  0  0  0  0  0  0  0
    7.6223   -2.1509  -20.8312 H   0  0  0  0  0  0  0  0  0  0  0  0
    5.1693   -2.4578  -21.4404 H   0  0  0  0  0  0  0  0  0  0  0  0
    3.9570   -1.2650  -20.8622 H   0  0  0  0  0  0  0  0  0  0  0  0
    6.8083   -0.1304  -23.8977 H   0  0  0  0  0  0  0  0  0  0  0  0
    6.8455   -1.7899  -23.2112 H   0  0  0  0  0  0  0  0  0  0  0  0
    4.6739    0.6634  -19.4428 H   0  0  0  0  0  0  0  0  0  0  0  0
    6.4045    0.8763  -19.0113 H   0  0  0  0  0  0  0  0  0  0  0  0
    8.0855    1.5737  -20.8148 H   0  0  0  0  0  0  0  0  0  0  0  0
    7.5262    1.8235  -22.5034 H   0  0  0  0  0  0  0  0  0  0  0  0
    5.0966    1.5206  -23.1007 H   0  0  0  0  0  0  0  0  0  0  0  0
    3.9045    1.0493  -21.8423 H   0  0  0  0  0  0  0  0  0  0  0  0
    5.8210   -1.5405  -19.2073 H   0  0  0  0  0  0  0  0  0  0  0  0
    8.6786   -0.3828  -22.2484 H   0  0  0  0  0  0  0  0  0  0  0  0
    4.5053   -0.9013  -23.2823 H   0  0  0  0  0  0  0  0  0  0  0  0
    9.4904    5.3016  -23.9131 H   0  0  0  0  0  0  0  0  0  0  0  0
    8.7748    6.9426  -23.7664 H   0  0  0  0  0  0  0  0  0  0  0  0
    9.3053    6.0592  -22.2950 H   0  0  0  0  0  0  0  0  0  0  0  0
    4.5700    4.2098  -16.6364 H   0  0  0  0  0  0  0  0  0  0  0  0
    6.2339    3.5336  -16.6162 H   0  0  0  0  0  0  0  0  0  0  0  0
    5.9424    5.1829  -17.2655 H   0  0  0  0  0  0  0  0  0  0  0  0
    6.0708    7.6653  -26.7399 H   0  0  0  0  0  0  0  0  0  0  0  0
    5.2305    6.1011  -26.4687 H   0  0  0  0  0  0  0  0  0  0  0  0
    4.9230    7.4882  -25.3697 H   0  0  0  0  0  0  0  0  0  0  0  0
    3.4373    2.9044  -20.9772 H   0  0  0  0  0  0  0  0  0  0  0  0
    1.9995    3.7161  -19.0620 H   0  0  0  0  0  0  0  0  0  0  0  0
    2.8139    4.1465  -17.5952 H   0  0  0  0  0  0  0  0  0  0  0  0
  1  2  2  0
  1  4  1  0
  2  6  1  0
  3  4  2  0
  3  5  1  0
 18  4  1  6
  5  6  2  0
  5 20  1  0
  6 27  1  0
  7 18  1  0
  7 23  1  0
  7 26  2  0
  8 23  1  0
  8 24  2  0
  8 25  1  0
  9 15  1  0
  9 16  1  0
 10 15  1  0
 10 17  1  0
 11 16  1  0
 11 17  1  0
 12 15  1  0
 19 12  1  1
 13 16  1  0
 13 19  1  0
 14 17  1  0
 14 19  1  0
 18 19  1  0
 18 24  1  0
 21 23  1  0
 22 27  1  0
  1 28  1  0
  2 29  1  0
  3 30  1  0
  9 31  1  0
  9 32  1  0
 10 33  1  0
 10 34  1  0
 11 35  1  0
 11 36  1  0
 12 37  1  0
 12 38  1  0
 13 39  1  0
 13 40  1  0
 14 41  1  0
 14 42  1  0
 15 43  1  1
 16 44  1  6
 17 45  1  6
 20 46  1  0
 20 47  1  0
 20 48  1  0
 21 49  1  0
 21 50  1  0
 21 51  1  0
 22 52  1  0
 22 53  1  0
 22 54  1  0
 24 55  1  0
 25 56  1  0
 25 57  1  0
M  CHG  1  24   1
M  END
>  <OMEGA_C>  (3) 
b12dQN1QhkCG77bBJr6lQP3aoUAFj7/B8KvmQKfhjkCowbDBVXu9QM0kekDpSK/BZirvQDnYqkAh
T7nBu6XOQEr4tEAgwsDBWnLKQJmwWkC7gpvB6heCQLb9YUCNDpnBhZ3tQDyni7+g5aTBU7CfQN6q
sr/RuqnBSQzVQAe5Or9f5rfB8q22QEOGDD/vYZ7BFCDsQCb1nT8QsazBFieeQEy9bT/efbHBCgq/
QAxIb78a6KDBOKL0QBy4gr6aKK/BuGSmQAB9D7+VALTBLfmzQDaWPUA506XB3U29QBkLuT98kKjB
QLMNQeN8vkAkWbrBhOywQAVehUDKY4nBHdy1QKgv30Ad0M/BUx+qQASdZkCvGJTBQ2mGQPnHRkCG
56LBaiw2QE/QdEA/VZTBqNXwQNB4XEBAfJnBAZDYQKNB0UCI/cjB4yJ8QKAIcEC8ILbBfd+MQDyK
qEAVUsXBI/3/QAvhhkDUOavBlt0BQXFqPr+/o57BGerzQOunCcBYpqbBM2ulQAZMHcDphavBKkB9
QKvqob/c5abBrt3ZQGN+Bb6CLr/BEw7bQHgb5b+jsLnBnpCVQGvSKT/iipvB7/HMQBlXYD8SF5jB
CV4BQRxvyT++hKbBbNbwQP9n6T8PB7TBRBejQG2kwj8kzrjB6eJ5QN9Phj8Yva7B/EW6QAAuxb+X
qJnBm9sKQe34w76l/LHBWSuQQJW4Zr8oQrrB1dgXQcmmqUD8Tb/BnWUMQYMp3kCaIb7BleIUQVjl
wUA1XLLBCD2SQGy2hkBhF4XBK3zHQFEmYkAO7oTBXii+QDjapUC0H4rBDETCQNZJ9UBe69XBTGCn
QPM7w0Djv9PBcomdQKCf70AN9crB7/xbQG/hOUA+0afBj/D/P2rUbUD9fpjBRBc0QGawhED/wozB
VQmdQAvkhUAzzrbBdA+lQMrOoUC5YL/BP4XmQDtijkD4v7DBAmC9QNsheUCDN6/BRbHuQMueqkDY
Q7nBi+DNQNUbtUAQmcDBionKQAvQWUDacpvB3UeCQHDcY0DhJpnBPFnVQCnSOL+D/rfBOuftQJWg
jb8UA6XBAAKgQFTYs7/816nBOnvsQC/3nD/noqzB+XGeQC5KbD9HerHBkQe3QNXNBz/OYZ7Bh/L0
QKjvhL7LNq/BBrSmQOCrD7/LErTBiFu/QBqZc7+Q/qDBjB60QOd3PEA2waXB1J29QFVrtz+HhqjB
2WkNQad8vkAnV7rBtumwQIRQhkAaeYnBXZu1QAu/3UBnAtDBjCCqQKvEZkD3FJTBHouGQKPgRECc
0aLBdeU2QALKe0CjtZTB3e7wQLR8XEDzcpnBc4TXQLYr0kD1r8jB77F7QLS6bkB7/bXBbQGMQCai
qEA8FMXB4QUAQZUthkBeTKvBeR3aQFDp5L3yN7/BWmbbQN/D479C47nBnB30QFuKCsAj2KbBagkC
QXecRL9pvJ7B5eN9QDtlo78gAafBjbylQMnJHcCvsavB8oMBQQxfxz+ra6bBN0rxQIaT6T/Q67PB
VVejQCbJwj/wwbjBynt6QFMlhT/nta7Bee+VQGu3JD/4hZvBf1fNQHZLWj81FZjBbgMLQXIGxb77
DLLBX3uQQO6uZb+/WLrB75m6QMMpyL/Yx5nByoQXQQXzqUAgZb/BwfwLQZRQ3kDfB77B8bgUQdiZ
wUCDX7LBxDqSQF34h0AvLoXB/4DHQOPVZECN6YTByBq+QAPApkB2X4rBiNnBQFbG9EBa69XBmRWq
QKLqwEDzJ9TBlRSbQM9Y7ECYhcvBkkJcQIP5NEDtl6fB2PcAQFrFdUCI85jBHck0QEWJiUArQ43B
QkmdQIwAhkDo97bBn8ilQDxDoUBLo7/Bk3nmQIDvjkCZtrDBglS9QJUfekANR6/BCiDvQDV9qkAR
VLnBwLrOQA9RtEB+1cDB96LKQA5gXEBFk5vBkTuCQOwVZUDXIJnBY2WfQD0Isb+Z46nBW3DVQDWv
Nr9F6LfB6h7tQMJEjL8g26TBS46eQKm9cT+bjrHBZje2QI7LDT/+Y57BUWHsQPcdnj+WiazBAKqm
QMX4Cr9+HLTBn2++QBJ0br8+9qDBZrn0QPqdgb6sDq/BhvuzQB0APkAhzKXB3mS9QITuuT/ohajB
wroNQb7cvUBLZ7rBJUexQOexhEDxVYnBV1q2QFfX3UBwC9DB0nGqQJZadkDctZTBYnuGQHcuR0Bu
2qLB1T82QDiVcUD9IpTBJcXwQGmiWEDTTJnBwNbYQIxM0EBgHMnBYPt7QC5ob0AAKLbBNgCNQDDH
p0Bsb8XB66L/QJlNh0AsG6vBX3Z8QILin79PJKfBmQylQNF2HMDbtKvBAGHbQNTu4r+gwbnB+57a
QHbc272LIr/B+osBQXtiQr+1h57BHDjzQPb2CcDlpqbBxOKjQDMoxT8c1bjB+n56QIqpiD8l467B
2AOVQJQqLD88oJvB9kvMQDvGXz+4CJjBTGQBQdRvyD9YSabByoTxQAwy6j931LPBBqSQQHhSYL/R
b7rBUUW5QHs8xb8uwJnBhPMKQfe7xL6kzbHBd9gXQRWwqEAXSb/B/IQMQdZc3UCnSL7BxuMUQZ6W
wUA3a7LB18WSQDNMjkDCqIXBSJ+9QC0JUECARYXBKJLIQDfmnkCCjYjBbenCQNO980BRLdbBaRqo
QA+wwUDb8dPBAs2dQNVj7kAhScvBRwtcQHBxOEDVq6fB5e3/P+iAY0DJ/ZfBCho0QOdWhEA7rozB
kZ7nQJehkUCXmrDBIrvuQEYErUAVYLnBAg6fQOzPhUD9xbbBww+/QO+bfEDKE6/BzNGlQKZLoEBr
rr/BAkfOQDNOtUDO+sDBENjKQMClW0BlSZvBKTyCQNdqXkCF45jBZuieQHGUsL96kKnB9frSQNfP
Nr/wCbjBY0ntQC2Ei78/NKXBnT6dQAiYcz9HRLHBflK3QPG5Dz/VUp7Bg7DrQAQFnz9e3qzB3cik
QFc9Cr/l2LPB1SW/QP3ObL8E7aDBpILzQHdSf762eK/BexS1QORfP0CrraXBFGa9QDRpuz/7f6jB
PteAQIQho0Cxi8fBUv2vQJxKg0AWDYnBkD66QIxS50CgWM/BEBuqQDVHZEAQ35PBO1OHQJL7SEC5
6aLBQk81QLeTa0DSJpTBHDXxQGkFYUBvWZnBznDaQKS9z0D7ecnBrJoAQVBVi0CaA6vBWNIGQToC
vEATULrBZTyAQMdZbUBByrXBP0Z8QLB1n78GiabBwlSkQOw/HMAYa6vBgaLYQNUk47/O5rnBnCzX
QHYe5b3oU7/BaAsCQQiHQL+/EZ/BlybzQLubCcBsCafBeKehQDV5xT/wmrjB+qp4QGpNij/+Ua7B
83KWQFiJLj8CVJvBCR/OQKZdYT+MH5jBeXQBQfHPyD/oyqbBqP7vQEgt6z8LMbTBCeCNQGVVX7/y
+bnBCPm6QOoExL9+qJnBkyMKQZshxL6ygLLB+6ZXQL7pvUDATsXBE2yNQJtuqEAkqM/BVANdQFcX
hUAhXsfBayGRQA1Lg0BO0YTB+v3GQLB3XkCZqoTBpUW8QN03pEAyjYnBma/JQDA4+kAisNXBSmOj
QNPG0EBT9NLBTiupQOHl/ECT28nBwIleQEYsQECEEqjB0Zz/P6m6ZEAVdZjBpbkxQEnqe0ABbozB
Dq/nQEDSkUCegLDBfgTvQM4erUCUSbnBmuaeQFyXhkCQorbBlv2+QMRbfUDM+a7BjAKmQE/poEBw
jb/Bo4zOQCNvtUD/4MDBaNHKQKH3W0C0O5vBKB6CQIgrX0Dy35jBo4ftQEn5ir9iUqXBSDOfQBJq
sL/qq6nBJiLTQIWIMr9YIrjBOYG3QDpSDz/+WZ7B5rrrQN1CoD9C46zBcD+dQI5bdT8CQ7HBG2q/
QAT3bL/TBKHBD6jzQOnucr5hja/Bb/GkQADaB79L67PB3g21QBOcP0Bfn6XBS3S9QA4DvD+XfqjB
M6KBQMUDpEBwj8fBFNWvQJg+hEA0ConBi8q6QDws60AvOM7BC/upQAW9ZkAx5JPB20mHQCW5SEAa
3KLB1OU0QAO2a0CLKJTB9i7xQLwHYEBhP5nBY1LaQGyRzkDBnsnBQJoAQaBwi0Ay5qrBPwAHQcHz
u0BFPLrBzLp/QBrlb0DYnLXBvy0CQa1iQL8TLp/BNWzzQDw8CcDyNKfBZMCkQE0KHMDfkqvBXdh8
QJMUoL9coabB1T3XQPKLtb02ZL/Bmt7YQAC94L9cDrrBCKWWQD0jLT9fVpvBelPOQP9aYD8JJpjB
GHsBQXTHyT+ZzqbBnfTvQO8E7T9lMLTBUX2hQH8bxz9zk7jBpbd4QBpjij+RSK7BO1C7QBOxxL8C
xpnBHTYKQbisu766mLLBQgiOQAhfXL9ADrrBtY1ZQKwRv0ADcMXBzc2OQOQHqUDLn8/BkehdQEcv
hkD5bMfBqsOQQH41hUD46ITBT/DFQDHYXkAbl4TB7DG9QAzDpEDaeonBSxHJQD2K/ECi/dTBii2f
QGJ92EDRCtHB4y6wQLQZAUF1HcjBKoNeQHvrPkB8/6fBk/3+P4aSY0DRcpjBXxUxQNXkfECEd4zB
xE/nQF4CkkAogrDBGtHuQHQhrUA+ULnB3n+eQKfzhkC6qbbBJJa+QIfmfUCTAa/BMMqlQNMeoUDd
mr/BfnfOQMZitUBS8MDBgrnKQGE9XUCMU5vBCwuCQFtXYUCg75jBCBPTQNhUML9+HbjBzPbtQFlP
iL8XUqXBSpyfQFHAr7/Cj6nBTJrrQBs+oj/v9qzB1AidQHjedT+AMLHBtsi3QJgkEz+1UJ7BNrfz
QLY9Yr4zl6/B0PSkQFArB7/C1bPB3Oi/QHwtab+P9aDBcMW0QNA4QEApp6XBdGO9QGhbvT/PfajB
1ZaBQFAapEDLqsfBGhCwQOBVg0D5AInBYj+7QLi46kCpbc7BzOqpQEcAc0COX5TBSgmHQAssSUDg
3KLBmAg1QBouaUDN/ZPBfv/wQPZcXEBmK5nBOIjaQA8lzkCauMnBWV0AQZezi0Dk3qrBXuwGQU7g
u0CvQLrB8L1+QHoNcUBon7XBGOrWQGkup73hY7/Buu/YQFaY379mBrrBLAP0QHzmB8AoLafBXW4C
QQ0iOb/OOJ/Bfr19QIQmoL/9eqbB01ilQP2sG8CbcqvBDHoBQUaxzD8T8KbB3ILvQDGT7j9YS7TB
KPGgQIc2xz97hbjBBWt4QB3riT87J67BLfaWQMzeLz/sQ5vB0qrOQMTZZT/zJZjBbTcKQZN7sb5e
rbLBl/SNQIM1Xb8C7rnB3BG8QOeHwr+UsZnBIoRZQF5Ev0AfnsXBxPGOQFPeqEC2uM/BqahdQEFT
hkDygcfB1PuQQGjpikD4VIXBcDi+QN33TkBB84TBQ5vFQJP8nkBQM4jBNcHJQM7E+0BEONXBNJuf
QBwR2EDmPtHBQJ6wQDgDAUFcZMjBodpdQJscPkAw8KfBywr/P5kCXEAjD5jBCokxQNIAfECWW4zB
FpeeQIT8hUD2+rbBnE6nQBK5oEA/ur/BW13nQPYAkEACg7DB1ie+QGqIfEBIEq/BICXwQNI1q0CU
LrnBQBbQQJMjtEAO2MDBCCfKQGr/XUDFN5vBI8uBQGY4X0D6x5jBd5qxQC/9ab8vFbfBVSj4QLPY
Wr8qT63B87q0QAKlvL9oaaPBzt7VQCyMpD9TabPB6vyRQAGBKD87kqnBM7PYQFppOj/Uvp/B5End
QBGmSr6IOrbBEIOZQNcEU78FVazBX1HgQFnzQb+mgKLB1Gy0QJsHQECkpaXBpze9QFuouT+UhqjB
zycOQTsFv0CDLLrBX56vQE/ZgUAcy4jBtGO3QOmn30DKoM/BN5ypQGxfZED+wpPB3dGGQB7NTUBV
76LBcJM0QBzAakAz9JPB7VDwQJhKZ0DpO5nBJGfaQLNFz0BmRMnBWwd/QPJFbkADRLbBuNGOQMCO
pkC0pcXBujgAQX+IiEAt3qrBBFueQLO33r4kYL3BOdG2QKNW/L/6ILnBoZH9QD/n9L9zSa/BmY8L
Qfj4rL7Rq6zBR6OjQCxlsr/evpvBmge6QFA0IsDYVKXBoRD1QFL55D//xbLB2v7CQNF24D+H07nB
rDR9QKr0jj9A76/BN6SAQPorOD/77aHBnc/HQHRKSj9cCpjBfNT3QFgXnj+SF5/B0FvuQDqZi77A
5r3BGzl1QFgorL8w+azBOJnzQGJknb+gLpzBmIYYQbHLqUAY6L7B8eAMQQdD3kCALb7BqREVQcZf
w0CeJ7LBitKQQNAugUDgiITBvrvGQMF/WkBkm4TBvdC7QCfbokB7BInBOA3EQDaK9EAf99XBauil
QCbNxEA7RdPBRJChQL4V8kBxfMrBRK5dQG05SkCcNqjBsP79P7bZZUBUSZjBmSQxQFr4d0BhI4zB

>  <OMEGA_E>  (3) 
AAAAAAC7LzwAdTo8gKdUPYA+Xj0AnnA9QLXTPQ==

>  <OMEGA_NBR>  (3) 
      6855

$$$$
50157435
     RDKit          3D

 51 54  0  0  1  0  0  0  0  0999 V2000
    4.9139    4.1890  -22.8628 C   0  0  0  0  0  0  0  0  0  0  0  0
    6.4210    1.1333  -22.3882 C   0  0  0  0  0  0  0  0  0  0  0  0
    5.1871    5.0291  -23.9526 C   0  0  0  0  0  0  0  0  0  0  0  0
    6.6715   -0.2167  -22.6936 C   0  0  0  0  0  0  0  0  0  0  0  0
    5.7252    0.4935  -20.1388 C   0  0  0  0  0  0  0  0  0  0  0  0
    7.2010    4.4708  -22.0731 C   0  0  0  0  0  0  0  0  0  0  0  0
    6.3196   -1.8051  -18.1587 C   0  0  0  0  0  0  0  0  0  0  0  0
    4.8330   -2.9602  -19.6777 C   0  0  0  0  0  0  0  0  0  0  0  0
    5.2317   -3.7740  -17.5233 C   0  0  0  0  0  0  0  0  0  0  0  0
    5.9619   -0.8597  -20.4483 C   0  0  0  0  0  0  0  0  0  0  0  0
    5.7072   -1.8854  -19.4244 C   0  0  0  0  0  0  0  0  0  0  0  0
    5.9412    1.5031  -21.1027 C   0  0  0  0  0  0  0  0  0  0  0  0
    5.9068    3.9278  -21.8908 C   0  0  0  0  0  0  0  0  0  0  0  0
    7.4778    5.3288  -23.1540 C   0  0  0  0  0  0  0  0  0  0  0  0
    6.4694    5.6190  -24.1058 C   0  0  0  0  0  0  0  0  0  0  0  0
    6.4377   -1.2158  -21.7315 C   0  0  0  0  0  0  0  0  0  0  0  0
    6.3244    3.3792  -19.4468 C   0  0  0  0  0  0  0  0  0  0  0  0
    4.0583    3.5628  -19.1431 C   0  0  0  0  0  0  0  0  0  0  0  0
    5.6138    2.9587  -20.7352 C   0  0  2  0  0  0  0  0  0  0  0  0
    8.8733    5.9151  -23.2999 C   0  0  0  0  0  0  0  0  0  0  0  0
    5.5521    4.2103  -17.1920 C   0  0  0  0  0  0  0  0  0  0  0  0
    5.7347    6.7672  -26.1139 C   0  0  0  0  0  0  0  0  0  0  0  0
    6.0809   -2.7563  -17.2301 N   0  0  0  0  0  0  0  0  0  0  0  0
    4.6028   -3.8852  -18.7212 N   0  0  0  0  0  0  0  0  0  0  0  0
    5.3245    3.8315  -18.5968 N   0  0  0  0  0  0  0  0  0  0  0  0
    4.1881    3.0541  -20.3494 N   0  0  0  0  0  0  0  0  0  0  0  0
    2.8364    3.7918  -18.5202 N   0  0  0  0  0  0  0  0  0  0  0  0
    7.5194    3.2920  -19.1832 O   0  0  0  0  0  0  0  0  0  0  0  0
    6.7856    6.4678  -25.1622 O   0  0  0  0  0  0  0  0  0  0  0  0
    6.7043   -2.5078  -22.0386 F   0  0  0  0  0  0  0  0  0  0  0  0
    3.9373    3.7381  -22.7656 H   0  0  0  0  0  0  0  0  0  0  0  0
    6.5944    1.8936  -23.1354 H   0  0  0  0  0  0  0  0  0  0  0  0
    4.4153    5.2288  -24.6812 H   0  0  0  0  0  0  0  0  0  0  0  0
    7.0448   -0.4871  -23.6703 H   0  0  0  0  0  0  0  0  0  0  0  0
    5.3747    0.7624  -19.1533 H   0  0  0  0  0  0  0  0  0  0  0  0
    7.9862    4.2236  -21.3739 H   0  0  0  0  0  0  0  0  0  0  0  0
    6.9806   -0.9821  -17.9304 H   0  0  0  0  0  0  0  0  0  0  0  0
    4.3462   -3.0448  -20.6380 H   0  0  0  0  0  0  0  0  0  0  0  0
    5.0485   -4.5274  -16.7714 H   0  0  0  0  0  0  0  0  0  0  0  0
    9.4957    5.2363  -23.9015 H   0  0  0  0  0  0  0  0  0  0  0  0
    8.8096    6.8932  -23.7991 H   0  0  0  0  0  0  0  0  0  0  0  0
    9.3243    6.0402  -22.3044 H   0  0  0  0  0  0  0  0  0  0  0  0
    4.6024    4.5327  -16.7402 H   0  0  0  0  0  0  0  0  0  0  0  0
    5.9465    3.3455  -16.6384 H   0  0  0  0  0  0  0  0  0  0  0  0
    6.2778    5.0358  -17.1480 H   0  0  0  0  0  0  0  0  0  0  0  0
    6.1231    7.4443  -26.8889 H   0  0  0  0  0  0  0  0  0  0  0  0
    5.3879    5.8343  -26.5825 H   0  0  0  0  0  0  0  0  0  0  0  0
    4.8949    7.2499  -25.5928 H   0  0  0  0  0  0  0  0  0  0  0  0
    3.4245    2.7695  -20.9290 H   0  0  0  0  0  0  0  0  0  0  0  0
    1.9843    3.5663  -18.9927 H   0  0  0  0  0  0  0  0  0  0  0  0
    2.8096    4.1820  -17.5999 H   0  0  0  0  0  0  0  0  0  0  0  0
  1  3  2  0
  1 13  1  0
  2  4  2  0
  2 12  1  0
  3 15  1  0
  4 16  1  0
  5 10  1  0
  5 12  2  0
  6 13  2  0
  6 14  1  0
  7 11  2  0
  7 23  1  0
  8 11  1  0
  8 24  2  0
  9 23  2  0
  9 24  1  0
 10 11  1  0
 10 16  2  0
 19 12  1  6
 13 19  1  0
 14 15  2  0
 14 20  1  0
 15 29  1  0
 16 30  1  0
 17 19  1  0
 17 25  1  0
 17 28  2  0
 18 25  1  0
 18 26  2  0
 18 27  1  0
 19 26  1  0
 21 25  1  0
 22 29  1  0
  1 31  1  0
  2 32  1  0
  3 33  1  0
  4 34  1  0
  5 35  1  0
  6 36  1  0
  7 37  1  0
  8 38  1  0
  9 39  1  0
 20 40  1  0
 20 41  1  0
 20 42  1  0
 21 43  1  0
 21 44  1  0
 21 45  1  0
 22 46  1  0
 22 47  1  0
 22 48  1  0
 26 49  1  0
 27 50  1  0
 27 51  1  0
M  CHG  1  26   1
M  END
>  <OMEGA_C>  (4) 
wD6dQBQMhkD95rbB8XjNQKkPkT8gG7PBg/ylQCPuoEDenr/BFH3VQK3gXb5qjLXBOjW3QCKu/D48
HKHBzG7mQJEQj0CjlbDB/TnKQH0M578ORZHBIKiaQGt0PcDra53Bu2mnQPGJccCzL4zBNMi+QCcY
XL8wlqPBtqG2QEZT8b9BZZvBTB6+QKZkwD8+0qjBIgS9QHFge0BTIK/B7knvQEOFqkBQO7nBewXP
QD7Ps0C22MDBmwHOQIqem78h2q3BOmHKQDVEWEAhk5vBtd2BQEEEZEAMJZnBAqSzQO9bPUCq4aXB
NvkNQUJIvUA1ZrrB4qqxQAy7hkBIiYnBn4K3QIOM2EBS6dDB2ZbCQAdoMMA614nBPkqTQCuneMD6
xJXBa2KqQJg2dUA1xpTBxwSGQPZ1Q0Cly6LB7oY1QNSsckBxKZTBiZ7wQJWvUkBId5nBziPZQAH4
zkAqTMnBg4nWQNp/IMAiT7DBRv17QNM9b0DbH7bBKgXTQLBg8j9lFbnBfkqNQBhSp0Asc8XBwm7h
QFdj+b63XL3BOv2rQAUtQz/0OZnBF4//QBcoh0DL/arBKGHfQCRpe7+EcY/BKxSLQHPdQsC2GqXB
ZI2hQHjgkMDeK4bBZO4XQfaPp0BeNr/BOPQMQfmU3ECiZL7BUjAVQTRJwUB1b7LBGkeTQDEMkUDo
64XBYEm+QCMcVkB2G4XBHOTIQCMloUAZL4nBpvDDQKs37kB8HNfB6mmsQM+yukAGqdTBqaKcQG//
50ACvszBwCpbQIM/MUCqbqfBFv79P6I+ZED28JfBF9EzQNjShUCSzIzBygGeQIM5hEBEELfBxPyb
QJj4Lj+3hK3BwI6mQMi0n0C2rr/Brd2jQAlMKL+SFrDBStTlQMLEaj9TtqfBxjrnQJThjEBPx7DB
pSIdQePrWb68haLBoy8TQRMWFsDk86nBjzk1Qckb/79v5KLBzlLuQCT65r4K4qnBLSsNQRJPgb9m
gqfBdZS8QNnEvD/H66jBXNK9QAP+dkDyUa/BGuHvQKwPqUBBT7nB7nvPQB7askC22sDBjSHMQGNA
nr94J67BCGPKQP7qV0BNa5vBVeyBQKzYYkB2+pjB3auzQE4FPEBk0aXBWjMOQaU9vED6ZrrBD5ax
QOPYhUBOV4nBHqy3QFqQ2EDuwtDBuLswQUmXNb8zYaDBZ9MmQUnzM8A2k6fBJlCqQHpVc0DTk5TB
QA2GQOeqRUAbxqLBdps1QMBKcEA+95PBHLjwQGqYWUAdTZnBjGDZQIm2zkCSL8nBnCbQQHDjIsCZ
kLDB7qd9QPkza0B6VrbBFcd5QOmGjj/cDq/BDMmNQIdYpkBOecXB67SKQHt/oL8JmbPBebX/QHKJ
xj/oDaXBRUMAQTdxhEBWSKvBWIEZQYA+Tz8JaaDB98cHQWbwP8B3y63BUPNEQeNIGMCEFaHBdjcY
QSgQp0CtVb/Baw0NQTbY20ADPL7B/G4VQYuyv0AobbLBkBCTQHV8j0DRrYXB6eK+QGzQVED08YTB
ikDIQLu+oEBjAYnBPe7DQIPH7kBi3NbBjtSsQNrlukBXpdTB4amcQDF850DYhszBevFaQIasN0Ca
lqfBnD3+P4OQY0Bm2ZfBQ8szQPFYg0CxeYzBzrmdQOWUhkC837bBTH6mQBJzYD/bhrHBpxunQGUH
okDJe7/BRcutQHuD8L79PLTBUUfaQIWcLz/TE6PB0OrnQF5Ni0BH9LDBiMgDQQUEkr8gPpTBAHMN
Qd/OHMDfvaPBSdMdQUS4M8A1MZPB9vbhQHW0Kb8ftqXBiLAAQUJat7+NNZ/BRry8QOB2vD/s46jB
Bta9QPl1d0ArVK/BZE3xQJJGp0DldbnBOZfQQK0as0APscDB8UTLQGkxn7+AYa7BAm/KQH/kWUBo
iZvBD+qBQFzvYUBFApnB8amzQN3zO0Ds06XB9wgPQT7fuUDUdbrBuK6xQChwhUA2WYnBO5XPQI2s
+kD23cbBgkwSQY3M6b/Ib47Bn6QbQXYeSMCorJ3Ba0qqQGkTc0AjmpTBFxWGQIQlQ0AEwKLBOrE1
QLokcEC0/5PBoebwQGVNXUBIlZnByTbZQKdczkBpFMnBQv/PQN8yI8AA+LDBL7N7QCBgc0BcAbbB
eMOPQOTXuj8KEbbBWm6OQO4MqkC/MMXBBK6cQKOmab/62rrBs13rQMmakD+ZdZzBlZYAQdGOgUCF
lavBxuT0QIKhub7XfJDBOdYLQS4VLMAiIazBujopQTkEV8BRbo7Bmt0YQbPnpEA/ir/B8RsOQYHj
2UB7Fr7BvFQWQcpKvECTebLBfRGTQNwmjkBUl4XBv9W/QJJTVEBLDoXBGK3HQHjioECM/ojBq1DX
QAMfB0EB7M3B91qtQMn1/UD9+8TBRLziQNXKAkGJAcDBbStbQG62MkApeKfBvjr+P1XEYkDz05fB
Pg40QP3eg0C7kIzBFeSdQLBThEAjJLfB3sneQKVxlT/lHrDBMlymQNqZn0D7zL/BL2znQC03NL7G
rbLBoB+nQKr35D7quaPBsSDmQIX/j0ABb7DBv1WTQIbOAsCNBZbBtL59QGkLOcD0aKfBibVMQJKU
ecCysZfBRUSvQP5+Zb9sZabBSeGVQCxr+r/3P6HBssG9QCKCvz/2x6jBBUC9QFwrekDbMa/B1vvu
QDwgq0DnJLnBAvHOQPGQs0Bj4MDB4IDPQFHNmr8R7a3Bd0/KQIQXV0C0g5vBqNKBQGlSZECwG5nB
QJ+zQPssPUCN16XBfqsNQZWvvkAJNrrBAKWxQDtEhkCxeInBLC63QJFU2EAF6tDBhMF3QJNRQcBP
aJHBmpJOQHcadsDdiqLB2GCqQMOAdEDvtpTB++uFQMR6RkBI4qLB62o1QJ7JcUD9FJTBFI/wQB11
UUB8bJnBG9nYQET5zkD+SsnBmLTYQNzWH8BpXbDBSEp+QNx0aUBxirbBw23xQFor+j+VxLPBIMyN
QL91pUAUs8XBhj8AQcdX1L5ST7jBo0+PQNcBLj9Bv53Bydf+QM6EiUCenarB5yikQHkeqr+1GJHB
eRiAQLgWNsBiCbDB6GInQPWclcAo55PBPPcXQUwjqUCS5L7BL3cMQcrC3UDxTL7BQ58UQcxRw0DN
NbLB+0yTQIzNkEBH34XBfAG+QOLyVEDoCoXBkRHJQJ9/oEAIGYnBoG7DQK877kCrFdfBhG2sQOJt
ukA/s9TBhRycQABt50AVvszBhdVaQNDyN0CPsqfBGc/9P42QZEAF75fBVKozQAtZhECAnYzBX+Pm
QHIRj0A/lLDBx2nOQDJMkT9j/LLBrcbvQEg1qkBfQbnBND/XQBa4Wb5XVLXBzGC1QHEL+z6zOqHB
d6qdQGc5hkCUALfBO6GNQFDNAcBpv5bBfJPXQNfWLsBPxJfBZYWnQI5nccCvGozBh62+QOqeW7/I
hqPB0Iu2QBsL8b/DU5vBb4+9QLRewD9W2KjBlk29QFOYe0DjKa/BmK+mQFnjoED7zr/B76vPQBu5
s0C9y8DBw7XPQP3dmr80n63BH1vKQFQGWEBWl5vB0+CBQAdDZEDsIpnBvIazQIqgPUCC6aXBqriD
QEJ3qkBM58fBcM2xQGaahkCnh4nBHSPTQLdj+0CnzMbBdKKGQOSPPsD1Qo/BPaPPQNAwasBeK5DB
knCqQHoOdUAZxZTBu+yFQK+FREAy1aLBnaU1QOWnckB5HpTBAJvwQAZTUkDvf5nBYt3YQF6SzkDP
OMnBzOfXQPg+IMDaFrDBz+f/QCRLh0Cl8arBX3rUQCed8j+a7rjBUasHQcfTt0C+JbrBod3jQMQn
977FE73BFtinQOHCQD/kj5nBRph8QLkecEBbOLbBsqZnQLOcsL8pOZnBGEz3QB0DKcAvHpvBPoKh
QOrSkMApGobBh15jQCrnxkBZV8XBZzySQCmBsEDxxs/BcddbQBTrjkARdcjBM3OTQOn2kEBO54XB
ZGS+QEnHVUBRHIXBrRPJQB/5oEDqLYnBchLbQJFTB0F/5M3B16axQNycAEEcg8TBBFLoQLY3AkEj
JcDBINZaQKBSM0ChgafB3hP+P42rZEA26JfBsRQ0QCZ/hUD+uIzB/0CdQP+Th0An1bbB6im5QI6j
gz/ShLPBpramQJuNokC2hb/BYDTBQL6qor6LBrbBldzIQLLrET9Fy6DBOFnnQK/qjED107DBZRvP
QPmBwb8164/B/uT6QGKiMcDRN5zBeQ32QO/NV8DhM4rBW43RQG8VSL+WPKPBz1veQIzx2b+ldJrB
0MC9QCd7vz++36jBCVa9QNA4ekCPP6/Bz8rwQAJqqEDra7nBny/QQFOjs0BAvsDBt33NQG2enL/x
/K3BxGPKQOZbWkAHqJvBnt+BQKdgY0BcHZnBSnezQFwbPUCJ5qXBBMEOQakau0D8cLrB4b+xQGaT
hkAlhYnBjafOQJbM+kA2KsfBhD3bQET+FcA0+ofBHv8CQXIzZsBTH5TBTFeqQHhodUASxpTBV/eF
QOvUQkAnxqLBPKU1QAq4cUBSGJTBZLXwQBpWVkBwjpnBAt7YQBJ9zkAINMnB5mPTQOhOIcCwubDB
Jbp6QMODdUAl7rXBBmqvQHQo2z8yv7nBKR6OQPc1qkA5SMXBiO29QFHCKL9jLr7BVr3KQB0oZz+Z
lpjBWj0AQT27g0AHXKvB3JW5QBCzMb8pNo7BQ/cDQfMgPMCHHKTByhf/QFtIgcBAzYPBWKsYQajk
pUBgar/BZc4NQTDi2kAWMr7BUPgVQSsTvkAOc7LBxUWTQMMdkECo0YXBQxm/QCgHVkBxLoXBGWzI
QDN2oUCpJ4nBDnbWQIsJB0HOQ87B9lCsQO7M/UCIYcXBJGbhQBolA0HpSsDBAABbQARpMEA+Y6fB
yB3+P+gPY0AS2ZfBSQ80QF9YhUBVu4zBpC2eQCbphEARP7fBSg/fQKkplj8LC7DBUDynQFBWoEAR
4L/BRAHoQHoNLL4yh7LBLLSmQEIf5j4446PBFIHmQC/Mj0DgarDBzoVUQPoI37+bXp7BXECnQGJ3
TsD+iJ7BjzhLQJkpesBIfJfB2FmvQOQXZ78DWabBQomVQN/Y+7/5HaHBf5K9QJXvvz+I2qjBo169
QHCIekAJPq/BsA3wQAxUqkDWL7nB0eHPQHiPs0B3zcDBpD/QQBpgmr/2za3ByDnKQCT0VkBAjJvB
P8eBQOxlZEDdIJnBCnqzQPpyPUDj5aXBVSsOQdIcvkD4EbrBzrGxQDoahkBDfInB9fDNQPa3+kAf
OMfBHSEmQFiRLcBsl5nBUg6PQI+phcAM2ZnB+FqqQLxhdEA6vJTBHc6FQHMmR0BP8KLBq201QGGh
cUB2EZTB9XHwQHbkUEBhcJnB1C3YQG1qzkD0SMnBm+zYQFG2HsA5xLDB8It+QN0sa0Cft7bBv9Px
QDQE+z+lorPB3PSOQJyypkCb0MXBxKYAQSeWzr7jGrjBiSmOQN51Lz/AGp7B+dr+QDF0iUDGfqrB
S0w3QA7ASb/aGqDBlW7IQIZuW8DqU6DBnB4lQC3KlcDzxJPB6aMYQeHLqECZuL7B7v8MQfFK3UCl
HL7BieUUQciUwkD6A7LBRmOTQIGskECA34XB3QO+QEF/VEDgEoXB8yzJQCZIoEDBGonBQ23VQAYC
B0FLVs7B26qrQPij/UAEWsXBKu3gQMQfA0F5ZMDBgIhaQDhEOUB3xafB0qv9P5G0ZEAG65fB89Mz
QE0JhEAwlIzBoGbnQBw/jUCF07DBQ1S5QHI7hD9ChbPBHEnwQAHLqEBvbLnBLJfBQMFgn764C7bB
5l/IQGCaET/LxaDBTFWdQLpFh0A70bbBzsX1QOKjnL9BnJHBlMbSQERJRMAthprB5yL2QAKsV8Dt
P4rBrzTRQHf1R7+LO6PByBveQHyi2b/1dZrBILS9QCbJvz9T3KjBtXG9QGiAekDBNa/BgoymQD2a
oUAqrL/BeOjPQJp8s0C9ycDB2dvNQNTcm7/oAq7B4GnKQIhDWkDYoJvBkt+BQL1iY0D3F5nBy4Wz
QLlDPUDT36XBMWyDQCLTq0CsrMfBl7SxQOR5hkCBfInBhYPTQA8++0AUucbBjaYAQYH6A8DAp4nB
WyjfQAdReMCDfZLBOleqQJFKdUBFvpTB0ACGQCb2QkBdwaLB6pQ1QJiucUD8FZTBFr/wQNJCVkCK
jJnB2z/ZQDlzzkBoLsnBqzzXQLFRH8Cq5LDBBF4AQR8uhEBxZ6vB2ZKvQDnQ2z+dvrnBIAgIQVvR
tUCVY7rBpH++QL2bJr8RNr7B6MzJQPzCZT/kjJjB+OB6QDwpdUB20LXB0LD+QDHhOb78NZHB0g3A
QES4XcDCDaHB5fb/QAsQgcC544PBbEZkQPOwyECsFsXBoLGRQANssUCemM/Bjf5ZQH3BkEDmIsjB
EDeTQBcCkEBuyoXBjAi/QHnLVUB7JoXBamHIQIlboUAWHInBAJLbQE9NB0Fwys3BUf+xQKqIAEFm
dsTBxpnoQJEWAkFFCsDBRRtbQIyYMEC4YKfBThP+P8YUY0Ae2pfBE+kzQEVIhUDet4zBb12mQOYD
dED1A7nB4CakQItGSj+axLDBK/SvQPDhlEDes8HB3DqsQGXbDL9zgrPBP3LcQELIMT9iYqPBmp7e
QHP0m0ADla7Bi5AWQdv9dL+oXp7BXqD2QBcaJcBN25nBzSAeQYZkMcBXNpPB903jQMElKb+CxqXB
o1gBQbfvtL8+Z5/BRcm8QFmcuT++zqjBGTa+QOODeEBEXa/Bkd7nQHFnt0CkL7fBMHXQQBnUs0Do
zcDBOJfLQOYepL/x/K3Bo5fKQI56V0Dec5vBkiOCQE5QYkALH5nBcfezQIPBO0Cq4aXBqKoEQdM3
2kC0wbXBv7yxQJ1jhUB/YonBBHe9QF+480AqwcnBUrEkQSgQ07+PW5jBW8UJQRpLT8DjzpPBzHyq
QAx9ckB0oZTBamCGQFk6RUBc9aLBsCs2QOk5cEBZFpTBlRTxQNXzWUAFeJnBUfHYQPmgzkA8SMnB
arvSQKPeJMBboLDBg3WMQJqVRkCysLnB386KQJ3LqT+Kx7TBmVGeQIbGkUCoF8nBP0eaQLJFgr8B
4LnBSKrvQJnLlT+gS53BLoTwQOsIn0AjO6fBpYkbQYOYWL18Y6LBOzbWQGedPMAFcZrBApgpQXhF
VMCZcI7BKmkUQfv8zUAgO7jBZWcAQQkM9kCwtLrBwEsFQWfV40AVTK3BbC+TQO7ijkAst4XB+Ca/
QI3yU0BBAIXBikzIQHNfoECQConBbjjGQE22A0HatdDBlvabQCRb6UDvg8rBxkPBQG5SA0E/ZcLB
69ZbQJVbN0BH0afBFRf/Pyf/Y0Ad95fBpJw0QE87g0CYlozBXADoQCqVi0AO+bDBqcmmQMbfYj9o
krHBg9rwQG+Xp0Cce7nByjyuQHKG6r50VLTBhZnZQNKaLj+56qLBM8WdQLN9hkBZ2LbBlpQSQYJQ
R79YnprB1o/8QC+pM8ANRZ3BZ8IdQSloM8CGMpPBLL/hQCj+KL/Eq6XB2rMAQWx/tr8lPJ/BVa68
QFYEvT+E2qjB+PC9QFzdd0CHS6/BCOimQK1doUDznL/B11fQQPsPs0Duu8DBbKnLQBnXnb/Wd67B
IIPKQMkeWkALh5vBJPqBQDEuYkBA+pjBEbWzQNVEPED2y6XBXpWDQECArECffMfB1MixQLFuhUAY
UonBiXHUQLIn+0AHbsbBEsAgQcKgvL8rq5TBEdwMQfVcXsCBXZfBY2GqQGBCc0Dfk5TBnyGGQLd2
Q0AMuKLBDcw1QEdOcEDC95PBlwPxQIL9XEDOmpnB6qnZQCZxzkDxDMnBAvrSQP2NIMBmmrHBJLwA
QezhgUDpqKvBgDWQQMpfvD9iI7bBb1wIQTFftEAvd7rB/EedQFzuZb8G/LrBYtHpQBOTjj88HZzB
Lrx7QDOUc0Az3rXBh+gUQZ9yjz6O3ZvBYVPhQNxeVcDSg6DBYlMpQfR3VsDggY7BsEllQNJPyUCj
ucTBT5+RQHyUskCHac/BGtBZQHKqkUDeBsjBrC2TQIEjjkDhjoXBNuu/QNw5VEDBCoXBaszHQCDc
oEAZ9IjB8nTcQNRoB0HGcs3BaQ+zQPGWAEGeFMTBb9XpQATDAUHvwr/BhkJbQEYTM0CBcKfBDnj+
P1zqYkCqzJfBDCI0QNDtg0A5iIzB

>  <OMEGA_E>  (4) 
HDwxP/DMMT9ssTI/LukwP8h6OT/uujM/FLQ0P1BMOT9wAjc/RNw3Pw==

>  <OMEGA_NBR>  (4) 
     31840

$$$$
50157458
     RDKit          3D

 51 54  0  0  1  0  0  0  0  0999 V2000
    7.2546   -0.1813  -22.3040 C   0  0  0  0  0  0  0  0  0  0  0  0
    6.5075   -1.2106  -21.7045 C   0  0  0  0  0  0  0  0  0  0  0  0
    6.9720    1.1641  -22.0050 C   0  0  0  0  0  0  0  0  0  0  0  0
    4.9433    4.1501  -22.9075 C   0  0  0  0  0  0  0  0  0  0  0  0
    5.2255    5.0077  -23.9857 C   0  0  0  0  0  0  0  0  0  0  0  0
    5.1990    0.4519  -20.4919 C   0  0  0  0  0  0  0  0  0  0  0  0
    7.2042    4.4894  -22.0552 C   0  0  0  0  0  0  0  0  0  0  0  0
    5.2382   -3.2423  -19.9000 C   0  0  0  0  0  0  0  0  0  0  0  0
    3.3389   -1.7537  -19.7574 C   0  0  0  0  0  0  0  0  0  0  0  0
    3.2220   -3.9403  -18.9466 C   0  0  0  0  0  0  0  0  0  0  0  0
    5.4720   -0.8990  -20.7933 C   0  0  0  0  0  0  0  0  0  0  0  0
    4.6790   -1.9715  -20.1492 C   0  0  0  0  0  0  0  0  0  0  0  0
    5.9216    1.4971  -21.1105 C   0  0  0  0  0  0  0  0  0  0  0  0
    5.9188    3.9109  -21.9079 C   0  0  0  0  0  0  0  0  0  0  0  0
    7.5016    5.3195  -23.1507 C   0  0  0  0  0  0  0  0  0  0  0  0
    6.4956    5.6085  -24.1018 C   0  0  0  0  0  0  0  0  0  0  0  0
    6.3215    3.3551  -19.4458 C   0  0  0  0  0  0  0  0  0  0  0  0
    4.0578    3.5657  -19.1410 C   0  0  0  0  0  0  0  0  0  0  0  0
    5.6095    2.9582  -20.7400 C   0  0  2  0  0  0  0  0  0  0  0  0
    8.8852    5.9381  -23.2617 C   0  0  0  0  0  0  0  0  0  0  0  0
    5.5567    4.1851  -17.1861 C   0  0  0  0  0  0  0  0  0  0  0  0
    6.4308    7.8320  -24.9032 C   0  0  0  0  0  0  0  0  0  0  0  0
    4.5041   -4.2043  -19.3015 N   0  0  0  0  0  0  0  0  0  0  0  0
    2.6322   -2.7393  -19.1656 N   0  0  0  0  0  0  0  0  0  0  0  0
    5.3263    3.8142  -18.5926 N   0  0  0  0  0  0  0  0  0  0  0  0
    4.1824    3.1132  -20.3691 N   0  0  0  0  0  0  0  0  0  0  0  0
    2.8377    3.7701  -18.5064 N   0  0  0  0  0  0  0  0  0  0  0  0
    7.5160    3.2598  -19.1828 O   0  0  0  0  0  0  0  0  0  0  0  0
    6.7542    6.4484  -25.1615 O   0  0  0  0  0  0  0  0  0  0  0  0
    8.0475   -0.4241  -22.9959 H   0  0  0  0  0  0  0  0  0  0  0  0
    6.7251   -2.2418  -21.9405 H   0  0  0  0  0  0  0  0  0  0  0  0
    7.5586    1.9490  -22.4592 H   0  0  0  0  0  0  0  0  0  0  0  0
    3.9776    3.6712  -22.8409 H   0  0  0  0  0  0  0  0  0  0  0  0
    4.4664    5.2068  -24.7276 H   0  0  0  0  0  0  0  0  0  0  0  0
    4.4255    0.6912  -19.7772 H   0  0  0  0  0  0  0  0  0  0  0  0
    7.9659    4.2899  -21.3159 H   0  0  0  0  0  0  0  0  0  0  0  0
    6.2585   -3.4467  -20.1894 H   0  0  0  0  0  0  0  0  0  0  0  0
    2.8777   -0.7930  -19.9325 H   0  0  0  0  0  0  0  0  0  0  0  0
    2.6465   -4.7197  -18.4694 H   0  0  0  0  0  0  0  0  0  0  0  0
    9.5393    5.2726  -23.8441 H   0  0  0  0  0  0  0  0  0  0  0  0
    8.8115    6.9129  -23.7660 H   0  0  0  0  0  0  0  0  0  0  0  0
    9.3065    6.0770  -22.2551 H   0  0  0  0  0  0  0  0  0  0  0  0
    4.6100    4.5150  -16.7335 H   0  0  0  0  0  0  0  0  0  0  0  0
    5.9421    3.3141  -16.6358 H   0  0  0  0  0  0  0  0  0  0  0  0
    6.2906    5.0031  -17.1382 H   0  0  0  0  0  0  0  0  0  0  0  0
    6.6644    8.4359  -25.7924 H   0  0  0  0  0  0  0  0  0  0  0  0
    5.3592    7.9208  -24.6710 H   0  0  0  0  0  0  0  0  0  0  0  0
    7.0222    8.1934  -24.0490 H   0  0  0  0  0  0  0  0  0  0  0  0
    3.4149    2.9013  -20.9740 H   0  0  0  0  0  0  0  0  0  0  0  0
    1.9842    3.5699  -18.9875 H   0  0  0  0  0  0  0  0  0  0  0  0
    2.8136    4.1173  -17.5690 H   0  0  0  0  0  0  0  0  0  0  0  0
  1  2  2  0
  1  3  1  0
  2 11  1  0
  3 13  2  0
  4  5  2  0
  4 14  1  0
  5 16  1  0
  6 11  2  0
  6 13  1  0
  7 14  2  0
  7 15  1  0
  8 12  2  0
  8 23  1  0
  9 12  1  0
  9 24  2  0
 10 23  2  0
 10 24  1  0
 11 12  1  0
 19 13  1  6
 14 19  1  0
 15 16  2  0
 15 20  1  0
 16 29  1  0
 17 19  1  0
 17 25  1  0
 17 28  2  0
 18 25  1  0
 18 26  2  0
 18 27  1  0
 19 26  1  0
 21 25  1  0
 22 29  1  0
  1 30  1  0
  2 31  1  0
  3 32  1  0
  4 33  1  0
  5 34  1  0
  6 35  1  0
  7 36  1  0
  8 37  1  0
  9 38  1  0
 10 39  1  0
 20 40  1  0
 20 41  1  0
 20 42  1  0
 21 43  1  0
 21 44  1  0
 21 45  1  0
 22 46  1  0
 22 47  1  0
 22 48  1  0
 26 49  1  0
 27 50  1  0
 27 51  1  0
M  CHG  1  26   1
M  END
>  <OMEGA_C>  (5) 
iCXoQAWeOb6JbrLBfT3QQIP0mr/Toq3BzRrfQEwBlT8tCrDBIC+eQNfNhEB/QrfBMTenQLY+oECm
4r/B/F2mQDhl5z5/76PB94jmQNKoj0D1cLDBrJ+nQB6CT8AsM5/BL7FVQDZ54L8RD57B3DROQIkt
fMCtkpfBbhqvQCsjZr+5WKbBkbqVQERa/L+EMaHBYn29QG+hvz9e4qjBpma9QLdMekBbQ6/BFw3w
QDQ5qkCINLnBytvPQHB4s0Bz0MDB9EnKQJe6VkDvkJvBqdmBQGI0ZECxIJnB+4CzQGBSPUBt66XB
5SkOQeUEvkDmF7rBu9CxQPHrhUArfYnB+8jNQACg+kCsOcfB8CGQQIqJhsBwaZrBv3UoQAZRL8Ag
U5nBUHGqQM4bdECyvZTBiNaFQNA+R0DT86LBRpw1QB9JcUAsDZTByYLwQA+hUEBXdpnBwyLYQKpZ
zkCuSsnBksIAQVsj2b6G97fB5jPXQDl5D8A5hq/Bq9/xQCh4+T9+rLPBfZB+QCH0akAVurbBfeyO
QMGdpkAs0sXBu52NQA7wMD+dN57BWuj+QK5GiUD0hqrBgkXIQF6WXMDRg6HBeCw4QAIAS7+5dZ/B
K2ApQN0Hl8BlwZPBJqEYQeu4qECxwL7B/vsMQTY23UDaIL7BRecUQfd2wkBdCrLB8ISTQJN6kEBO
3oXBESa+QKoZVEAjFoXBMkzJQHEZoEAZG4nBvkLVQI/5BkHSVs7B0X6rQOp2/UA0XsXBtbXgQDIY
A0FFZMDBs41aQLyuOUDHyqfBS/n9P8d4ZEB65pfB5hE0QPrAg0A5jYzB3hPWQN2jXL55grXBQYzO
QMoLm78vzK3Bst7NQNIrkT8iG7PBAT+dQJv5hUDN6bbBhQCmQBzXoECAob/BP6e2QCgE/T68MaHB
RG3mQG4Cj0AelrDBL9erQCoCTsDsSJ7BEum5QM1Wzb9KVJDBKOCnQPLxc8AZO4zBcdu+QDSYXL/j
jqPBv+G2QOBL87+xWpvBjwG+QNlYwD/g3qjBTgC9QO1Le0BhIq/BPU3vQMFuqkCfPLnBMwrPQJa2
s0Cf2sDBumvKQNb/V0Acl5vBxO2BQBfsY0A7IpnBgZqzQNxNPUDd5qXBs/sNQf0uvUC9ZrrBG9Wx
QGyPhkDniInBu4e3QClp2EA17NDBLnSkQC7ZhMAKs5bBcXGyQLb3I8D19IjB1XqqQFP4dEAnxpTB
p/+FQPmVQ0CZzKLB4rs1QFSEckDjIJTBLqnwQL1AUkAMfZnBoSjZQAXczkBOTsnBGDPiQIW1+b5X
Tb3BvcPUQI/LD8CIsq/BkqfTQOh48j8OErnBnP97QLYTb0BeI7bBGlGNQNU5p0CUdsXB6pCqQPGM
Qz+OZJnBGIn/QIIdh0C1/KrBUEmpQAjpXsBgo6bBkT/CQCX9Gr+iyY3BUe6hQAMxksDGP4bBkvEX
QRlzp0CHNb/BfvgMQaF53EBLZr7B4jAVQY4zwUCrb7LB03iTQKjlkECA6IXBdXG+QG+1VUC6HYXB
LxbJQKryoEABL4nBgvTDQOwS7kDVH9fBSHOsQHKMukAyq9TBHKWcQNza50CvwczBLAlbQFugMUC5
b6fBzUf+P8Q2ZEC25pfB4yQ0QG2ohUCSwYzB9DakQGh8L78E9q/BovzMQFp7nr/zJ67BJOabQKMH
KD9KRK3BXeqoQNLpbEDSKLnBCJmxQC3vkUB70sHBBOvlQI/Raj+Kj6fBiyLdQFz+nEBvVK7B670U
QZ2DBMChya3BqE4ZQVP1Ab9iNp/BifczQepqA8D6faPBYRLuQAre4L6516nBPnsMQfITgb/In6fB
you8QD3puz+yy6jBn5q+QFJJd0D9Sa/B44DmQDj+t0D8BLfBMRbQQEDzskALxMDBAGLKQA6oVUAO
TpvBjfuBQO4cY0DeEpnB0dOzQL0iPECtzqXBsIYDQSKr20Dbj7XBGn2xQGVHhUBFTonBgzu9QNAr
80Dvo8nBvFUoQcixJMDHp6vB68gsQVTUhL8ZRZ3B1liqQHtGckAYjZTBTj+GQCYuSEAB/aLBhLw1
QLw2cEBlCpTBOsTwQJ96VkC2NpnBtTHYQNWlzUBCTcnB5zeLQCZ5pb+4bLPBRgPTQBOPEcC5EbDB
VeJ4QLcOiT8Ana7BqYyRQER7OkDQC7rB3NegQKi1jUAHTsnBzr//QBkWxj9z0aTBjnPtQJi7oUBb
zqbBuVoLQRz3HsB9PrTBEnwTQRmdmz6+T5rByJtDQa/RHcCy4aHBzYQTQXP1z0A4yLfBsWj+QOTn
9kBNs7rBY6EDQWb45UC8Ja3BBgiTQDl9j0AotYXBYim+QMtIU0AF34TBeJ7IQJPFn0BY8IjB+K3F
QA5aA0FqptDB7oSbQDtQ6UAQN8rBDfXBQGMJA0G3T8LBb6hbQG5CPUCw+afBum3+P2AJZUCF/ZfB
a/kzQIxogkA9eIzBdzjBQBXqpb73A7bBmXPNQNB0nL92663BDTa5QNk+gz8hibPByG/nQMQgjUDw
17DB/1LwQNy0qECebrnB9a7IQPy7Ej/3x6DB0VidQC48h0BC07bBJ3PUQLoQRcB/IZvBidD0QDXe
nr8AhZHBENH1QGA4WsCYm4rBi13RQB2XRr9+O6PBDEzeQDMw2r+amJrBR8a9QNqivz9M4qjB/He9
QGBWekA3Oq/B/Y6mQByeoUB3q7/BrO7PQBt4s0AsycDBc3HKQDQ8WkC/pZvBGOeBQO8tY0AQGpnB
0YuzQI8qPUBT5aXB62uDQF3tq0AvqcfBib6xQFBKhkA7fYnBoaDTQLdB+0Cpr8bBCkDgQOcmesAo
I5PBwx8AQatRBsAcsYnBYV6qQAgQdUBCwJTBGgaGQNHTQkDUxKLBdKg1QAJ0cUB6FpTBbsbwQMc8
VkDMkJnBckXZQM95zkA6K8nBQfe9QPW2K79aKL7BK97TQENVEMBV3q/B84SvQK+K2j8SyLnBA2MA
QQIChECMbavBYA4IQS20tUBSZrrBWGbKQGHkZz+GkpjBDOh6QO4UdUDu0rXBK2XDQFcTXsDi9qHB
p+r8QC5RR75L2JDBGxL/QAS8gsAQR4TBbVdkQMXKyEBAD8XBFa2RQL2QsUAllc/BWPBZQO7hkEBj
IcjBtD+TQJy/j0DMyIXBCyC/QE5mVUAEK4XBH2HIQBA0oUCKGonBEq3bQJZUB0FLv83BaCKyQJGP
AEEXacTB08ToQOcMAkGyAcDBaSJbQLV8MEAFZKfBBDL+P7LkYkBN2pfBmgQ0QJcjhUCNt4zBSw2k
QDxILL/dJrDBhoTMQJRVnr/xJ67B2hKcQFnMLD9pma3Bc8PnQNNUjEBM2rDBlH/wQGw3qEBZZ7nB
5bjlQPxEaj9giKfBzCmeQB/vhEDrErfBEsgOQfevGMA5KaXBUfQeQSrvXr4j7KfBAK0zQUDeBMCW
Y6PB+sjtQIcq4r6X36nB1VMMQaB0gr97sqfBgIy8QLqrvD+g6qjBBgm+QHgnd0DmWa/BEAinQFk9
oECMx7/BiSDQQMPUskCAyMDBo2LKQNXtV0DNcpvBk++BQK6tYkBM+pjBWaCzQGUWPEDd16XBVb6D
QDbnqkDetMfB+LWxQP9xhUA1U4nB4prTQNnv+kAGhcbBV1siQcAUOcCqCqPBp0cyQU/BQb9EyKXB
N1mqQB3ickBekpTBCwSGQMPARUB7yqLB47g1QHA7cEA58pPBPb3wQKQTWkAuXZnBlUDZQM4/zkAk
HMnBigmLQMpYo78gp7PB/i/SQOHoEcAi5q/BnAl6QBxCjT+nN6/BZ4YAQduZg0DvYavBehUIQTuP
tUCrUbrBDHf/QOfXxD/VoaTBV2h9QPT2bUAXSLbB5uwAQafwQcD06aTB0LUdQfVCVT/g0anBCTxD
QeauH8Dvr6HBAkZkQFZIx0Ax7cTBKuqRQCaBsUBLl8/B9UJbQHSij0DxV8jBODOTQGzrjkB0oYXB
KCa/QGzwU0At+ITBMkvIQPJooECh+YjBR33bQDlNB0H+i83BqyayQOxWAEFqMMTBkt7oQJDIAUHT
2L/BE9VaQJH0N0Cmm6fBRk/+P8TLY0Cj05fByQ40QOA1g0D8cYzBHBSuQPBf8L4jTLTBcZ3LQGVA
nr+0Z67BNKmmQHTWYD8zlbHBzP/nQFFvi0Cn+bDBV+TwQF10p0CjernBnNfZQFOTLz9h/aLBT8Sd
QKZthkBp2rbBGu38QPmsNMDJAp7Bu1ASQV3wS7+6c5rBiVsdQc47NsB/dpPB8OzhQOCvJ7+qvKXB
e7EAQdI5t7/2aJ/B1Km8QIG5vD+546jBqeq9QP2rd0COTa/BSfCmQLBUoUDRnL/BZWXQQL37skBv
usDBJ3LKQC/nWUBRiZvBheqBQEvdYUCS/JjBRaWzQP8SPEC90KXBu6WDQFqErEBcfcfBwrixQB0r
hUBAUYnBbZ7UQEgW+0DWZ8bB4cUMQR2HYMAMDpjB21cgQRaQwb9rlJTBBlCqQPLickCylJTBuRGG
QAA+Q0D0u6LBqq41QIr8b0CN+ZPBFPHwQL/2XEDum5nBh7/ZQDJgzkD6CcnBeQ+dQLNjar+f6rrB
2DnRQBc4EcBUgrDBYQyQQFYKuz+qKLbBqbkAQZevgUCeqavBaGMIQbwytEB5dbrBzkXqQEKIjz/w
O5zB67Z7QCt4c0Ar4rXBeYTiQIj6VcBqt6HBRo4UQcg7iT6kX5vB0qgoQY8tWsBmt47Bj3NlQMhV
yUDVucTBPLaRQOmaskBuac/BpeVZQPOzkUCwCcjBFR2TQBzTjUB0jIXBVuG/QHanU0BxDYXBcbfH
QNmboEBa8IjB6abcQPxhB0GRa83BtUCzQAaVAEGzDMTBkArqQIaxAUEGvb/BjiFbQO3mMkDkdKfB
bjn+P9+rYkATz5fBAgg0QAK7g0AFiYzBBxitQCYOC7/TvbPBwInMQLSuor/NOK7Bdl2kQNASSj+D
4rDBmLelQLC2c0Dw3rjBjQqvQG5IlEAhn8HBE5bbQBChLz9pQ6PBZVTeQBPOm0BXoa7BuBMNQcBg
H8Cc5qPBOBkFQRNPj7/ieZTBcnkeQfHnNMD9kJPBNj/jQJcyKr85wKXB1VgBQY3/tr//Wp/BynC8
QNn5uD+8y6jBfOy9QM87eEDhUK/BAtnmQAWJt0B1PLfBVsHPQOiFs0AZ6sDBjJLKQOt5V0C0cJvB
5COCQGAaYkAnD5nBuM2zQF+EO0DK16XBL2kEQagA2kCw97XBrOSxQDIyhUBNWInB7ErCQLLAyUA9
NNPBQXUbQRjiSsD+9J3B0pATQQEL6b9JxI7BpoeqQLlEckAgl5TBwEWGQOT9REAs5aLBvkA2QHwK
cEDiApTBTxbxQHA5WkCQfZnBOqDZQPYqz0AzR8nBe5KbQMX9gL/0MbrB8lXTQMC3EsAGdLDBVveK
QERHqT/25rTBRZWLQDm0RkAjbbnBTCWdQJvNkEAy9sjB+u3tQKPfkz/g+ZzB5s3wQGCwnkAxXafB
f40KQWCpMMCrK6zBXKX4QNcKor7/t5DBQBAqQYI5WMCz647BRgUUQflQzUCegrjBxzMAQf/J9UBv
8brB2UsFQRLZ40DGh63BzF6TQNCdjkD0pYXB1ma/QMeHU0A5/ITB9GrIQB42oEARAYnBg03NQOCW
4UCrENnB8fnHQNBjqUA4XNbBROCfQIQozkDsuNHBmIhbQJAbN0D9vKfB/ib/P2jPY0C/4JfB/8o0
QFAmg0BNg4zB

>  <OMEGA_E>  (5) 
4MQyP0zOLz/68Dg/3HQ3P9D2Nj+46zU/8nM1Pw==

>  <OMEGA_NBR>  (5) 
     47199

$$$$
50157489
     RDKit          3D

 55 58  0  0  1  0  0  0  0  0999 V2000
    6.5187   -2.7085  -17.1659 C   0  0  0  0  0  0  0  0  0  0  0  0
    6.1005   -1.8485  -18.1938 C   0  0  0  0  0  0  0  0  0  0  0  0
    5.8087    1.0342  -22.4422 C   0  0  0  0  0  0  0  0  0  0  0  0
    7.2318    4.4156  -22.1041 C   0  0  0  0  0  0  0  0  0  0  0  0
    6.0675   -0.3112  -22.7579 C   0  0  0  0  0  0  0  0  0  0  0  0
    7.5094    5.2771  -23.1784 C   0  0  0  0  0  0  0  0  0  0  0  0
    6.2515    0.5677  -20.0940 C   0  0  0  0  0  0  0  0  0  0  0  0
    4.9177    4.2278  -22.8541 C   0  0  0  0  0  0  0  0  0  0  0  0
    7.7673   -3.3570  -17.2752 C   0  0  0  0  0  0  0  0  0  0  0  0
    8.1831   -2.3451  -19.3497 C   0  0  0  0  0  0  0  0  0  0  0  0
    6.9387   -1.6755  -19.3123 C   0  0  0  0  0  0  0  0  0  0  0  0
    6.5393   -0.7741  -20.4072 C   0  0  0  0  0  0  0  0  0  0  0  0
    5.9275    1.4982  -21.1069 C   0  0  0  0  0  0  0  0  0  0  0  0
    5.9209    3.9147  -21.9028 C   0  0  0  0  0  0  0  0  0  0  0  0
    6.4324   -1.2256  -21.7492 C   0  0  0  0  0  0  0  0  0  0  0  0
    5.2055    5.0518  -23.9602 C   0  0  0  0  0  0  0  0  0  0  0  0
    6.4977    5.6115  -24.0990 C   0  0  0  0  0  0  0  0  0  0  0  0
    6.3258    3.4095  -19.4549 C   0  0  0  0  0  0  0  0  0  0  0  0
    4.0590    3.5531  -19.1383 C   0  0  0  0  0  0  0  0  0  0  0  0
    5.6105    2.9576  -20.7357 C   0  0  2  0  0  0  0  0  0  0  0  0
    6.6981   -2.6753  -22.1296 C   0  0  0  0  0  0  0  0  0  0  0  0
    4.1075    5.3723  -24.9598 C   0  0  0  0  0  0  0  0  0  0  0  0
    5.5539    4.2018  -17.1872 C   0  0  0  0  0  0  0  0  0  0  0  0
    6.6096    7.8542  -24.8407 C   0  0  0  0  0  0  0  0  0  0  0  0
    8.5748   -3.1666  -18.3474 N   0  0  0  0  0  0  0  0  0  0  0  0
    5.3237    3.8321  -18.5943 N   0  0  0  0  0  0  0  0  0  0  0  0
    4.1881    3.0474  -20.3464 N   0  0  0  0  0  0  0  0  0  0  0  0
    2.8376    3.7764  -18.5125 N   0  0  0  0  0  0  0  0  0  0  0  0
    7.5238    3.3476  -19.1955 O   0  0  0  0  0  0  0  0  0  0  0  0
    6.7898    6.4545  -25.1478 O   0  0  0  0  0  0  0  0  0  0  0  0
    5.8921   -2.8718  -16.3015 H   0  0  0  0  0  0  0  0  0  0  0  0
    5.1553   -1.3302  -18.1282 H   0  0  0  0  0  0  0  0  0  0  0  0
    5.5167    1.7206  -23.2232 H   0  0  0  0  0  0  0  0  0  0  0  0
    8.0234    4.1326  -21.4261 H   0  0  0  0  0  0  0  0  0  0  0  0
    5.9862   -0.6467  -23.7813 H   0  0  0  0  0  0  0  0  0  0  0  0
    8.5024    5.6845  -23.2986 H   0  0  0  0  0  0  0  0  0  0  0  0
    6.2786    0.8909  -19.0638 H   0  0  0  0  0  0  0  0  0  0  0  0
    3.9213    3.8301  -22.7296 H   0  0  0  0  0  0  0  0  0  0  0  0
    8.0872   -4.0210  -16.4857 H   0  0  0  0  0  0  0  0  0  0  0  0
    8.8363   -2.1979  -20.1971 H   0  0  0  0  0  0  0  0  0  0  0  0
    7.7624   -2.8005  -22.3780 H   0  0  0  0  0  0  0  0  0  0  0  0
    6.4397   -3.3294  -21.2839 H   0  0  0  0  0  0  0  0  0  0  0  0
    6.0841   -2.9438  -23.0019 H   0  0  0  0  0  0  0  0  0  0  0  0
    3.5672    6.2739  -24.6353 H   0  0  0  0  0  0  0  0  0  0  0  0
    4.5532    5.5486  -25.9499 H   0  0  0  0  0  0  0  0  0  0  0  0
    3.4069    4.5263  -25.0185 H   0  0  0  0  0  0  0  0  0  0  0  0
    4.6012    4.5000  -16.7253 H   0  0  0  0  0  0  0  0  0  0  0  0
    5.9701    3.3398  -16.6452 H   0  0  0  0  0  0  0  0  0  0  0  0
    6.2628    5.0415  -17.1402 H   0  0  0  0  0  0  0  0  0  0  0  0
    6.8616    8.4594  -25.7240 H   0  0  0  0  0  0  0  0  0  0  0  0
    5.5619    8.0356  -24.5588 H   0  0  0  0  0  0  0  0  0  0  0  0
    7.2678    8.1338  -24.0049 H   0  0  0  0  0  0  0  0  0  0  0  0
    3.4240    2.7615  -20.9247 H   0  0  0  0  0  0  0  0  0  0  0  0
    1.9854    3.5490  -18.9837 H   0  0  0  0  0  0  0  0  0  0  0  0
    2.8114    4.1645  -17.5913 H   0  0  0  0  0  0  0  0  0  0  0  0
  1  2  2  0
  1  9  1  0
  2 11  1  0
  3  5  2  0
  3 13  1  0
  4  6  2  0
  4 14  1  0
  5 15  1  0
  6 17  1  0
  7 12  1  0
  7 13  2  0
  8 14  2  0
  8 16  1  0
  9 25  2  0
 10 11  2  0
 10 25  1  0
 11 12  1  0
 12 15  2  0
 20 13  1  6
 14 20  1  0
 15 21  1  0
 16 17  2  0
 16 22  1  0
 17 30  1  0
 18 20  1  0
 18 26  1  0
 18 29  2  0
 19 26  1  0
 19 27  2  0
 19 28  1  0
 20 27  1  0
 23 26  1  0
 24 30  1  0
  1 31  1  0
  2 32  1  0
  3 33  1  0
  4 34  1  0
  5 35  1  0
  6 36  1  0
  7 37  1  0
  8 38  1  0
  9 39  1  0
 10 40  1  0
 21 41  1  0
 21 42  1  0
 21 43  1  0
 22 44  1  0
 22 45  1  0
 22 46  1  0
 23 47  1  0
 23 48  1  0
 23 49  1  0
 24 50  1  0
 24 51  1  0
 24 52  1  0
 27 53  1  0
 28 54  1  0
 28 55  1  0
M  CHG  1  27   1
M  END
>  <OMEGA_C>  (6) 
75jQQBJYLcCyU4nBVzfDQNec7L/4jJHBkuC5QMtghD+NibPBE2vnQO9MjUA31bDBLynCQIZXn74u
ELbBBk3wQEjeqEBDbbnB9gvIQIlTET9qwKDBrl2dQMlJh0Aw1bbBfI34QLDZVsCRM4rBIu4CQTUW
FsAezJrBfAneQFV31r+Xf5rBKkLRQNYpRr8JQqPBda69QGTEvz/j2qjB+Xe9QK2KekDnOK/BLNbN
QOfenL9K/q3BM5OmQKiooUCHrr/BRu3PQLGRs0CwysDBlGzKQKY0WkCjo5vBX+OBQL9lY0BTG5nB
KImzQLhIPUDM4qXBD1fWQHE3K8B8CbHBdHCDQB/qq0C2rcfB07mxQMB0hkB3f4nBiIHTQJBV+0Cz
ucbBkTIJQfSpSsBvx5LBeFuqQKlBdUAlwZTBmwSGQF4IQ0BxxaLBeps1QO+wcUCvGZTBx8LwQIE+
VkBtkJnBKEbZQJeLzkDILsnB9ou8QLfLN8B7aYLBGPikQKBEqr+XBpHByIiwQAU83D8lybnB2V8A
QVY+hECoaKvBtI6/QF+MJb8BQL7BtwkIQWbntUCXY7rBA+rIQO4QZD+sgpjB7vZ6QJEfdUBO1rXB
GmUBQQCsgMDM4oPBe2ENQSmrDMCkk6HBUGX4QPo7M8AyBrPBqRHOQK0VVcB3RarBy7DCQGtmPMDm
A7jBkkxkQGzDyEAQFcXBz7ORQHWOsUBimc/BKgpaQLzXkEDlJcjBLj2TQOH/j0BpzYXBIQu/QLy+
VUBrKYXBM2nIQD5UoUANH4nBC5LbQKhZB0G1ys3B6vqxQPKRAEF3eMTB2pHoQN4jAkH7CcDBmSJb
QAm9MEDjZafBzCH+P64iY0Cs3pfB8e0zQHBDhUDwuozBGEsIQa57S8DoJZLBv9UCQYP5FcBcvprB
Rua5QJp4hD8WirPBl2znQOlNjUAU1LDB8SjCQCL5nr6iEbbBRk3wQFHgqED2a7nBJA7IQPk6ET9W
waDBiF2dQEhOh0AA07bBYbnzQDCVVMCaionBb+zCQHlP7L9Xi5HBmADeQDF11r8JgJrBK0nRQPcv
Rr82RKPBRbC9QALIvz/t2qjBIXm9QG6QekBCN6/BYc7NQAjdnL9mAK7Bi5GmQNauoUAOrL/Bv+vP
QHSWs0C2yMDBjXDKQOArWkBcopvBDuiBQA9pY0AxGZnBfoqzQPBJPUCu4aXBBznWQIU6K8BPDbHB
L26DQMnwq0AHq8fB+MKxQJdvhkCcfYnBwobTQF1e+0DQs8bBxNbNQDRQKsAHVYnBtGGqQIY5dUBE
v5TB4QWGQNgNQ0CAw6LBtKk1QES4cUB5FpTBd8fwQGEwVkD5j5nBoUDZQMiVzkD0K8nBIl0XQfpM
bcASH5LB7KANQeC9DcBqaaHB8JWwQAll3D9uybnBJGEAQRI9hEARaKvBoY+/QAY9Jb/PQb7B/AkI
QTjotUC3YrrBr+jIQK7TYz82g5jB6PZ6QGModUDq07XBHgL8QBU3fsB59oLBAdykQIlMqL+EPpHB
+UP4QEVaM8DVC7PBHvDNQM0XVcB3SarBiYnCQHNSPMD7BrjBmEhkQADKyEA0EsXB6rCRQHuVsUDB
ls/BagVaQHvekEAuI8jBbUeTQDr7j0ARy4XBiRS/QACzVUDlJ4XBJXPIQHJOoUBiHYnBHZPbQLVg
B0E2xM3BowOyQEqYAEH2b8TB7Z/oQC0jAkH9BMDBwCFbQGzGMECgY6fBFTb+P6MuY0DR2pfB6QM0
QDlGhUCct4zBjxQtQXYUgr8Zi5zBHJcYQXU8AL9+lp7BWCGcQKfOKT8RUK3BWhipQFvYbEDuJLnB
lxWkQOw3Lr/Q3q/Boq2xQLD3kUDby8HBMCrmQHVdaj8Ht6fB/t3cQJdUnUApRK7BfIg1QeU5AMDL
YqPBZAEXQW5v97+gPq7BrggNQbi2eb+Xi6fBzGbuQDkM5b5L5KnB6cy8QGf4uz+O3ajBlae+QGVz
d0AzQq/Bcm7MQB6Iob+x5K3BNjbmQA1YuECE87bByvTPQOYns0Ant8DBXYfKQH6XVEArR5vBfQCC
QPeCYUAjCJnBOAG0QJ74O0A6z6XBvk7RQCQTMMA1KrDB9UQDQfMx3EDKd7XB/4mxQGd0hkCQb4nB
RNC8QK9M80BMlMnBGY0qQd1WHMBHB6zB4iqqQNsQZ0BqEpTBo2WGQHO3R0Db/KLBbsA1QLQbc0CA
OJTBdPzwQMIfWEC8UZnBr/nXQMDrzUC3PcnB5EI2Qd3yKL8vzZXB0L0RQYz3fT6pY5nBda95QCHs
ij9OwK7B7+aRQGUdOkBwDLrBT/mKQCJ9o78xZrPBcgOhQESqjUDmScnBJQ8AQQ9ixj+7G6XBbPXs
QPtBokBGuKbBMB9FQcnOGsAMsqHBq7wOQRkREcCyWLXBDMvbQKtHOcB3fLjBdkLpQEGBS8AUtKrB
SGOyQKNEUMBL8a7BcE8TQf6n0EAYqLfB5NL9QO9f90AwnrrBSUgDQauD5kD4Da3BvbuSQDuTikD4
TYXBfDnGQHVIYkB+toTBIC3BQIbHpUDNWIrB0THFQBl0A0GxlNDBRSibQDRD6UAkK8rBGWXBQA8Z
A0FgPsLBPA5cQIhdPUA2AqjBRvz+P1dabEDfYJjBTrczQORCg0AXmozBIviHQHlCXMB/iJLBAXiO
QKMAH8DAl5rBxRvOQP+0kT8rDbPBtUWdQP0DhkCg7LbB3ZnWQPvFVr6RdbXBOwOmQB3noEDBo7/B
WG62QOYT/T4GMaHB62PmQHY5j0CKkrDBGNKpQArPb8BfdovBWjbXQBR8DcAZ+5PBgsW2QPPC7r/c
VpvBtOq+QHCOWr+plqPBFvK9QAqwwD+f16jBw/68QD+Ee0DMIa/B2x/PQJpom78Pxa3BQUHvQBGp
qkBGObnBqALPQP/fs0Ct2cDBr17KQOs6WEDYlJvBDN+BQD0NZEAcI5nBvpSzQASBPUBO5KXBtZPY
QKqbKsC/grDBi/ANQRCHvUDgX7rBQrixQJe9hkC3iYnBZ3u3QMST2EAk69DBmHPQQLW2SMD4P4zB
lGeqQHIzdUAdxpTBIvqFQAfCQ0BazaLBiZE1QF+FckDQI5TB9Z3wQPGkUkADe5nBbxvZQB4Pz0Av
TMnBLeBSQA0KfMDDwJHBfDBqQFGwDsDGF6DBIerTQL8p8z86AbnB+xt8QO4Cb0BHKbbBnOviQE0s
9L5dPr3BrleNQII6p0DlesXBsgaqQMJGQj/4aJnBZ3z/QNRmh0CX9qrBctakQNmDj8D4RoXBZgr2
QEsZ3b+9hpTBG9f5QIjGOcAwWK7B07bCQGaKVMBAB6zBcwHUQAq9NMDSJLnBwPAXQfHXp0DnLL/B
k+UMQfPP3EDKX77BLx8VQfOVwUCnZ7LBKVeTQE8QkUA264XBslm+QD0kVkDVG4XB9fHIQJ0noUAt
MYnBp+PDQCxG7kByHdfBF3WsQP20ukC1q9TBDZCcQF/450AdwczBIQhbQI/PMUBQcqfBtAr+Pwkn
ZEBO65fBp+QzQN2lhUA/xIzBun/NQPiNS8AyJYzBCMjWQPfCDcAv95PBpgfOQLE+kT8dCrPBd0Kd
QGLxhUAF67bB+HrWQHTdWr5rcbXBuAKmQM3OoEARo7/Bd2C2QGIe/D54LKHBfWbmQB4Vj0CVk7DB
oF+kQGvpcMCC44vBmAqOQGfsHsAVmJrBX5a2QEP37r9CUZvBGNW+QLUeW7+wkKPBQOW9QJdbwD92
1KjBUf28QHdTe0AOIa/By/vOQOnWm7/av63BYUbvQCyAqkAVO7nBgAbPQEm8s0DI2sDB+F7KQGwZ
WEDLk5vB+eCBQLQMZEBmIZnBBpCzQPZcPUB14qXBXGLYQHrZKsCifLDBW/UNQbdRvUCGY7rBIcGx
QGq7hkAtiYnBe4K3QAZq2EBr7dDB05KFQKNvWsB7AJPBG2yqQG8ldUAWxZTBzfaFQKSwQ0DoyqLB
Vpo1QEuhckA/IpTBDJ7wQOV2UkBvepnBTiLZQKLkzkBnTsnBs4jlQA5IXsAlZYbBjPH1QBYH4L+C
U5TBwNjTQKei8j8U/7jBWQ58QHLvbkBMJrbBZsjiQPae9r4zOr3B2FWNQIYmp0CQecXB5P2pQJkA
Qj9bZJnBF4D/QNc8h0Bw+KrBckOdQFZEkMBY4oXByJBqQGNMDcCENKDBqaX5QC0SOsCAU67BCYTC
QJW5VMBx/6vBDsjTQMIANcBVHrnBZvEXQYubp0C6ML/Ble0MQcmZ3EALZL7BlyYVQXZfwUDaa7LB
n2KTQMIVkUCt6oXBQF6+QBIgVkB9GoXBy//IQFAhoUDQMYnBNe3DQLEW7kCrINfB1nasQLiKukC/
rNTBOpqcQG/V50C3w8zBKvxaQBq+MUD+bqfBTxP+P9lLZEBB6ZfBX/UzQKC5hUBDw4zBWGclQWMw
BsAUk5vBne8WQWhes7+tH6LBb4CkQKn5Sj9R17DBEDmmQJgpdEA7ArnBE+OsQKVBC7+OorPBiN2v
QBrplECJs8HBpZ7bQKsDMD+WLqPB6ZreQFXhm0Bal67BaLkdQd9vMMBIW5LBxRz1QIw7BMDF45XB
FC8BQVaysr/bQ5/BrCfjQKZXKL8cuaXBkZi8QLV+uT+vw6jBRiC+QDZ7eEBqXa/BWGzMQB6Eo7+u
I67BP93nQJBVt0DjMbfBOm/QQC/Ks0B9z8DBAIPKQK+UV0CTdZvBvRGCQMFoYkCJHJnBwNOzQFnF
O0Ba36XBphzUQB0ML8A5+bDBWK4EQdEe2kDZxLXBqbqxQK9uhUDcYonB5na9QKur80AhxcnB6rUI
Qb/YLsBSpo/BAnCqQECfckCQoZTBAUSGQP1TRUD58qLBbQ82QLFGcEACEpTB0gPxQMzAWUBAfJnB
HvHYQI6UzkAYSsnBYzY2QQ8WCMB/kJ3BkmQcQRTtYb+BManBa06LQGQxqj9M6LTBpTmMQMLuRkB+
rLnBvwubQClGgb/sBrrBNjieQIDRkUADF8nBftHtQO12kz+m2JzBu4zwQOPonkACP6fBUNooQVTb
UsDBVo3BEL3TQOwGA8CQppPB9RbtQCRLM8C9JrfB6YLeQHoHUsACy6nBfku2QKhjS8DjBrTBy2oU
QYrdzUCOP7jBn2wAQZ/19UBAt7rB/VIFQda640AvT63BDjKTQCDzjkDptYXBQCK/QKj/U0DiAYXB
dVDIQJRloEBSC4nBRT3GQLOuA0HeudDBF/ebQPRN6UAxicrBLD7BQHFNA0F5acLBhJZbQLOEN0Bj
zqfB5tX+P9YDZEBs8ZfB+og0QKVBg0A4kozBvBMNQTU5DsCQGI7BkFz7QA2kwr+RCpTBci2nQKD6
Yj89oLHBngXoQHuQi0Am9rDBsKSuQEmb6r5HZbTBa+TwQDWUp0A1eLnB3mzZQKyxLT+z2qLB982d
QMB6hkAw2LbBzuMeQVHEMcDga5PByMMSQcUd/b91/aPBQWoAQVhitL/7MZ/BrZLhQJZVKL/lqqXB
ZrW8QD7MvD8O1qjBzfa9QCLNd0CiSq/BI57LQJQWn7/Qba7BxPSmQChfoUDdm7/B52XQQKYOs0Ch
ucDBoHvKQIXmWUBYhZvBhfGBQB8gYkBd/ZjBf7azQNgoPECby6XBmI3SQOSoLMBRjLHB06iDQE6C
rECPfcfBlLaxQORdhUCUUonBWonUQNEl+0BwbMbBKoYhQWZeKcAqI57Ba1aqQLomc0DXlJTBNCCG
QNFXQ0AyuqLB+LQ1QGNWcEAr/ZPBWPrwQNCxXEBWl5nBeb3ZQBRuzkC/CsnBXE8LQUd6FcCZjIXB
6wPgQJGXib+RJJDBdtaQQB3AvD+ePrbBIr0AQeregUDVpKvBEBOeQKN0ZL+yIrvBu2EIQcBbtECP
crrBPWXpQL10jT+H/pvBOsx7QAyPc0BA37XBu7UqQf1+VMA22o7BRBEVQSQd8L+tg6zBXNjsQBjq
MMAAYLfBTL3aQNMdUsA3YqrBjhS1QDRHRsCZI7XBi2tlQKtRyUBpu8TB5rmRQBSXskCmac/BEvhZ
QICskUAwCcjBIxuTQH8gjkCEkYXB+Me/QOcLVEA0CoXBAcbHQHzBoEAZ84jBFJHcQMlmB0FDcc3B
NSezQBqYAEG4E8TBNezpQHvBAUELwb/BzEdbQADoMkBMc6fBY1H+P1P2YkAe05fBQwM0QOX3g0BB
jozB5VYhQbwRKsCoXZ3BAbISQUw6/b897KPB7hinQHa6Yj9xnLHBUw7oQEl4i0AT/bDBm32uQJB4
674lX7TBJunwQBdzp0A8gbnBvm/ZQPJvLT8F3KLBXs2dQF9yhkCR2LbBnlodQYLAL8C1RpLBMyP7
QHBWwr9c/pPBq2IAQUKItL8NMJ/BlIrhQAawKL9oq6XBA7O8QEyzvD9L1ajBhP29QPa1d0A7Ta/B
nHfLQPpdn7/laK7B6u+mQPhLoUCQnr/BN2TQQKLvskCqwMDBo5nKQLbmWUBYiJvBDRSCQC5RYkDF
+pjBw8KzQAAlPEAEzKXB4kTSQCLeLMAbhLHBGZyDQH10rEBufcfB3PKxQJZ3hUAIVYnB55nUQOQB
+0DYdsbBaMwLQZWfC8BmyI3BAIGqQABIc0AKlpTBdDGGQLRwQ0DgtqLBlws2QAmscEDr95PBKxvx
QACfXEBunZnBXLfZQE5GzkDuE8nB8H8vQezVRsA7xaDBCWsVQYRX8r9+bazBiMKQQFurvD9HOrbB
ycMAQe/DgUB0ravButydQHnwZL8AGrvBBWUIQR8ytEC+frrBRHXpQKZYjT/qAZzB+MV7QMSTc0AZ
3LXBc44oQT2xUcClP43BUIDfQIjPh7+UUJDBFoDsQMZOMcCdW7fBf3vaQPVGUsCDWarBw7u0QIFl
RsCqFbXBL2xlQBBLyUD9usTBXaORQFB/skAVa8/BU8xZQF+lkUDKBcjBwl6TQAxHjkAckoXBfQHA
QHE/VEAQDIXB5grIQPjUoED9+IjBkpzcQPBQB0Fjfc3Bgj6zQJKNAEGKGsTBVwzqQGmtAUFAzr/B
NFlbQNEBM0BAbafBJuL+P19VY0A1y5fBxHQ0QC8rhEDBiYzB

>  <OMEGA_E>  (6) 
1GAtPzhkLT8glS8/fBMmP2YkJj9MhSs/rDcsP7o4LD8=

>  <OMEGA_NBR>  (6) 
     67845

$$$$
50157520
     RDKit          3D

 52 55  0  0  1  0  0  0  0  0999 V2000
    8.5579   -2.8099  -18.0226 C   0  0  0  0  0  0  0  0  0  0  0  0
    7.5979   -2.1126  -18.7728 C   0  0  0  0  0  0  0  0  0  0  0  0
    7.2493    4.3610  -22.1214 C   0  0  0  0  0  0  0  0  0  0  0  0
    5.2113    0.8790  -22.1951 C   0  0  0  0  0  0  0  0  0  0  0  0
    7.5260    5.2373  -23.1843 C   0  0  0  0  0  0  0  0  0  0  0  0
    5.4423   -0.4691  -22.5375 C   0  0  0  0  0  0  0  0  0  0  0  0
    6.8074    0.6833  -20.3651 C   0  0  0  0  0  0  0  0  0  0  0  0
    4.9298    4.2021  -22.8561 C   0  0  0  0  0  0  0  0  0  0  0  0
    9.9052   -2.7923  -18.4421 C   0  0  0  0  0  0  0  0  0  0  0  0
    8.0159   -1.4219  -19.9243 C   0  0  0  0  0  0  0  0  0  0  0  0
    7.0443   -0.6545  -20.7116 C   0  0  0  0  0  0  0  0  0  0  0  0
    5.8979    1.4747  -21.1058 C   0  0  0  0  0  0  0  0  0  0  0  0
    5.9352    3.8713  -21.9125 C   0  0  0  0  0  0  0  0  0  0  0  0
    5.2152    5.0436  -23.9510 C   0  0  0  0  0  0  0  0  0  0  0  0
    6.5102    5.5967  -24.0905 C   0  0  0  0  0  0  0  0  0  0  0  0
    6.3613   -1.2386  -21.7976 C   0  0  0  0  0  0  0  0  0  0  0  0
    9.3842   -1.4318  -20.2844 C   0  0  0  0  0  0  0  0  0  0  0  0
    6.3271    3.4034  -19.4410 C   0  0  0  0  0  0  0  0  0  0  0  0
    4.0602    3.5329  -19.1245 C   0  0  0  0  0  0  0  0  0  0  0  0
    5.6156    2.9394  -20.7256 C   0  0  2  0  0  0  0  0  0  0  0  0
    4.1114    5.3932  -24.9347 C   0  0  0  0  0  0  0  0  0  0  0  0
    5.5533    4.1686  -17.1666 C   0  0  0  0  0  0  0  0  0  0  0  0
    6.6395    7.8502  -24.8011 C   0  0  0  0  0  0  0  0  0  0  0  0
   10.2963   -2.1128  -19.5487 N   0  0  0  0  0  0  0  0  0  0  0  0
    5.3226    3.7985  -18.5735 N   0  0  0  0  0  0  0  0  0  0  0  0
    4.1908    3.0514  -20.3415 N   0  0  0  0  0  0  0  0  0  0  0  0
    2.8387    3.7558  -18.4995 N   0  0  0  0  0  0  0  0  0  0  0  0
    7.5300    3.4481  -19.1999 O   0  0  0  0  0  0  0  0  0  0  0  0
    6.8018    6.4530  -25.1295 O   0  0  0  0  0  0  0  0  0  0  0  0
    6.5795   -2.5336  -22.1280 F   0  0  0  0  0  0  0  0  0  0  0  0
    9.8012   -0.7446  -21.3754 F   0  0  0  0  0  0  0  0  0  0  0  0
    8.2688   -3.3532  -17.1352 H   0  0  0  0  0  0  0  0  0  0  0  0
    6.5607   -2.1067  -18.4721 H   0  0  0  0  0  0  0  0  0  0  0  0
    8.0451    4.0576  -21.4573 H   0  0  0  0  0  0  0  0  0  0  0  0
    4.5056    1.4633  -22.7670 H   0  0  0  0  0  0  0  0  0  0  0  0
    8.5219    5.6368  -23.3067 H   0  0  0  0  0  0  0  0  0  0  0  0
    4.9137   -0.9125  -23.3684 H   0  0  0  0  0  0  0  0  0  0  0  0
    7.3260    1.1153  -19.5220 H   0  0  0  0  0  0  0  0  0  0  0  0
    3.9330    3.8046  -22.7347 H   0  0  0  0  0  0  0  0  0  0  0  0
   10.6428   -3.3331  -17.8678 H   0  0  0  0  0  0  0  0  0  0  0  0
    3.5822    6.2931  -24.5881 H   0  0  0  0  0  0  0  0  0  0  0  0
    4.5501    5.5846  -25.9251 H   0  0  0  0  0  0  0  0  0  0  0  0
    3.4026    4.5548  -25.0034 H   0  0  0  0  0  0  0  0  0  0  0  0
    4.5969    4.4424  -16.6974 H   0  0  0  0  0  0  0  0  0  0  0  0
    5.9935    3.3149  -16.6305 H   0  0  0  0  0  0  0  0  0  0  0  0
    6.2423    5.0249  -17.1211 H   0  0  0  0  0  0  0  0  0  0  0  0
    6.8901    8.4650  -25.6780 H   0  0  0  0  0  0  0  0  0  0  0  0
    5.5964    8.0388  -24.5072 H   0  0  0  0  0  0  0  0  0  0  0  0
    7.3081    8.1108  -23.9674 H   0  0  0  0  0  0  0  0  0  0  0  0
    3.4256    2.7941  -20.9316 H   0  0  0  0  0  0  0  0  0  0  0  0
    1.9863    3.5471  -18.9789 H   0  0  0  0  0  0  0  0  0  0  0  0
    2.8124    4.1249  -17.5705 H   0  0  0  0  0  0  0  0  0  0  0  0
  1  2  2  0
  1  9  1  0
  2 10  1  0
  3  5  2  0
  3 13  1  0
  4  6  2  0
  4 12  1  0
  5 15  1  0
  6 16  1  0
  7 11  1  0
  7 12  2  0
  8 13  2  0
  8 14  1  0
  9 24  2  0
 10 11  1  0
 10 17  2  0
 11 16  2  0
 20 12  1  6
 13 20  1  0
 14 15  2  0
 14 21  1  0
 15 29  1  0
 16 30  1  0
 17 24  1  0
 17 31  1  0
 18 20  1  0
 18 25  1  0
 18 28  2  0
 19 25  1  0
 19 26  2  0
 19 27  1  0
 20 26  1  0
 22 25  1  0
 23 29  1  0
  1 32  1  0
  2 33  1  0
  3 34  1  0
  4 35  1  0
  5 36  1  0
  6 37  1  0
  7 38  1  0
  8 39  1  0
  9 40  1  0
 21 41  1  0
 21 42  1  0
 21 43  1  0
 22 44  1  0
 22 45  1  0
 22 46  1  0
 23 47  1  0
 23 48  1  0
 23 49  1  0
 26 50  1  0
 27 51  1  0
 27 52  1  0
M  CHG  1  26   1
M  END
>  <OMEGA_C>  (7) 
Fe0IQbzUM8BjLpDBUCLzQKk0B8C+LpbBofrnQGKNi0Cb+LDBBsOmQCgJYT+Ej7HBHNXwQEaYp0B1
ebnBTyeuQPwr8L63TLTBg9bZQELsLj/P66LB28CdQNd3hkBT2bbBjnseQc20MsBWiZPB+EAAQTAB
tr/xZJ/BvGrhQHWLJ79YsaXBWbu8QIjEvD+g2KjBzuy9QJfDd0DGTK/BTeOmQH9loUCim7/BdlPQ
QIUYs0BSucDBZ4/LQN6Inr+RYa7BsSUWQWJFt798RqLBZnfKQA/SWUAlh5vBK+2BQKwbYkD4/pjB
/rKzQLwePEAXzqXBipCDQDmVrEAzesfB67SxQBNlhUAwVYnBanbUQI40+0CZaMbBr70kQZc3B8DM
Y5zBDVOqQLYac0CIlpTBTBuGQN1KQ0B9u6LBSK01QH5fcED3/pPBp/XwQKqtXEBVmZnBZ6jZQPZ+
zkA4CcnBjYvSQOcmIsA2BrHBn9EcQaicPr/HAKvBFE0EQVObVsDdFInB7vDRQO3TBsDpxpPB4rgA
QaXXgUCDqKvBCC6QQCpMuz/RIrbBy1kIQetgtEAOdLrBKT2dQIOWab9w8rrBUm7qQOrCjj8SLZzB
y7V7QNB+c0DD4LXB5kgqQQBSVcA78Y7BGkJlQCNhyUBwtMTBYpqRQAq1skCPZs/Bq8RZQPrAkUDw
BsjBehmTQC8ojkAylIXBs8q/QPQmVEAwC4XBOcHHQKvLoED194jB9nvcQNJwB0GlbM3BUBWzQPae
AEHKDsTBA9zpQPbFAUFNvb/BbzxbQOnSMkDlc6fBDj/+P00DY0DM1JfBKP4zQFv/g0BVkIzByN3L
QFXsT8DCp4zBhoe+QBANGcDY5ZTB2mTnQH48jUAB3LDBaUO5QFpwgz+th7PB5kHwQG7YqEAicrnB
DmbBQLPtpL7GCLbBjG3IQJBGEj//v6DBAVCdQKxNh0Bm17bBwff3QF7qV8D/cIrB483dQI7n178c
sprBL/jQQD5gRb9fR6PByKm9QOW6vz+j3KjBRnG9QDF1ekA4Pq/BnH+mQKO5oUC9rr/BsNvPQNeb
s0BQzMDBnozNQG1xnL/I763B/sEEQXmg7L8+CpjBbmvKQGc7WkADqJvB2+KBQGJmY0AwHZnB0oSz
QI5GPUCp5qXB01eDQA8MrEA5q8fB28CxQERnhkCpgYnBK4LTQINo+0Cts8bB4OMKQaupK8B+D5DB
3FyqQHo4dUDFw5TBzP+FQH8NQ0C/x6LBL6E1QIm1cUDkGZTB8MLwQN9KVkDnlZnBWi7ZQLWgzkCW
LsnBho3VQNgPIcDwarDBKewTQZ1/lL96fZ3Bsae0QBmZc8AUEIjBRvmcQEyiEcABv5bB+14AQWch
hEAQcqvB8ZevQEjV2j/LxbnBuQQIQYLdtUCFabrBCk6+QMOdKr/OL77BShnKQBwwZj80h5jBK9t6
QE8qdUC+17XBXh0BQXQngcAoHoTBCSlkQIjkyEAoD8XBipWRQCu5sUAjl8/BTM9ZQP79kECdJMjB
rEWTQD/tj0AGzoXBdxa/QEWeVUCJLYXBpW7IQPVHoUCkIInB/ovbQNFnB0GOw83B2gKyQIygAEFW
bcTBfaToQMMiAkG/BcDBuRNbQPfIMEC+Z6fBiiH+P8ItY0Dz3ZfBw/4zQONDhUDpuozB/fLCQBU/
M8DYxInBDk7LQLhI5790apHBsT6dQFX4hUDt57bBM9HNQM2wkT/wFrPBmASmQHXQoEC4oL/BJTzW
QMmOVr4dhLXBsxK3QF7x/D5GJKHBXGDmQMscj0BsjrDBMO6lQL9rdcAMRYzBkrW2QH8w8b8Ca5vB
8Qa/QMlaW79pmqPB7yC+QNqbwD/106jB6Pa8QCBoe0DAHK/BB0bvQBaAqkDJNrnB7AnPQC68s0Bl
18DBQN7OQAbGmr/g0q3B6ouZQBlMPMDWXp3BVUTKQIk0WECGj5vBsr2BQELeY0BRJpnBYZKzQAJd
PUBX4KXBmfQNQQlVvUA9XbrB9nOxQF2yhkBch4nBVZC3QJxq2ECf6tDBYsmRQDHleMBA3ZXBFjyq
QA4bdUCbxJTBjfCFQAlXQ0D3zKLBLDk1QBJ1ckCYLZTBWX/wQC+gUkAbcZnBtSvZQD7jzkDISsnB
eOnXQP3sH8DaQLDBKdODQOL1P8BSvqbBIY3SQJKKMcD7D4LB2xzhQEuKf7/rqY/B0AR8QCIBb0CA
I7bBCE/TQCcl8z/KD7nBkVuNQDwlp0BveMXB6GXiQDSH9L5UUL3BmXKrQGidQj/uSZnBM3b/QHpI
h0Dh8arBrJqfQJ5Ck8DTZYbBofMXQRqfp0D0KL/BH+0MQaSb3EB+Xr7BSyIVQZ5mwUDkZLLBNgmT
QMH8kEBz7IXBOxS+QMoTVkAZGIXB/aXIQIEioUDpK4nBWP/DQP8V7kCdHdfBCoSsQO6LukAjqtTB
dqecQEfY50CwwczBpA9bQBsTMUBacafBP3r9Pw3/Y0BP95fB4mwzQI+0hUCN0IzB+b5MQAHadsAe
W6LByTt9QIOXN8DshqfBBeudQD9YhEAWJbfBUQrfQKHWlT8AGLDBvWemQP6an0Cjzb/Bb8bnQAFD
Mb52orLBLsumQDzF5j5u4aPBTx/mQDoRkEAPa7DBjqNMQH5QesAGFZfBuAqWQEVP+r9QQqHBIFKv
QB/GZL+NcqbByLa9QDvivz9N1qjBuj+9QDhKekDdMK/BRgDvQGosq0A5IbnBIfvOQFWWs0Cr3sDB
Yc/PQDF/mr9I563B42OUQDzmA8D/85XBck7KQNvvVkDig5vBDNOBQEw3ZEAeGpnBuJqzQHlDPUCt
2qXBT60NQZC+vkBHMLrBXKmxQMUXhkCKdYnBoD63QFtT2EA46dDBefV5QELLQcDpHZHBs2KqQF1J
dEDgtJTBOeiFQJuoRkA+5KLBaG81QEiScUBZEZTBNo3wQKc6UUB7bJnBFebYQGr9zkD1SMnBfSXZ
QC62H8CjTLDBZ0urQKbBmr9Mwo/BLfInQJAsksBa9KbBBZp+QODIM8D4JrDBEV1+QFVyaUAAjbbB
ltTxQFGT+j/5sLPBId2NQLRxpUB5tcXBBnsAQd6h0r5JPLjBemqOQI4NLz8JDJ7Bxc/+QOGciUB5
l6rBLYsnQGqYlcC6GpPBM/wXQWkxqUDU3L7ByHkMQWbP3UBeSL7B9pwUQSVmw0BYL7LBeFKTQFud
kEDZ2oXBKAW+QL+LVEBtCoXBUxfJQGtRoEC4E4nBH4DDQH467kC8FNfBVIOsQLNqukBsstTBAymc
QLpp50BsvszBgchaQKZeOECLtqfBtNH9Pyh9ZECX7JfBqLQzQEEhhEAol4zBWOyGQPC/QcAjRo/B
spaNQKWOAsDaE5fBh0GdQEXwhUAq6bbBTFPOQBjQkT9WCrPBVgimQMfJoEBOob/Bse3WQAboVL5V
c7XBkL61QKUO+j5xQqHB8mHmQMoUj0DZjrDBEL6pQOeKdMAE7IvBDOe2QAw78b9QZ5vBqdO+QOu6
W7+jnqPBQLC9QINMwD9J3ajBqvW8QPdYe0ChHa/BL0vvQHR0qkD1N7nBQw7PQDGzs0As2MDBAFnP
QBKomr8Ix63BpZPYQOwwLcAemZfBiWTKQA/FV0DbkpvBbO2BQHr5Y0ArGpnB9H+zQI5QPUAS4qXB
QPkNQTk/vUBaYLrBbuuxQC+XhkBhhYnBf5K3QMxe2ECt69DB+4TRQMqaacDGBpDBGYKqQKTrdEAI
wZTBqO2FQBjUQ0D6xqLB+sY1QA+BckDZFZTBwKXwQKwGUkDHfJnB1i7ZQK/ZzkCtS8nBiTPXQHkm
IMAbULDBJnwAQajkIcCLSJvBgQZPQC1eS8B64IvBhxNnQEeptL/NtpnBnAt8QBrtbkCdJbbBKGbU
QJyJ8z+y9bjB1V6NQO4hp0CqeMXBAWbjQM0i875mOL3BIo+oQOG0Pz+3jJnBkHX/QMFCh0B88arB
bZakQBCrksCK8IXBq/QXQbiCp0AXLL/BPPQMQX6E3EBqYr7BZikVQSxRwUCRaLLBlZaTQPn+kEA7
5IXB1IC+QGPIVUBLGIXBSjfJQLXxoEBQL4nBdQDEQBsK7kDRHtfBloesQDN/ukD+qtTB7KicQKXL
50DWwszBMtNaQIwiMkA4a6fBkk7+PwxNZEBw25fBsD40QCqUhUCItIzBv6opQQxv779pF5zBd9Aa
QRLOmL94i6LBG4zmQCb5j0Aka7DBnT6tQESSYz+ZNLLB3WXuQNJ2rUBlrLjB3/K3QK7s277jLLXB
IU7fQMy6QT/hTaPBGIqdQEJ5hkD84LbBYUciQaCmJsCSLpPBa/sEQWUxo78Z5Z/B5jTqQBLnDL8j
T6bBQfjAQDApwD+zO6nBcIG9QMmVekB7Ka/BpcWlQDDookCtZL/BTQDOQASBt0B6FsDBu3vWQOV7
k79KPK/Bpjz9QGUEAcByy5bB9NHIQFUCWkApaJvB1dB/QDHKV0BdZpnBuVC0QA2VO0Ag8qXB6qeC
QIiFrEDTcsfBvlusQCCqgUC/QInB9tLNQHYpAEGoRsXBczANQVOVKsAbrJDBWBqnQJVAbUBGopTB
kECGQOS9O0ClMaPBZLwvQGWfX0B7p5TBHOLuQC3PYUA/LpnBi1jWQOpf1EB8JsjBbXjgQPr9GsBn
ELLB4VPTQD/8BMArD5TBzIo6QUpO6r887J3BLwogQXV6H7/xZanBrgEAQV90h0DE+qrBltOVQKf/
tz8AzbbBLbQGQcN9vEBxVbnBsrWoQOrXYr8YBLzB10HuQJDBmT+iX5zB1v98QF4Bb0AhOrbBLbIt
QWtCSMCyPY7BuPNeQOvIx0ARn8TBvB6RQLJztEDyOM/BBeRbQCZIkEA/VsjBMs2MQCnih0B0rYXB
z827QHLLTUA3CoXBJGjAQOZ0nkBqiojBQT/VQLKhCkEVGszBr92rQFHqAUGiIcPBRN3hQCGtBEEN
Z77BaOJdQDnwKEAwJajBKz/2P4ZtT0AZvJjBLL4qQLZzdUDvKI3B0tcNQRQQNcB53JPBrtYHQTh+
8b9bn5vB/AbmQNQIkkA7ObDB4O67QOnulD/5GLXBQdTtQBKisEBqOLjByrnFQNAxFL4zd7jB6xvM
QGp6Cj91rqLB2jGcQDJPi0ACWLbB5rz7QBhjZsA3zI7Bz//jQDSD37/YF57BkFvWQO5nQr9zEqbB
LfS/QNn+wz/VKarBh7S8QOwDgEDk9K7BUV2kQFbQqEC7nr7B+wbNQPqFvEBPWb/BNjPTQF2zjb/h
+rDBv3/FQAC8IsAJr5jB2VHKQDJLVEBHwJvB+aqBQKpCVkC6LJnBJPqzQMhMPEAKRabBxdGAQFZe
tEDjY8bB5ruwQPgQeUDhKonBz/rNQBoKA0F7yMPB8bTRQDK8XMDZOJHB/8epQNhDaECsoZTBUGKG
QHCDPEBAIaPBCLg0QMBjXkDwD5TBcbbwQKj+UUBzs5nBb1DVQPJ82kCqJ8fBMJDcQGRBF8C8R7TB
U1GbQK7IGcD47ZrBiXseQbedPcBaypHBm7sTQeMkpL9/nJ/BT7f/QOEniECB/6rBaUWxQJhw8j9C
4LrBuowGQb0Xv0Bx57jBKuPCQFfd0b6gz8DB5YbNQIJvST+jRprB3Zx5QEdHekDUnrXBY30CQRx7
isCw2IjBaARdQICez0BsN8PBQs+OQM8avUAQKs7B68tWQPK9mEBga8fBa+qRQDOng0BWToXBWSG/
QCVVQEBkZoXBbVzGQKENmEDNO4jBPUXVQAH+DUEMbcrBC0usQKP1BEH9asHB4sjiQOjEBkEg77zB
LJNcQExaK0De76fB23b9P0ZGUEDR+pfBrSoyQOFZckDRd4zBDNxRQKQ6dMBmq5rBzN9xQFODNsAC
xqHB0pqsQF38ikDSPrbBMu/KQKPPhz9FA7PB5uq9QBAepkDhEL7B9ILNQKsxlb6RC7bBDNOnQGmS
0j75YaLB1FHyQOJlhkDRma3B1D5zQFmCeMB+M5DBpCGZQNW+/L9uLp7BclGqQIpUcb8raqXBUPa3
QBuetj9CGqnByE/GQJlsd0Cnwq3BxOYBQWgLokBBV7XBYKjpQHRMskAkqb3B9ie9QDvCpb/QTa/B
FFmoQPnUBcAviZPBVGzGQJC7RkAuYJrBzCZ+QCwMaUBCAprBMHSzQA/zOECBiKXBtIUZQTCBrUAh
xbTBCPKoQAF2ekARuIjBSMXgQIsq3kD3hs3BSKSYQHc6QsAB0ozBEM2lQC90akCCTZTBSqeFQIGE
TEARxqPBMKIuQCDogEAJF5bBVlHqQPuNM0CFNJfBnDX8QKxtzUCXK8XBOJfAQBj1JcCZR7LBXu/H
QHpLo78q+Y/Bjj4gQFn3j8AfMJ3BPphZQN8kMsAt2KnBx16LQLywgUDFtbbBH3PXQDG76T9wP7jB
wM2pQBjYsUB3c8TBChrcQEJeD7+uk73B9WKZQJf4LD+30prBe14DQf5YckDAdqfBBcpaQC0ZlMCt
vorBHd4iQfYDlkCuXbnB9P4bQdydzUDQJ7jBiMoeQacurUC/X6zB9ueKQJWCi0Ce1oXB362uQMyo
PUBohYTBd5zDQKpTk0CrJIfBZIzzQDr58kDd2dLBe0vTQJR5w0C/K9LBdqDGQJPA8EBM58nB1Hld
QOsKRUBkR6nB4+n1P9J7fkCFyprBbh8pQCl6i0AOko7B

>  <OMEGA_E>  (7) 
IFcxP+BzMj+clys/6NMrP+b9Kz8gejw/5KFDP9hGbD8=

>  <OMEGA_NBR>  (7) 
     87252

$$$$
50168766
     RDKit          3D

 43 45  0  0  1  0  0  0  0  0999 V2000
    6.3498   -1.3086  -21.5385 C   0  0  0  0  0  0  0  0  0  0  0  0
    7.4233   -0.4870  -21.1482 C   0  0  0  0  0  0  0  0  0  0  0  0
    5.1068   -0.7354  -21.8603 C   0  0  0  0  0  0  0  0  0  0  0  0
    7.2317    0.8980  -20.9957 C   0  0  0  0  0  0  0  0  0  0  0  0
    4.9099    0.6466  -21.7026 C   0  0  0  0  0  0  0  0  0  0  0  0
    4.9075    4.1691  -22.8355 C   0  0  0  0  0  0  0  0  0  0  0  0
    5.1583    5.0448  -23.9008 C   0  0  0  0  0  0  0  0  0  0  0  0
    7.2102    4.4194  -22.0849 C   0  0  0  0  0  0  0  0  0  0  0  0
    5.9432    1.4600  -21.1710 C   0  0  0  0  0  0  0  0  0  0  0  0
    5.9228    3.8692  -21.8979 C   0  0  0  0  0  0  0  0  0  0  0  0
    7.4631    5.3135  -23.1395 C   0  0  0  0  0  0  0  0  0  0  0  0
    6.4406    5.6304  -24.0623 C   0  0  0  0  0  0  0  0  0  0  0  0
    6.3395    3.3049  -19.4349 C   0  0  0  0  0  0  0  0  0  0  0  0
    4.0807    3.5186  -19.1678 C   0  0  0  0  0  0  0  0  0  0  0  0
    5.6397    2.9032  -20.7469 C   0  0  2  0  0  0  0  0  0  0  0  0
    8.8393    5.9421  -23.2689 C   0  0  0  0  0  0  0  0  0  0  0  0
    5.5395    4.2334  -17.2350 C   0  0  0  0  0  0  0  0  0  0  0  0
    5.6528    7.0154  -25.8764 C   0  0  0  0  0  0  0  0  0  0  0  0
    5.3250    3.5903  -18.5384 N   0  0  0  0  0  0  0  0  0  0  0  0
    4.2144    2.9996  -20.3617 N   0  0  0  0  0  0  0  0  0  0  0  0
    2.8670    3.8973  -18.6143 N   0  0  0  0  0  0  0  0  0  0  0  0
    7.5370    3.3777  -19.1798 O   0  0  0  0  0  0  0  0  0  0  0  0
    6.7512    6.4991  -25.0987 O   0  0  0  0  0  0  0  0  0  0  0  0
    6.0914    8.1046  -26.5518 F   0  0  0  0  0  0  0  0  0  0  0  0
    5.2231    6.0848  -26.7707 F   0  0  0  0  0  0  0  0  0  0  0  0
    6.4805   -2.3793  -21.5908 H   0  0  0  0  0  0  0  0  0  0  0  0
    8.3956   -0.9203  -20.9655 H   0  0  0  0  0  0  0  0  0  0  0  0
    4.3041   -1.3571  -22.2286 H   0  0  0  0  0  0  0  0  0  0  0  0
    8.0679    1.5338  -20.7446 H   0  0  0  0  0  0  0  0  0  0  0  0
    3.9678    1.0915  -21.9872 H   0  0  0  0  0  0  0  0  0  0  0  0
    3.9311    3.7198  -22.7298 H   0  0  0  0  0  0  0  0  0  0  0  0
    4.3707    5.2752  -24.6029 H   0  0  0  0  0  0  0  0  0  0  0  0
    8.0092    4.1500  -21.4101 H   0  0  0  0  0  0  0  0  0  0  0  0
    9.4757    5.3055  -23.9011 H   0  0  0  0  0  0  0  0  0  0  0  0
    8.7459    6.9376  -23.7274 H   0  0  0  0  0  0  0  0  0  0  0  0
    9.2933    6.0389  -22.2716 H   0  0  0  0  0  0  0  0  0  0  0  0
    4.5750    4.3466  -16.7183 H   0  0  0  0  0  0  0  0  0  0  0  0
    6.2110    3.6110  -16.6253 H   0  0  0  0  0  0  0  0  0  0  0  0
    5.9934    5.2240  -17.3852 H   0  0  0  0  0  0  0  0  0  0  0  0
    4.8339    7.2939  -25.1969 H   0  0  0  0  0  0  0  0  0  0  0  0
    3.4522    2.7062  -20.9388 H   0  0  0  0  0  0  0  0  0  0  0  0
    2.0215    3.7793  -19.1350 H   0  0  0  0  0  0  0  0  0  0  0  0
    2.8373    4.2884  -17.6944 H   0  0  0  0  0  0  0  0  0  0  0  0
  1  2  2  0
  1  3  1  0
  2  4  1  0
  3  5  2  0
  4  9  2  0
  5  9  1  0
  6  7  2  0
  6 10  1  0
  7 12  1  0
  8 10  2  0
  8 11  1  0
 15  9  1  6
 10 15  1  0
 11 12  2  0
 11 16  1  0
 12 23  1  0
 13 15  1  0
 13 19  1  0
 13 22  2  0
 14 19  1  0
 14 20  2  0
 14 21  1  0
 15 20  1  0
 17 19  1  0
 18 23  1  0
 18 24  1  0
 18 25  1  0
  1 26  1  0
  2 27  1  0
  3 28  1  0
  4 29  1  0
  5 30  1  0
  6 31  1  0
  7 32  1  0
  8 33  1  0
 16 34  1  0
 16 35  1  0
 16 36  1  0
 17 37  1  0
 17 38  1  0
 17 39  1  0
 18 40  1  0
 20 41  1  0
 21 42  1  0
 21 43  1  0
M  CHG  1  20   1
M  END
>  <OMEGA_C>  (8) 
aDHLQMt+p7/ETqzBEoztQDVU+b5vL6nBuGqjQAhBPL//4a7Ba2rnQE7kZT8Z96fBoR2dQCmGJT/o
nq3BlQqdQD1phUACr7bBbhClQPBuoUDDNL/B5rnmQJxrjUDurbDBqS6+QJbiuj8/XqnBL4e9QC2g
d0DYLq/B5dHuQHUIqkCvHbnBvxnOQOUrtECRf8DBO93KQCuDU0CpepvBIZWCQA8xYUC4V5nBqHi0
QO7NOUCW+aXBpW0NQY0lvkCqJrrBTEOxQJt3h0A14YnB1+O0QIR+4EDoAs/BzGaqQEXIZUCsTpTB
ONyGQGL5P0DM5KLBXX03QK1teUAV6pTBgS/xQAYsWEA7cJnBHQrYQED4z0A5ysjB1uzCQF2sAUEJ
atTBZCOnQAG3wkBnKtbB+1/PQCdHGMD0uazBQlQGQQica79VuafBIruJQFm0rb8f1LHBExYBQUBT
xD/g9KXB5/B9QDm2iz/Q5a/BqJd7QEYRbkCp1rXBedyLQM3OqEC70sTBnCUAQezMhEDJR6vBgZwX
QQjHqUCMNb/BL+8LQboA3kC80b3BNbEUQUU+wUBHLLLBLmaSQH0Xi0Acv4XBgMDGQHcaZ0CVAIXB
ocm/QBcrp0DjFIvB7a6aQHFn6UAzk8nBgfBcQAgzLUCZgqfBwl8BQDzgcUBvFJnB1ZY1QM86iUAz
jo3BK5fFQEInpr//uq3BONXYQPTopb6oSbTBIJ6yQH/FbL8Z+qPBh/zWQMKFhD/ta7HBLNSwQHUS
3D5uEKHB392dQIrEg0A5sbbBFMqkQJaKoEBUIr/BJFXnQCDgjUA2urDBN8bAQEDTtj+SDqjBWaC+
QDFUdkDYKK/BRpvuQAVuqkDSP7nBfTjNQCSKtEDFc8DBl7jLQLKFVkBya5vBLAaDQNXHYkBis5nB
30W2QJUuOUA6taXBZDoNQSCyvkCCjbrBEEmwQFmnikD3KorBsTqzQKTw3ECqpc/BEIiqQEleakCT
gJTB3mCIQLrLPUAgAKPBfSs3QNgXe0BxoJXBIwPyQLAaVkASR5nBleHVQGzb0UAnicjBy1q+QL9I
AEG2KtXB0f+rQLGMvEDAr9bB1GbFQA9TFcDdMbDB7w3pQGABH7+IibvBeXOlQJPg1r/3vJ7Bc3vm
QN2Y4z+7WrbBgDmjQHZ/Nj+Nc5nBSYJ+QHUKaED37bXB9CyLQFuEp0CNqsTB0pUAQXUshkBzUqvB
wzUXQfxaqkCft7/ByYALQbGB3kBkOL7BdtsUQYrrwUDhqbLBafyQQD+6jkC8RYbBQSrFQENGbkDy
B4XBfQi/QM8zqkC2covBgE2WQNYJ40DF3srB0GFhQJvDJ0DvnqfBPOsBQBOXcECf3ZnBz4gzQKqQ
i0AZc47Bo7nPQNe+m7+1MK7B8aK+QM1Err7U4bXBdorUQPSdSr8RiaPBZrq0QFpRfD/LErPBWnvK
QCgKCD9YsKDBHUbnQJ/9jUAJxrDBHVfuQEnyqUA3dLnBKSKdQATzhkAiIrbByh+9QJvnuj91l6jB
IPm9QFjReUAr4K7BiNqjQHdloUADDr/BjjPNQBN3tEBet8DBNqrKQB4JV0AsY5vB5C+CQNrvYEBe
GJnBOi60QCMRO0Apn6XBGFh7QAtepUD6jMbBhQyxQDW/iEDkw4nBjVO5QJWj5UA5Vs/BaDuqQMgA
aEBuJpTBGaWGQERtP0CKoaLBskA2QA4pd0A6npTBsjTxQPIHWEBmipnBMIrZQFhGz0AuKcnBPlbJ
QOXOBUEnqtLBYuyuQL+wzkCANtjBvCXZQIzVDcA+d7DBqx65QDKYL79y873Bi/nfQFyovb9SiZ3B
LKWmQMu30j+a7rjBXu/MQF64Vz8tcJjB5LwAQcKQhUBXjKvBdd8GQTWkt0A+lrrBkTJ7QG20c0Dk
zLTB0udTQG/gwEBfIsTBpBWJQK8eqkBFys7BtcRUQGb3h0C9JcbBWkaSQHTCi0Bmj4XBJCHHQNqf
akCN7oTBRd6+QNG7qEBVA4vBqd2cQEmo6kARUMrBXfFcQFGKK0D7PqfB3yYAQBnNbUCVupjBggc0
QGtFiECFR43B4E/QQDRBm79gsK3BVjrxQCNbgb5Ofa3BJ6ylQPz0Ub/886vBUsPnQAocjD+3OavB
ZwOcQGrJBj+FxqnBAFLmQPnbkECSVrDB+9PtQIMerEB/HbnBAxGeQPNxhECTvrbBXTS9QPptvz9Z
D6nB/sO9QBHJekAX867BVjKlQBgIn0Adnr/BXZXNQO04tEAfyMDBrFfKQOhAVEC1TZvBCuCBQD+V
YUD79ZjBycOzQIS2PECzvKXB6+eAQJaRoUAnssfBPB+xQB21hkCkfonBiIW5QMJf6UDDJ87BPwiq
QHZ3Z0BNF5TBYy2GQD9hRkBIy6LBW4c1QLypc0AgOZTBp8fwQJsoU0DsVZnBiIXZQJ7QzUAgasnB
LlXJQI3FCEGABc/B3dOvQN342kCDI9jBCc3XQOgMEMClLK/BeOsIQdnKDL/VE6/BplGMQBrExr+0
SqzBNJQAQXHd6T8UJKvBQUN2QJ+2Uz9Io6jBeJf/QPzGikDipKrB6mIGQfEXu0CPALrBi7t+QNzq
aUBF4LXB8gNXQEY3vECRlsXBry+OQOjppkA7vM/BmIldQC1ng0BxnMfBwTSSQPn+ikAWbYXBsZXF
QP3EYkDStoTBi+bAQHb2pUALZ4rB8MacQCs76UB8E8nBL3RbQAG1OUC7tKfBC7b+P6EObEAYYJjB
WVAzQLQmhEDXp4zBHr7NQHxVpL+qUq3Bhx/EQHWgyr4yq7XB9jHPQDSyUL/0uaLBHqW8QEgkdj9r
drPBCM7GQAHcCT99cqDB7ireQO/RnEABja7BeJbmQEn7t0C7PLfB11ikQLx+d0A9objBEjS+QMeE
uz+LyKjBuQS9QLq+e0DUKa/BNZCvQEick0DjusHBO4nPQMC8s0Cz2MDBMozKQPHpV0A9mZvBiReC
QEXpY0DuNZnBscizQHCZPEBZ7aXBTFuYQCptikCbMMzBUuaxQBVshkB7jYnBgUi3QAn56kCT9szB
SpeqQHO8dECYzJTBZDmGQKW7Q0DM5qLBJRk2QNH5ckCuNZTBSuvwQB8RU0C3k5nBk47ZQMonz0Bx
J8nBeL6tQHY14EAAONfBmumSQPAP6UCb6MbBMAPUQCHAFMA3CK/B0XbCQB+PQb+Xzb3BOsnWQOuf
v7/lTJzBBpW1QHCI0T/+97nBm+nGQAiFYD8fPpjBHQ3xQIx7n0BjWKfBtfP+QHdV0ECdirbBkGeI
QGHdTkAl3rjBXk93QCqvnkD4vczBhcGtQAdqkUB99NLBTeWOQDgSUUC5bszBdoSTQE+3kEAL7oXB
3oa+QAZvVUAAI4XB7B/JQGfVoEA9MYnB0nXDQGT/BUHd1MzB8odbQJtwMkDblafBct7+P0cxZUAt
/5fB3J80QHXLhUDJ04zBmSHMQEXdn7+9Z67BAZyuQIKy9L5nQrTBgRriQIpFLb8uuKXBsy6nQH37
XT9NdbHB86zaQHTzKT973qLBPc7nQKAxi0DP/rDBMIPwQG32pkA7jLnB3JudQA3FhUDH2bbBkUi9
QG7yuj/6wKjBHti9QMnwdkDhSK/Bw5GmQPFpoECprb/BJvTPQIxoskAAy8DBZYnKQMy8WUBrgJvB
nfeBQBqfYkBfCJnBT+azQAdgO0D9v6XBJuuCQG2dqkCPi8fB0ZmxQN2IhkBja4nB5LjRQCJG+0Be
xcbB+lSqQDEndEBdo5TB/EGGQG5XQkANsaLBo6Q1QI+JcUDvFZTBGQTxQPCuXEA7kZnBacnZQCBG
zkDYA8nB+kWoQE2KAkE28MjBFVXaQBrFAkFKYrzBq+bRQHfSEcCxlLDB/Z6dQG39ar/H6LrBqb74
QNZgor+VOaHBdnKQQJHZuT8V+7XBOHrrQFXLiz8XJJzBqakAQcm6gUDOq6vB6DIIQZSjs0BglLrB
mHx7QDgLckD71bXBwDNjQAJPx0DN2sTB4bWQQKJ+sEDKgc/BiEZZQNZqj0B4+MfBCPuSQGSqj0BM
uoXBh3u/QMnLVkCnBIXBz8fHQAHYoUANIonBJ5/mQOMiB0HVBczBGalbQBHDMEByXqfBilb+P4SE
Y0Dd5pfB5c4zQHYkhUAntozBC+jMQANTo7/nQK7BllmsQKWpDr/ycbPB9v/kQJmIKL8rKKbBdtSj
QN53Rj8ChbDBH2fdQOVuLz+YbaPBt+DdQKSknEAcgq7BwEXmQGwNuEBXKLfB9sSmQA4yckB7+7jB
2+28QKk7uD9sqKjB+xy+QEx6eECJRq/Bi5+wQH77kkAh3sHBauLPQEhvs0DA2MDB1ofKQJpsV0AH
YpvBLgqCQJeIYkCLEpnBJAG0QNV0O0BYx6XBo6yXQNbUjEBsMszBIpGxQH7ChUCRWYnBaIzAQCY1
9UBoZMnBGWKqQGjPckA2lZTBZ1yGQJ/5REAK4qLB2OE1QLCrcEDNEJTBIQnxQFw5WkA9cpnBhIDZ
QORdzkCzOMnBK4DXQOQkCkEPWs7BCKSbQJLO7kAp7M7BoWPTQN4tE8CjerDBq9OZQPWWg78csbnB
xnf9QITbm78cAqLBwcSJQGzEpj/xT7TBJoDwQFJ0kz9IRZ3BysvvQD07oEDELKfB7Rv+QKrf0EDO
XLbBKN2MQCavREBHkbnBc8p1QNUXoUDcEMzBC+OrQD3flUCvCdPBAzKOQAMkVkBt9szBNgCTQEle
j0DFtIXBJuq+QKjTVEAx7YTBPinIQIW4oEB8B4nBdlS5QCO4/kAvHcHB/ORbQEHPNkAFvqfBkKH+
P8g7ZEA+8pfByTU0QDWjg0CLlYzBNrDNQB2Zn7/OL67BOODuQCpU3r4rP6rB2pGkQL2QNL/8t6/B
8O3mQLNPaj/SwKfBNk6cQAt9Iz8tDa3BnHioQCNnbUA8ErnBqj+xQCFOkkC4s8HBvPTdQCDam0DI
W67BYim9QKrNuj9bwajBbpS+QLrAdkBSQK/BAtXnQHuptkB5BLfBVD3QQLvnskAVscDBXmTKQKmG
VUCQSpvBaAGCQCT/Y0BwIpnBXP2zQMOJO0DUxqXBgp8FQWeb10DChrXBUmuxQJh8hkAda4nBBNrO
QHAG+0Co3cfBBlyqQGeXc0DNoJTBhleGQM5qR0CL+aLBMrg1QHrqcUCBJZTBjLzwQMNoVUACKZnB
6l/XQGJzzUA4YcnB9kO9QIJkAkF4Kb7BzBH0QJqDCEGzDcnBpr/TQIU5EsCbCLDBkUAHQSnBWL8+
IqnBHkyLQIcsqb9U8rLB1G8AQWSVxT+NDKXBCGx5QH0uhj/VSK7Bir2QQN+kO0BS8rnBoiOgQL5/
jkD8JcnBkp/uQLYToEAf3abBYwkVQQGXyUBw7bfB1j0CQULV80BMgbrBIWEGQfo04UCFEa3BogGT
QC45kUCv5IXBobW9QNbuVUBk34TBtNPIQHi/oEChHYnBDIK4QC2AAkEYMc7BweRbQIlHO0DB7KfB
bnj+P64QZkDYEpjBouIzQMXjg0CcoYzB

>  <OMEGA_E>  (8) 
DJDVPnjn3T5Ad+Y+ZLzpPjRf8D6AZfE+QDD0Pphf/D4=

>  <OMEGA_NBR>  (8) 
     93635

$$$$
50168798
     RDKit          3D

 48 50  0  0  1  0  0  0  0  0999 V2000
    6.8968   -1.6761  -19.3179 C   0  0  0  0  0  0  0  0  0  0  0  0
    7.2334   -2.4237  -18.4247 C   0  0  0  0  0  0  0  0  0  0  0  0
    6.9444    4.9012  -21.8195 C   0  0  0  0  0  0  0  0  0  0  0  0
    5.8593    0.9790  -22.4397 C   0  0  0  0  0  0  0  0  0  0  0  0
    7.2104    5.7445  -22.9088 C   0  0  0  0  0  0  0  0  0  0  0  0
    6.0966   -0.3723  -22.7273 C   0  0  0  0  0  0  0  0  0  0  0  0
    6.2406    0.5551  -20.0747 C   0  0  0  0  0  0  0  0  0  0  0  0
    5.1244    3.8803  -23.0702 C   0  0  0  0  0  0  0  0  0  0  0  0
    6.5183   -0.7925  -20.3722 C   0  0  0  0  0  0  0  0  0  0  0  0
    5.9373    1.4793  -21.1056 C   0  0  0  0  0  0  0  0  0  0  0  0
    5.8997    3.9436  -21.8901 C   0  0  0  0  0  0  0  0  0  0  0  0
    5.4829    4.6118  -24.2133 C   0  0  0  0  0  0  0  0  0  0  0  0
    6.4877    5.6104  -24.1085 C   0  0  0  0  0  0  0  0  0  0  0  0
    6.4354   -1.2606  -21.6997 C   0  0  0  0  0  0  0  0  0  0  0  0
    6.3261    3.3814  -19.4464 C   0  0  0  0  0  0  0  0  0  0  0  0
    4.0620    3.5625  -19.1437 C   0  0  0  0  0  0  0  0  0  0  0  0
    5.6124    2.9566  -20.7375 C   0  0  2  0  0  0  0  0  0  0  0  0
    4.7595    4.3165  -25.5199 C   0  0  0  0  0  0  0  0  0  0  0  0
    5.5581    4.2021  -17.1876 C   0  0  0  0  0  0  0  0  0  0  0  0
    7.6491   -3.3161  -17.3514 C   0  0  0  0  0  0  0  0  0  0  0  0
    5.7294    7.3299  -25.6292 C   0  0  0  0  0  0  0  0  0  0  0  0
    5.3279    3.8265  -18.5935 N   0  0  0  0  0  0  0  0  0  0  0  0
    4.1898    3.0632  -20.3565 N   0  0  0  0  0  0  0  0  0  0  0  0
    2.8424    3.7946  -18.5167 N   0  0  0  0  0  0  0  0  0  0  0  0
    7.5255    3.3060  -19.1944 O   0  0  0  0  0  0  0  0  0  0  0  0
    6.8010    6.4629  -25.1499 O   0  0  0  0  0  0  0  0  0  0  0  0
    6.6801   -2.5580  -21.9995 F   0  0  0  0  0  0  0  0  0  0  0  0
    8.6401   -2.7243  -16.6352 F   0  0  0  0  0  0  0  0  0  0  0  0
    5.4301    6.9874  -26.9091 F   0  0  0  0  0  0  0  0  0  0  0  0
    4.5931    7.2743  -24.8712 F   0  0  0  0  0  0  0  0  0  0  0  0
    7.5387    4.9815  -20.9214 H   0  0  0  0  0  0  0  0  0  0  0  0
    5.6123    1.6555  -23.2445 H   0  0  0  0  0  0  0  0  0  0  0  0
    7.9756    6.5021  -22.8258 H   0  0  0  0  0  0  0  0  0  0  0  0
    6.0179   -0.7288  -23.7437 H   0  0  0  0  0  0  0  0  0  0  0  0
    6.2590    0.8890  -19.0478 H   0  0  0  0  0  0  0  0  0  0  0  0
    4.2414    3.2588  -23.0927 H   0  0  0  0  0  0  0  0  0  0  0  0
    3.8668    4.9545  -25.5977 H   0  0  0  0  0  0  0  0  0  0  0  0
    5.4319    4.5223  -26.3658 H   0  0  0  0  0  0  0  0  0  0  0  0
    4.4572    3.2591  -25.5406 H   0  0  0  0  0  0  0  0  0  0  0  0
    4.6085    4.5194  -16.7321 H   0  0  0  0  0  0  0  0  0  0  0  0
    5.9574    3.3370  -16.6378 H   0  0  0  0  0  0  0  0  0  0  0  0
    6.2808    5.0302  -17.1430 H   0  0  0  0  0  0  0  0  0  0  0  0
    6.7927   -3.5228  -16.6927 H   0  0  0  0  0  0  0  0  0  0  0  0
    8.0182   -4.2595  -17.7799 H   0  0  0  0  0  0  0  0  0  0  0  0
    6.1100    8.3619  -25.6181 H   0  0  0  0  0  0  0  0  0  0  0  0
    3.4250    2.7924  -20.9412 H   0  0  0  0  0  0  0  0  0  0  0  0
    1.9880    3.5794  -18.9898 H   0  0  0  0  0  0  0  0  0  0  0  0
    2.8199    4.1766  -17.5928 H   0  0  0  0  0  0  0  0  0  0  0  0
  1  2  3  0
  1  9  1  0
  2 20  1  0
  3  5  2  0
  3 11  1  0
  4  6  2  0
  4 10  1  0
  5 13  1  0
  6 14  1  0
  7  9  1  0
  7 10  2  0
  8 11  2  0
  8 12  1  0
  9 14  2  0
 17 10  1  6
 11 17  1  0
 12 13  2  0
 12 18  1  0
 13 26  1  0
 14 27  1  0
 15 17  1  0
 15 22  1  0
 15 25  2  0
 16 22  1  0
 16 23  2  0
 16 24  1  0
 17 23  1  0
 19 22  1  0
 20 28  1  0
 21 26  1  0
 21 29  1  0
 21 30  1  0
  3 31  1  0
  4 32  1  0
  5 33  1  0
  6 34  1  0
  7 35  1  0
  8 36  1  0
 18 37  1  0
 18 38  1  0
 18 39  1  0
 19 40  1  0
 19 41  1  0
 19 42  1  0
 20 43  1  0
 20 44  1  0
 21 45  1  0
 23 46  1  0
 24 47  1  0
 24 48  1  0
M  CHG  1  23   1
M  END
>  <OMEGA_C>  (9) 
cLLcQKiL1r8fi5rB0HfnQLgeG8DHZZPBnDjeQNbWnEBsjq7BWH+7QMGfej9yhLPBuLvmQKrSt0A/
RbfBQhfDQKabvr5z0bXBQ7PHQL8YDj/rmKDB3fqjQPZWeEC3j7jB1pXQQKHjSr9H+qLBHf69QENZ
vT8z2KjBrsq8QLpjfEDYHq/BN3SvQASUk0DStMHBT5vPQCGIs0BD3sDBte7NQCpaob/qmK3Bv2/K
QBppWEAtkpvBhPuBQIT/Y0BSJpnBHJmzQEk5PUBr5qXB402YQOggikDOKMzBNNyxQEp3hkBAgInB
VMX0QLY6VMCZz4rBAFe3QNKO6kCOCM3Bh36qQAbmdECAv5TBdBKGQAwLREAs2qLB4ek1QGPackA3
IpTB/dDwQDCVU0A1jpnBIqLZQHDQzkADM8nBKsPVQP21I8AT/6/BvD0KQbdbLsD4FIXBmMOtQG2Y
30DjRdfB1/qSQNbG6EBG+MbBVz3xQK5on0DzXqfBOJizQP3m0z/E9LnB9Tf/QFQR0EBEm7bBeJLA
QNqTOr8O873BvEnIQNSUYz/LYZjBhLmHQJKQUEDyvbjB73l3QHiLnkAZyMzBYtKtQJe2kEAo7dLB
fKGOQKaUUEA/U8zBtXiTQIuekEBY24XB+KK+QJKRVUBFGoXBH/zIQE73oEDwJInBmF3ZQL11YcCu
ioXBpEoAQS1OiMAxPY7B+ITDQHbKBUH38czBgjJbQDu3MkB9h6fB/nf+P34VZUAG65fBFHk0QMym
hUAevozB+P8AQRydsr8Gup/Bc+ANQeeIAMBJYJrBnR/eQOqQnECFia7BDyCkQAIiSj+CurDB6JDm
QNvHt0B/NrfBy8isQPV7Cr9lpbPBbxncQARtMD+IQqPBfQGnQOL1cUAL+rjBl4LjQMA9KL/o26XB
F6G8QHqNuT88uqjBVCq+QHS/eEDgRa/BP06xQMAPkkBG78HBTi7QQJ8as0A45sDBXn3MQJNzor89
Oa7Bp4bKQIrFV0C6apvBOQuCQPJVYkBbEJnB1+GzQIz1O0BgzqXBBqqZQE2YiUAfYMzBMq6xQGcu
hUBnUYnBEmsdQYYBL8DM6pPBRe22QOfE6kBIxczB7GiqQNBvckBdkpTBHUyGQAyMRUDs6KLBu+41
QBgKcECbCJTBKA7xQLR+WkABf5nBpaDZQGkgz0CgH8nBO7HTQBL+I8Cv4bDB42kvQWX4/b/K3ZLB
qT2tQOyH4ECADdfBcL6SQDgK6EDTqsbB9CDwQLgioEBxN6fBFWWKQGf4qD+LorTB2Xn+QD+L0EBW
cbbB4AWbQMt1gL9HEbrBLqzuQBypkz/+/ZzBJ8qMQMAdRUCYf7nBVdh4QGQonUADqMzBjnCuQFr8
kUCXKdPByw6RQHMIT0AV2szBMiCTQEOPjkCLoYXB0ym/QKduU0CE94TBoTHIQE8zoECL84jBt5sW
QXfkO8DQ9ovBfGUhQQHta8CH2pfBn7bCQCj2BUFrh8zBtblbQCb0N0DAyafBCLL+P1jgY0B/7JfB
1Us0QLgHg0BehozBmTm3QFfB7b8zf5vBl7ywQEa4LMAGspTBDD2dQNVShkDm/7bBatHNQN/fjz/I
BrPBdWemQB5foUDdsL/B6l/WQGb/Zr6DYbXBxGS2QAv4+T4QGqHBhqzmQJBTjkDoqrDBAfS+QD+W
XL81eaPBBsO9QA2Zvz8B0KjBL/28QJn3ekA5Nq/BWvzvQEpTqUABXLnBrZfPQJVvs0CQ0cDBRwXP
QJhCnL9qo63BplnKQJREWEC8o5vBPeeBQHI1ZEBfJ5nB926zQGk5PUA37qXBIDkOQcKMvEC2b7rB
sO+xQBMMh0DtmonB2BypQNYibcDZeYzBUSa+QDjn80Cy68nBUHuqQHiEdUDH05TBh+CFQHvgQ0Du
0qLBRsw1QCuockChHZTBDZvwQEmxUkCei5nBpN/YQBpWzkBKP8nBlnHXQBX+IMDWCrDBP4O6QE5/
UsCgFoPBmDjEQFKRBkHnKcHByGLJQF0eBUFbzNLB6ap7QG5qcEAYQbbBO3zTQHPb8D+tBLnBB+GN
QJtbqEC7hcXBcaHiQONQ/76LKL3BtBSqQGaLQT94UZnB1Zz/QNZThkDAB6vBQFQYQUgxp0AMRr/B
qRUNQdv220CGXb7BTlkVQaprwEDCcrLBhpyTQKp3kUCU+YXBcJK+QD7XVkD8KIXBlDTJQDNuoUBH
TInBunWGQOFkdsCOc4vB1vK3QMT7lMDR5Y7B3XecQGLi6UAvb8rBtLFaQJcmMkB7dafBAEL+P2Q/
ZEB03ZfBuVw0QI+6hUA1vozBbNiWQA2C979aS6HB2/iBQPZkM8DJ+5zBHMSdQJjHhECLOLfBGO/e
QBx2lD+VArDBpaymQIY7oED42b/BAvbnQGRrPb7OcrLB9l6mQM2l4j4C2KPBmk7mQIVfj0AhgbDB
uk2vQMO9Zr+3UabB6mW9QITrvj8J0ajBKiW9QEz0eUDBRa/B/KbvQBcFqkASQrnB2XXPQNZLs0Ak
1sDBMyDQQIvpm7+3qK3BKD3KQFoOV0DKlJvBn9KBQA1kZEBMHZnBnl6zQNkTPUCX5qXBA+gNQVMB
vkDuObrBEOWxQGqDhkBMiYnBINVRQLX0dcDUu5fB2429QJe380Dg48nBDnCqQFG3dEDiw5TBlb6F
QCTHRkDW6KLBM581QMelcUD7B5TBFoDwQF5nUUBvgJnBuIzYQGVWzkBDP8nBfzbZQMR/IMCFFbDB
DlNNQMg7ZcALFY3B3HLDQFB2BkHQHsHBa53IQN4bBUF6wdLBdad9QGgaa0CDpbbBF6rxQKAV+T+w
o7PBdkGOQA7CpkBxvsXBXaEAQWCF2b5MA7jB0LGNQKQuLT9VF57BxdL+QHbUiEB4o6rB/lgYQaXO
qEBn7b7BnZkMQf0x3UCyQL7BtMEUQSV+wkDAMrLBwZ6TQJQikUCX6oXBJUq+QOOGVUDHGIXBfVvJ
QGq4oEDqNInBZuYQQKUmd8BwIZvB9KRwQD45msBs/pjB/fGbQMR16UA4aMrBtU1aQGWlOECxtqfB
Kev9P4VzZEDf2ZfB+ik0QIcwhEAVjozBcXSuQDtJ6b+8RpzBst+pQP6OJsDl9JTBB7mdQDlphEA5
sLbBBN7UQERmkj9PI7LB/GqlQMePn0DwZL/BJE3WQJRsU76XPLXBvBy0QOyaAD8eOKHBbt/mQHAq
j0A7gbDB8+22QKaJV7/jL6TBkrnAQN5KwT/yZqjBafi9QLojekBO9K7BCt7uQE82qkCSQLnB9wjO
QCYvs0Cqs8DB00zFQJYkmb+Le67BHGHLQDYjWEBDSZvBY5OCQLz3YUD2WZnBt7O1QNznPECzpKXB
xnQNQSz9vUCoibrBuhiwQJLKh0BumYnBrzOmQJRJX8BtzIvBXie0QDYH3UBGmc/BUEiqQGbfaUCg
P5TBL9qHQBKIQEDB3aLB7Bs2QHBKdkD7/ZTBYZbxQMyYVEAMGJnBjVvXQJ0iz0ClAcnB0mXDQHig
HsB84rHBZ/+5QLIwOsB6S4PBucbAQDwQAEF1HtXBPjipQC+/vUDCptbBm/J9QJrzaUBb37XBOxbj
QIhj8z8dKrfBtFGMQEyXpUCtI8XByXTkQOBT975CzbzBNjioQNaYRD/cY5nBHyIAQd0miECk6arB
xZMXQc+1qECBY7/BBPsLQV8x3UDzir7BOccUQfVpwkC8nLLBU8KQQPpxi0BwsoXBkILEQBl2ZUDX
u4TBlWS/QOxWp0B9YYrB3zmEQLDpacCK64nBmZC1QK52jsAJn43BWcGYQKXX5EBQbsrBFDZgQHJF
LEDOl6fBBKMAQJWBa0AaLZnBS5UyQIHdh0Aeqo3Bv9ACQX5bn78OSaHBLIESQSZE279VBp3BPuWd
QFlGg0Dgx7bBDtemQDEsaj+wv7HBnZymQPDcnUCTiL/BCZ6zQBhRq74qvLXBg0DVQB5NHz+zTKLB
VTXnQEp9i0A1orDBSArjQMrIGb8yeKbBYEG6QDBKuT8ccKjBxKy9QGPHdEC5Da/BjaPvQI7Xp0C0
JrnBO0/PQKh8sUDRscDBSOHTQOTChr//crDBrx7KQFnfVkBGOZvBgeKBQJvTYEBh2JjBOhKzQEUg
OkBcd6XBPsENQcyQvEB3DrrBYh+xQJ05iECgi4nBhfklQayeDcDvI5jBZii4QFIR20BbU9DBwPyp
QC1+ZkAR5pPBqtyFQI/KQUDChaLBihQ2QEcRd0BiS5TBcKjwQKvlW0CNbJnBQX7ZQEwRzkAT5cjB
X/nlQCmYB8CDU7XBt881QQAKp79oyJnBg7KqQAZMuUAUUtbBa5WWQOiG7UCTH8vBNeJ8QPy8akAI
7bXBAxWOQCyHvD9+zLXB0BuOQDV+o0AxdsXBUrmkQK+bPb+W0rzBGEHfQOu5bj8eaZrBNl4AQRev
gkDVPavBNT8YQRhKqEBx+r7BzCgMQdA63EAc0b3B2boUQeQuwEAhB7LBdpeSQCusikBuNYXB+ujH
QJ2HakDVzITB6zm+QO52qED43YrBdHYjQVCTFsCxgI/B12gqQUIgS8CFzZvBBEvGQDwE80B2uNXB
DcRaQAaKMUDzQafBScb/Pwyzb0AIc5jByyw0QGg/h0CC2ozB

>  <OMEGA_E>  (9) 
POgLPyzICj+clAY//JIGP5hBAz/MNQE/

>  <OMEGA_NBR>  (9) 
    106446

$$$$
50168736
     RDKit          3D

 52 54  0  0  1  0  0  0  0  0999 V2000
    7.8896   -1.4010  -20.0228 C   0  0  0  0  0  0  0  0  0  0  0  0
    8.5340   -2.1279  -19.3019 C   0  0  0  0  0  0  0  0  0  0  0  0
    4.9117    4.1486  -22.8332 C   0  0  0  0  0  0  0  0  0  0  0  0
    5.2640    0.9817  -22.2842 C   0  0  0  0  0  0  0  0  0  0  0  0
    5.2031    4.9549  -23.9395 C   0  0  0  0  0  0  0  0  0  0  0  0
    5.7050   -0.2430  -22.8064 C   0  0  0  0  0  0  0  0  0  0  0  0
    6.6311    0.6448  -20.3001 C   0  0  0  0  0  0  0  0  0  0  0  0
    7.2173    4.3452  -22.0814 C   0  0  0  0  0  0  0  0  0  0  0  0
    7.0702   -0.5735  -20.8260 C   0  0  0  0  0  0  0  0  0  0  0  0
    5.8206    1.4883  -21.0833 C   0  0  0  0  0  0  0  0  0  0  0  0
    5.9051    3.8548  -21.8717 C   0  0  0  0  0  0  0  0  0  0  0  0
    7.5023    5.2031  -23.1594 C   0  0  0  0  0  0  0  0  0  0  0  0
    6.4947    5.5193  -24.0974 C   0  0  0  0  0  0  0  0  0  0  0  0
    6.6744   -0.9827  -22.1137 C   0  0  0  0  0  0  0  0  0  0  0  0
    6.3049    3.3746  -19.4065 C   0  0  0  0  0  0  0  0  0  0  0  0
    4.0466    3.5183  -19.0844 C   0  0  0  0  0  0  0  0  0  0  0  0
    5.5727    2.9362  -20.6829 C   0  0  2  0  0  0  0  0  0  0  0  0
    8.8873    5.8159  -23.2833 C   0  0  0  0  0  0  0  0  0  0  0  0
    5.5436    4.2800  -17.1892 C   0  0  0  0  0  0  0  0  0  0  0  0
   10.8006   -2.9827  -16.5668 C   0  0  0  0  0  0  0  0  0  0  0  0
    9.2630   -3.0119  -18.4157 C   0  0  0  0  0  0  0  0  0  0  0  0
    5.7573    6.7557  -26.0341 C   0  0  0  0  0  0  0  0  0  0  0  0
    5.3085    3.6392  -18.4890 N   0  0  0  0  0  0  0  0  0  0  0  0
    4.1618    3.0551  -20.3046 N   0  0  0  0  0  0  0  0  0  0  0  0
    2.8352    3.8158  -18.4823 N   0  0  0  0  0  0  0  0  0  0  0  0
    7.5110    3.4159  -19.1809 O   0  0  0  0  0  0  0  0  0  0  0  0
    6.8169    6.3918  -25.1273 O   0  0  0  0  0  0  0  0  0  0  0  0
   10.1486   -2.2254  -17.6028 O   0  0  0  0  0  0  0  0  0  0  0  0
    7.2116   -2.0831  -22.6868 F   0  0  0  0  0  0  0  0  0  0  0  0
    6.1458    7.8503  -26.7292 F   0  0  0  0  0  0  0  0  0  0  0  0
    5.5172    5.7356  -26.9016 F   0  0  0  0  0  0  0  0  0  0  0  0
    3.9167    3.7464  -22.7129 H   0  0  0  0  0  0  0  0  0  0  0  0
    4.4971    1.5411  -22.7993 H   0  0  0  0  0  0  0  0  0  0  0  0
    4.4392    5.1487  -24.6780 H   0  0  0  0  0  0  0  0  0  0  0  0
    5.3004   -0.6142  -23.7365 H   0  0  0  0  0  0  0  0  0  0  0  0
    6.9120    0.9372  -19.2991 H   0  0  0  0  0  0  0  0  0  0  0  0
    8.0087    4.0569  -21.4054 H   0  0  0  0  0  0  0  0  0  0  0  0
    9.5266    5.1586  -23.8911 H   0  0  0  0  0  0  0  0  0  0  0  0
    8.8104    6.8012  -23.7663 H   0  0  0  0  0  0  0  0  0  0  0  0
    9.3278    5.9318  -22.2821 H   0  0  0  0  0  0  0  0  0  0  0  0
    4.5899    4.3763  -16.6494 H   0  0  0  0  0  0  0  0  0  0  0  0
    6.2389    3.6659  -16.5981 H   0  0  0  0  0  0  0  0  0  0  0  0
    5.9784    5.2782  -17.3459 H   0  0  0  0  0  0  0  0  0  0  0  0
   11.4599   -2.3200  -15.9870 H   0  0  0  0  0  0  0  0  0  0  0  0
   10.0427   -3.4202  -15.9003 H   0  0  0  0  0  0  0  0  0  0  0  0
   11.3975   -3.7872  -17.0212 H   0  0  0  0  0  0  0  0  0  0  0  0
    8.5558   -3.5559  -17.7723 H   0  0  0  0  0  0  0  0  0  0  0  0
    9.8467   -3.7312  -19.0090 H   0  0  0  0  0  0  0  0  0  0  0  0
    4.8507    6.9777  -25.4521 H   0  0  0  0  0  0  0  0  0  0  0  0
    3.3924    2.8155  -20.8967 H   0  0  0  0  0  0  0  0  0  0  0  0
    1.9808    3.6793  -18.9836 H   0  0  0  0  0  0  0  0  0  0  0  0
    2.8151    4.1670  -17.5462 H   0  0  0  0  0  0  0  0  0  0  0  0
  1  2  3  0
  1  9  1  0
  2 21  1  0
  3  5  2  0
  3 11  1  0
  4  6  2  0
  4 10  1  0
  5 13  1  0
  6 14  1  0
  7  9  1  0
  7 10  2  0
  8 11  2  0
  8 12  1  0
  9 14  2  0
 17 10  1  6
 11 17  1  0
 12 13  2  0
 12 18  1  0
 13 27  1  0
 14 29  1  0
 15 17  1  0
 15 23  1  0
 15 26  2  0
 16 23  1  0
 16 24  2  0
 16 25  1  0
 17 24  1  0
 19 23  1  0
 20 28  1  0
 21 28  1  0
 22 27  1  0
 22 30  1  0
 22 31  1  0
  3 32  1  0
  4 33  1  0
  5 34  1  0
  6 35  1  0
  7 36  1  0
  8 37  1  0
 18 38  1  0
 18 39  1  0
 18 40  1  0
 19 41  1  0
 19 42  1  0
 19 43  1  0
 20 44  1  0
 20 45  1  0
 20 46  1  0
 21 47  1  0
 21 48  1  0
 22 49  1  0
 24 50  1  0
 25 51  1  0
 25 52  1  0
M  CHG  1  24   1
M  END
>  <OMEGA_C>  (10) 
A3j8QFVUs7+wLqDBW4sIQQgwCMBHaprB6yydQG3BhEBgqrbB/nKoQBRTez/zRbLBbX+mQKuOnkAi
hL/BLY+2QAjTeL6bc7bBVjLUQNgOJT+mZqLB8fPmQLYLi0CqprDB7D7iQJjPEr+gm6bBVkK6QOCB
vj+RqqjBffa8QI61dkBL+a7BARPwQOZ/pkBtRrnB69TPQGmesECRx8DBh5TVQDSRe7/Z6LDBxMHJ
QKz5V0CFQJvBZn2BQJYrYUDWrJjBfVOyQJzqO0CUdqXBlDIOQZIbukBDRLrBx2SxQOD1iEBkg4nB
Zc8sQSjlPsDBiITBJzUUQZDDQMBWU5PBsDu4QFIu2EDlRdDBiN+pQFboaEBu6ZPBVC2FQNaGQ0Dj
b6LBG3Q1QKI1dECs25PBvlnwQBKeWkCKcpnBZCTaQK6JzEC3BMnBvmAiQVBtDsB00ozBBcXmQFJS
BcCOfrXBw6rEQPs1+0BR1dXBq4ywQBSKt0CINtfBrap6QC/Fb0D0s7XBguiPQO1CxT/yZLbBlA2O
QMjBpECBbMXBF52pQMM6Hb9Q5L3B2i7dQIjrbz+UZJrBuiMAQXPSgUBHPqvB3WwYQZsTpUATIb/B
RfcMQQ6j2UBuIb7Bxj4VQenQvUCnQbLBe+CSQEQKjEAPMoXB1qTHQJ+dakDkyITByU6/QP3mqEBj
xIrBk1s3QSl6FMC6yn/B/64gQQblWsCsZ37BSlw2QZNhcsCCK4jBXeQIQQ6TY8CcLY7B4osdQZbL
bsBwEpjBsTibQGRJ30DuncvBgRxZQM4xNECLLKfBfIr9P+h5a0Bq3pfB9Ck0QC1YhUCaXozBWYqw
QKa4579SpZvB/N2qQBcYJsAtaJTBKQqdQOanhUC2gbbBNy/SQMztjj9+gLLB5qqkQLVIoUAeI7/B
FOrTQLP0eb5yVbXBd8G2QIEVAT/t66DBh3LmQM+Vj0CPb7DBukq5QPiuWL9Or6PBPQ7BQEDZvz8n
dKjBC6K9QD+KekDq7K7BNivuQCSbq0BU/7jBGmfNQCmltEDGdMDBGMHFQOzVnL8pFa7ByGbLQNNs
V0AxW5vBQriCQBqcYUBNdZnBPbG1QNIRPEBvtqXBGBoNQUB7v0DxN7rBKjSwQHn0h0ASv4nBTMXJ
QBoZisCpZHfBT5ulQFn+YMBxhIvB91G0QEqi4ECbDs/ByVaqQIWEaECyS5TBXeeHQNo6PkBj3qLB
IMQ2QEm9eEChOJXBiazxQPsXVUC1NJnBVG/XQG3zzkDsCMnBSOXKQClQW8A3w4TBvEnEQGhjIcCM
JbHBtDahQIMkAEGsUcnBnhzEQKcq8UDlQdjB3y58QElYbUAPo7XBsOHdQKkq7z/I+LfBt22LQK/b
p0BVzsTB0hzgQHIYCb/+Er3Br9WsQO5vST/I9ZjBOwMAQYP3h0BJ8qrBuzQXQUaMqkDTK7/BfpsL
QVz13kD9Fb7Bb3QUQalbw0BBSLLBr/eQQIIvi0BKxYXBxUrFQONcZ0AQ2oTBQ8O+QADGp0AgtIrB
mSTnQA4ahsDj5m3BY8itQHKLgsDxaG3BRITHQJJfq8CIBX3BVeaIQLCsT8Bn6IbBK0GiQBFZkcCg
kI7BmDCdQOAMx0Dm0NDBz21gQMnjJ0AYd6fBOjsBQP2dbkAra5nBWo4zQK7FiUDA943BaauwQJsD
6b9eBZzBCherQK2jKMCY/ZTBpXKdQKM4hUD/l7bBXhbSQKWMkj+Wj7LBaRqlQHN5oEBJSL/B+vrT
QFJpV74QgLXBkci2QEv8Aj8+AaHBnbnmQHC4j0D9drDBgme5QJozVr+c56PBbx3BQCUEwj8hdqjB
69a9QO0Se0DW7K7B7LLuQJLNqkCkNrnBfdnNQNS+s0DjqMDBFAnGQESzmb82U67B42LLQDhGWUCx
XZvBJbCCQOCBZEDqgZnBpse1QPcePUAPraXBTGANQdOMvkDlh7rBTx6wQNGIh0BHo4nBlbbBQE9D
EcA+3nrBEvelQKrlZcAJTozBc/ezQEQR30BiSM/BQI6qQPK6dkDn45TBQAqIQF2gP0A306LBcRM2
QBxXdUDK/ZTBqUfxQPBSUkDs9pjBSmrXQO/rzkDlGsnBEnrHQL9LWsCjbYTBGBDFQEChH8BPe7HB
BczBQNOnAEEx9dTBEKWlQOi7wEBmNtbBgTx9QIP0a0BvvrXBCI/dQCLD8z9A/rfB49uLQLbapkCt
9sTBlyXgQPw0+74lRb3BR86sQNl7SD/hBZnBTw4AQbzAiED23arBVXcXQbY9qUDCY7/BEeQLQe69
3UB3ir7BL70UQT3+wkCOnbLBTD+RQPwTkkADVYbBA9y7QL6rV0C3EYXBU27HQNHPoUA8E4nBNZHc
QAy3DcAmhm/B86TAQKyvrL80PoLBeoqjQP5CGMBT+XHB6aSGQGkZXMDxeojBQLanQJWhk8Aqi4/B
eSSaQP+e6EDtzMnBaMhgQJlrKEAIXqfBcJoAQPcXZUDS45jBhV0yQNLciEAU1o3BU7+qQOt46L+Y
ZZzB1KqkQBRqJsDVLZXB3tmdQIIGhEBMkLbBr4rUQNByjz9/MbLBKBqlQJKOn0C5OL/BD/zTQHAW
ab7EYbXBrl21QJU7/j4SDKHBcgjnQDMOj0C0fLDBGHG1QBq4V79cLqTBnvnBQDaIvz/BSajBsVi+
QLo/eUCS5q7BzJruQDFxqkDNMbnB9YvNQEaTs0DElcDBmyvCQHXbmb+qma7BUrTLQIr7V0BoNZvB
N+OCQNxoYUA8fJnBOoO2QMzMO0D1laXB1kcNQQhlvkAZgbrB/5+vQJRWiUABzYnBBzntQLZXd8Bd
NonBUK2gQL6lYMDMJozBAwi1QAaX3UCcANDBdEyqQCIwaUCOPZTB65CIQO7KPUCY26LBKZE2QJxf
eEDpYpXBme7xQKYQV0Df/5jBMCPXQL+pz0D/68jBshTFQA6TVsBeD4XB23S9QHwqHsBcIrLBLI6l
QPJLvEA029XBVvyUQBAM8UAHc8rBbXl+QJasaEB0u7XBKQ/jQGAM7z86RbfBXcOLQGSapUAz5sTB
KzfhQF64A7/KBr3BXpmrQDfZQz/iCpnB1FAAQXkMiED686rBRF8XQRxZqUDvbr/BxbULQeG63UB8
b77Bx7EUQSmVwkCVl7LBF0OQQLZljEAa4YXBSfXEQKLAa0DDxITBjam9QPhNqUBC7IrB418DQVzT
bMAgTIPBGRPqQIEknsB2z4rBk0f1QMbFVcA7rpDBfw+DQAA7UsARwIfBEYyfQNZ4kcA4GY/BIvXC
QE8h9UCyitXBbzpiQCooJ0DpgafBcIIBQCTpbUAmqpnBYIEyQLSyiUD6Jo7BHYeSQK4L7b8dnqTB
UDZ3QAdULMAnp6DBciOdQBb9hEC2brbB9abiQK6zoD/Cn6/B+S2lQE2ln0BNNr/BS4joQJQDOr2D
nbPBdCWoQDwj7T4wcaTBNarlQM0PkUCh9q/B2oWtQJwdU78GkqjB/T3AQMxnxD+0kqjBGQm9QAoL
fEAAlq7BYE3uQHfTqkCZ6rjBjgXOQN6PskA5mMDBUqLMQJ6wib9rerDBlmXKQNReVUCW9prBY8aB
QD0EYkDF/JjBuZe0QDSCPUAtYaXBy08NQePovUBnRrrBFN2vQLxKhkD/QInBW+qUQN4IjsBh9o3B
RkFCQJTFa8CMSJvBu1a1QOld4kDUXM7BUYCpQGrvZUCn0pPBVraGQIEYQ0A+oqLBVxA1QOdfeEC4
oJTB5LXwQHg4UkAN45jBPS7YQJGay0A+YcnB9ZFZQOG7cMCCFJDBfrzPQGStEsDxJLXB3w3GQCOr
AUG8BtTBioafQDx8yECIMNXB7698QNY+a0C4pLXBdmH4QCTVAkBi7rHBZB+MQIDRpUCG9cTBXDkB
Qf+Xgb6gFbnBpHeRQJv/Ij99Ep7B21z+QEnAi0BAEarBn20XQUSfp0Ar1r7BvhkMQbFw3EDgnL7B
2XgUQU+Dw0D1W7LBxc+QQNpuiUBBL4XBZCPFQCKmY0AUdoTBWG2+QOsepkBWL4rBswWbQK1TjsDS
S4XBBB2TQI0fr8Aq7pDBdhKvQDM0esBnDpLB+xf9P6JNWcDM+ZvB0/pLQPNPlcB1Dp/BRMmfQBB/
7kDCGcjBzYddQLGsMUAMeafBaBz/P/8pcUBb7JjBEfkxQK7ah0BBMI3BlfmSQHzQ7r9AOqPBqVB4
QPqoLMCWGp/B3nCdQJN0g0CfsLbB+7PhQHifmT8Onq/BjROlQEnFnkBtXb/BrC3nQEjy7r0/SrPB
37GoQEj/5z4PwaPBmOrlQAHBj0AQQbDBZ66tQLNPWr8Ij6fBWEHAQB7gwD+wW6jBd129QIFSeUDX
267BvS/uQKUuqkAwHLnBVJ/NQJmnskDlrsDBhdvLQOBJkb8Yoa/BDL3KQG5mV0DeNZvBjzaCQGFP
ZkC8TJnBs9y0QOGJPECAfaXBdEANQcNKvUAHeLrBC0uwQG3KhkCGcYnBHGk9QB18L8DBs4fBgbRC
QDh/a8ANtpnBBAe2QLb12kBidNDBT1mqQLjFdkAxupTBmRSHQIwoQ0BHuaLBFXk1QIgbd0AFsJTB
oI7wQGF8TkBI15jB+b7XQB7bzUDwKcnBrDBcQNw7c8CjnI7BJ5TOQPa9F8Ca97PBKjamQPLmuEAZ
+tXBvSqWQI2970BpJMvBp999QMDsZkA++rXBVwL3QL9y/T8rVLLBYO+LQCrFpECvGcXBriwAQQwv
sb4+67jBBL+SQAxkJz/ARp3BxNz+QF/8iUB2c6rBAEQXQWlXp0DAL7/BDf8LQTUs3EBFpb7BN44U
QZ05wkDUjrLBn9SRQLxekkAVHobBB+q6QDPiVEAR9ITB/prIQOkcoEBky4jBR91TQLTIOsDm9n7B
CPRVQKQs4784j4rBWQvuP8+bLsB60YfBkef+P2LwVsAvHprB7LpJQIL0lMC6r53BvWLEQC5e8UDT
NtbB+SReQLV8L0AWaKfBkGH/P0YwaEA6mpjBhVIyQNARiUBnco3BMx/jQOB+zL/+e5vBqGntQLtj
FMDWI5TBxGycQPhThkAHobbB7Fi1QGj0gT/4YLPBSnylQB/KoEAZYb/BMBLCQFYYkb5UPLbB2unI
QBd/Ej8f36DBToLmQIXji0Cez7DBBpDVQKNYOL96u6PBzNC7QGwsvj+SzKjB3Za8QGFieEBnHK/B
4GLvQCvqp0CHU7nBKOLOQF3PskC5tcDBxRDUQHoPkb8Gga7BwBbKQGm8V0DblZvB59aBQBn6YUAY
BZnBKJiyQK3HO0DhxqXBXf0NQV3WukDxZbrBLOGxQEiBiEAvyInBxdsSQQrQzr8+/IDB+VT5QHSc
SsDPJYvBw/+3QAZ13kBi98/BZjuqQKD4aEAmPJTBGG2FQHtvQUAkpqLBXGA2QBBmd0B4SpTBw6Dw
QHASVkAEtJnBnJ/ZQBvuzkBk8sjBetMRQZiqNMBhXIfBzlrjQJjpFcAHerHBjdynQDsZvkD9CNbB
kEqYQAca8kAYUsrBmSB5QBIfc0ADn7XBXpWmQM851D+FQrnBZ8OMQHaRp0CKLMXB+ga+QBi9IL+X
XL7BTi/JQIjqXj+FkZjBnwAAQTI5gkCPgKvBI+YXQTLIpUCiar/BNesMQTam2kB/IL7BykoVQSTK
vUDvbLLBlFmTQDrOi0DteoXBctLHQC/LaEBXFYXBiTXAQKpQqEAo84rBIn0jQTP7t79H93zBrC8N
QSFGQ7+bw4XB160IQRFm3b+0unPBAiXiQN6bQcCDn4TBSQ75QJD5hsCvto3BG5fGQHUz9kCOV9XB
+aVZQAsNL0A2OKfBkCf/P+U8bkACQ5jBgmQ1QEgCiEBS6IzBu8vfQCQszb+CGZvBShPqQLoaFMCi
spPBKY+cQCCQhkAFqrbBwTO3QB9mgz+mc7PBK7alQHTcoECVcL/BNwfDQC2Nkr7DJbbBvZ7HQGqH
Ez8/xKDBBqHmQKFtjEDmxrDB/1rTQNKmOr/id6PBQk28QOJkvz+P0ajBu7m8QMg2eUBFHq/BzYrv
QIZSqEDZTbnB7RXPQOXdskDstMDBbN/SQCg2k78bOa7BgDzKQLxUWEBrnZvBVuqBQOepYUC9EpnB
oOGyQI5aPEAq0qXBEgIOQYB1u0CCYLrBBLqxQLYkiEASxInBnWYhQeteVsAQRI/Bqzb3QFVhScDl
u4rBHC22QIdP4EB4+87BtUSqQKpdaUAJSpTBGK2FQGZ0QUC0tqLBXE02QN/odUADU5TBvLnwQAIT
VkAXrpnBcl3ZQBd5zkAgAMnB9oARQcRyNsAL1YfBP3DhQO/+F8BuArHB55OdQOBx+UCLjMjBFGLG
QCGC+EBAANfB0WR5QGWZc0DFp7XBwCyqQNk81z8YgLnBvx+NQKd7p0AKSMXB6/C/QEZxIb/LTL7B
3zrHQN+XYT+NepjB1QYAQUXzgkD/bKvB3v4XQZBppkDTW7/BYt0MQdcu20CdJb7BFEUVQQ2nvkCc
ZrLBdBaTQNJzi0Brg4XBEWLHQOVRZ0DxFYXBsU/AQOTnp0Cfz4rBLXoxQTgGRcBTaozB9BogQaY3
jsBm1I/B868eQSvnOcD6MpfBJDviQPWoPMB82YPBRab0QDqXhsC2A43Bst6iQB4BxkBhSNLB4FJa
QAX0LkBqTqfBoC7/P1AXbEAeSpjBfQ81QIErh0CC7ozBhH4AQcgIrL8TOqDBpbcNQbyU87/ru5rB
8ZGdQE1/hEDAsbbBCpGmQHsVaT/brbHBS1amQFQ3n0Bkar/BFTmxQEJ6wr43P7XBdiPXQNEbKD/A
maLBJXLnQNfqikCS0LDBUELiQEkRHr96P6bB9kC7QNqzuz/tn6jB1KW9QI+pdUCaG6/BegbwQG86
p0AMULnBYHDPQCnmsUBcssDBZHnQQJgSkL9ZyK/B60DKQLv0V0CnUJvB8vmBQIFdYEDo35jBjlCz
QMXyOkC4kaXBfikOQQPgukAzWLrBqTCxQN8viEC1k4nBvK02QRfsM7+0+5DB678dQbSmIsAx/ZPB
jCG4QBYw3UCW/s/B+x2qQCnwZkBC+JPBDwWGQDfiQUCxlaLB+yk2QP4XdUDPOpTB6MPwQJRwXUAa
gZnBx9DZQHttzkCq4sjBXbQyQbiU/b/7C5bBZ3/dQLQEFMDxzrPBUdeoQLxkvECeDdbBodiXQC1L
8EBlcMrBPth7QAJBbkDdwbXBX3mOQPKmvT+M3LXB85aNQNqtpUDgOcXB0nGhQGguTL9hK7zB6Pvj
QJLLgj9mIZvBLokAQSdbgUCIiKvBIkAYQUI8pkCqYb/BzNkMQSG52kDYCL7B7moVQfnlvUDhXLLB
BaiSQGNlikDIO4XBTg7IQLxbakAH3oTBfCu+QDKDqECz14rB7OdGQb74t75Z/5LBF+kqQS9nBT0S
2ZPB7Ts1Qd5xT79UQYjBEZMZQSxxGMA5iYvB2A4eQaGxZ8Cps5XBCHDGQLQc9UAzXtXBNB9bQFeN
MUB3UqfB163/PwMBbUAmVpjB5lY0QKMShkApxYzBFsgEQSD4k78lxaLBCUEUQWIC1r8Frp7Bfc2e
QJVthEDQ8rbB4UKeQFOeVD+Wda/Bt/emQHE1n0Avp7/BcAihQLd2EL9cbrDB6TrkQFJiYz947abB
xlXnQI7zj0DQbbDBpR3mQNWcAb95gqfBeA6+QMqFxT8Jt6nB5H2+QL/UekDcGK/BoI3vQBt3q0CU
EbnBd1/PQJJms0Drw8DBN5rDQHb5nr9KvqvBJFzLQBbgVUCdUpvBLtOCQKwBXUDwHpnBkUu1QOKy
PUCa86XB5ZINQXiGwECOBbrBT56wQNi/hUBrjInBoe1MQXOCIMBgFJ7BH2MnQb54EMC8JprBdwy2
QInX2kBdEtDBNJWqQHRaY0DHEZTB2ayHQKqVQkB/+KLBedk2QL5jbkBShZTBVI7xQPQpXUCbPZnB
EfXYQHS7zkC0KcnBLNc4QdAj9r+zKKHBTGfCQFCwJcAY46rBeWbCQJIq/UBG59XB5xqsQAMtukBJ
09bBWgeAQKvyaUDuN7bBIeeDQM5Prj9gFrPBUmCOQJSUpEDJksXBCcWIQM5Xjr8IwLTBPcv/QGFP
uj+GXaTBzzkAQUbriECywqrBpUYYQZnmq0BNvL7Bc+ELQXSu30BIB77BiV0UQVBFxUCN/bHBGLmR
QHdbh0DPWYXBaUvHQBVIZUCfzoTBeF69QIpIpkD3m4rB92dZQbxADcDEzKPBh0pRQfBGCsAaBZbB
jXVLQempZsBRD57B5E4qQaNM7L8MH5LBBaIlQfpkVsAFoJnBtyOaQA0K40C9HcvBqgRfQIyTM0Ag
3qfBLDwBQAffZkCIyZjBwJkzQNg5gUBU74zB

>  <OMEGA_E>  (10) 
uh0XP6i8Fj9U1Bc/hPAXP5g+GD+y1hg/DB4VP3C5FD/AXhQ/OEAUPw==

>  <OMEGA_NBR>  (10) 
    115478

$$$$
50168805
     RDKit          3D

 54 56  0  0  1  0  0  0  0  0999 V2000
    8.1184   -1.2210  -20.1033 C   0  0  0  0  0  0  0  0  0  0  0  0
    9.0268   -1.7103  -19.4738 C   0  0  0  0  0  0  0  0  0  0  0  0
    4.9319    4.1231  -22.8534 C   0  0  0  0  0  0  0  0  0  0  0  0
    5.2082    0.9373  -22.2255 C   0  0  0  0  0  0  0  0  0  0  0  0
    5.2129    4.9446  -23.9501 C   0  0  0  0  0  0  0  0  0  0  0  0
    5.6053   -0.3187  -22.7134 C   0  0  0  0  0  0  0  0  0  0  0  0
    6.6503    0.6568  -20.2908 C   0  0  0  0  0  0  0  0  0  0  0  0
    7.2298    4.3507  -22.0913 C   0  0  0  0  0  0  0  0  0  0  0  0
    7.0836   -0.5653  -20.8036 C   0  0  0  0  0  0  0  0  0  0  0  0
    5.8106    1.4766  -21.0611 C   0  0  0  0  0  0  0  0  0  0  0  0
    5.9245    3.8385  -21.8908 C   0  0  0  0  0  0  0  0  0  0  0  0
    7.5041    5.2241  -23.1623 C   0  0  0  0  0  0  0  0  0  0  0  0
    6.4938    5.5369  -24.1020 C   0  0  0  0  0  0  0  0  0  0  0  0
    6.6087   -1.0365  -22.0432 C   0  0  0  0  0  0  0  0  0  0  0  0
    6.3137    3.4088  -19.4210 C   0  0  0  0  0  0  0  0  0  0  0  0
    4.0570    3.5633  -19.1149 C   0  0  0  0  0  0  0  0  0  0  0  0
    5.5879    2.9369  -20.6908 C   0  0  2  0  0  0  0  0  0  0  0  0
    8.8847    5.8486  -23.2837 C   0  0  0  0  0  0  0  0  0  0  0  0
   11.4033   -4.4198  -18.3370 C   0  0  0  0  0  0  0  0  0  0  0  0
    5.5394    4.2817  -17.1966 C   0  0  0  0  0  0  0  0  0  0  0  0
   10.1158   -2.2941  -18.7197 C   0  0  0  0  0  0  0  0  0  0  0  0
   10.2805   -3.7607  -19.1473 C   0  0  0  0  0  0  0  0  0  0  0  0
    5.7836    6.8193  -26.0694 C   0  0  0  0  0  0  0  0  0  0  0  0
    5.3166    3.8824  -18.5913 N   0  0  0  0  0  0  0  0  0  0  0  0
    4.1779    3.0713  -20.3220 N   0  0  0  0  0  0  0  0  0  0  0  0
    2.8407    3.7475  -18.4792 N   0  0  0  0  0  0  0  0  0  0  0  0
    7.5147    3.4001  -19.1647 O   0  0  0  0  0  0  0  0  0  0  0  0
    6.8200    6.4203  -25.1320 O   0  0  0  0  0  0  0  0  0  0  0  0
    7.1436   -2.1367  -22.6197 F   0  0  0  0  0  0  0  0  0  0  0  0
    5.3532    5.7533  -26.7983 F   0  0  0  0  0  0  0  0  0  0  0  0
    4.7400    7.4197  -25.4311 F   0  0  0  0  0  0  0  0  0  0  0  0
    3.9439    3.7016  -22.7416 H   0  0  0  0  0  0  0  0  0  0  0  0
    4.4399    1.4951  -22.7402 H   0  0  0  0  0  0  0  0  0  0  0  0
    4.4472    5.1301  -24.6889 H   0  0  0  0  0  0  0  0  0  0  0  0
    5.1419   -0.7294  -23.5983 H   0  0  0  0  0  0  0  0  0  0  0  0
    6.9594    0.9714  -19.3050 H   0  0  0  0  0  0  0  0  0  0  0  0
    8.0237    4.0687  -21.4155 H   0  0  0  0  0  0  0  0  0  0  0  0
    9.5280    5.2008  -23.8974 H   0  0  0  0  0  0  0  0  0  0  0  0
    8.7994    6.8368  -23.7593 H   0  0  0  0  0  0  0  0  0  0  0  0
    9.3258    5.9604  -22.2823 H   0  0  0  0  0  0  0  0  0  0  0  0
   11.5144   -5.4687  -18.6492 H   0  0  0  0  0  0  0  0  0  0  0  0
   12.3469   -3.8828  -18.5139 H   0  0  0  0  0  0  0  0  0  0  0  0
   11.1543   -4.3806  -17.2663 H   0  0  0  0  0  0  0  0  0  0  0  0
    4.5904    4.6209  -16.7558 H   0  0  0  0  0  0  0  0  0  0  0  0
    5.9222    3.4226  -16.6261 H   0  0  0  0  0  0  0  0  0  0  0  0
    6.2729    5.1007  -17.1625 H   0  0  0  0  0  0  0  0  0  0  0  0
   11.0452   -1.7423  -18.9241 H   0  0  0  0  0  0  0  0  0  0  0  0
    9.8894   -2.2453  -17.6443 H   0  0  0  0  0  0  0  0  0  0  0  0
   10.5309   -3.8022  -20.2176 H   0  0  0  0  0  0  0  0  0  0  0  0
    9.3383   -4.2999  -18.9700 H   0  0  0  0  0  0  0  0  0  0  0  0
    6.2336    7.5497  -26.7579 H   0  0  0  0  0  0  0  0  0  0  0  0
    3.4105    2.8212  -20.9124 H   0  0  0  0  0  0  0  0  0  0  0  0
    1.9908    3.4998  -18.9444 H   0  0  0  0  0  0  0  0  0  0  0  0
    2.8121    4.1283  -17.5550 H   0  0  0  0  0  0  0  0  0  0  0  0
  1  2  3  0
  1  9  1  0
  2 21  1  0
  3  5  2  0
  3 11  1  0
  4  6  2  0
  4 10  1  0
  5 13  1  0
  6 14  1  0
  7  9  1  0
  7 10  2  0
  8 11  2  0
  8 12  1  0
  9 14  2  0
 17 10  1  6
 11 17  1  0
 12 13  2  0
 12 18  1  0
 13 28  1  0
 14 29  1  0
 15 17  1  0
 15 24  1  0
 15 27  2  0
 16 24  1  0
 16 25  2  0
 16 26  1  0
 17 25  1  0
 19 22  1  0
 20 24  1  0
 21 22  1  0
 23 28  1  0
 23 30  1  0
 23 31  1  0
  3 32  1  0
  4 33  1  0
  5 34  1  0
  6 35  1  0
  7 36  1  0
  8 37  1  0
 18 38  1  0
 18 39  1  0
 18 40  1  0
 19 41  1  0
 19 42  1  0
 19 43  1  0
 20 44  1  0
 20 45  1  0
 20 46  1  0
 21 47  1  0
 21 48  1  0
 22 49  1  0
 22 50  1  0
 23 51  1  0
 25 52  1  0
 26 53  1  0
 26 54  1  0
M  CHG  1  25   1
M  END
>  <OMEGA_C>  (11) 
y+QBQaJKnL+O06DByG0QQXLr2r9BypvBcNKdQLnwg0Cr07bB6qmmQDfzbz/ZzbHBrM+mQBY6nkDX
mb/Byl6zQKYqo74ltbXBBM/UQBUjKD+nU6LBelrnQEk5i0DmurDBEK3iQN23EL+7babBofC5QCgA
vT8rfajBd5W9QGqpdUBMIK/BmCHwQOcrp0B2TLnBi83PQIsusUD50MDBEnrTQJSrhL+OWLDB5gnK
QNkpWkAmXpvBUdOBQNcMZEBG65jB+8+yQOj2O0DChqXBqCcOQaknu0AdRbrBEnQ2QVhvjcAjspLB
ikKxQHwDiUC6konBcNohQdHSEsDnwZXB5nwkQYWucMCsLZnBMBO5QMA32kA5jtDB/yGqQBR5eEAG
u5TBdrGFQPqQRECJk6LBvc01QLvXb0Bj1ZPBi3jwQP+bWUBUUZnBLT3aQLFyzUBBDsnBB5jkQGPA
CMAq9bTBGk2rQLkauEDWYtbB/q2XQGFu7UDPcsvBfGh8QLjnbEDh7rXBuROOQORevz8E7LXByU+O
QHEppEDtgsXBOYqkQJ+7Or9CybzBX7PeQJKreD+ncJrBAGEAQeUygkAEU6vBu3IYQVBtpkDYLb/B
dsoMQVvH2kDzEr7BWDYVQXK7vkAZQrLBBzs4Qdf/rsCcMZXB8YxFQZaAeMCGHJTBFngyQYUtjMBM
IYrBdOSSQJvek0DkC4bBd4K9QHAMW0BGAoXBY7vIQPw4o0DeTInBL7kwQUIF37+fZJfBEzseQdiy
D8CbJ43Bcn4oQf1Wc8CwvaHBl2kVQbmYicB2wpfBdHnHQFGX8UA8ENbBMkZaQJiONECmTKfBd9P+
P/v8X0AMjpfBQ/ozQEYbhECUcIzB1ZnjQBSjyr8ZIJzBpO7uQDRpE8DM35TBTCWcQFmDiEAzXrbB
lTi2QFfyij83sLPBSJGlQO8mokDMQb/BYWnCQNCZWr4+tbbB/dTIQLPFFj+BNqHB7yTmQDGGjkC5
arDBCE/VQHvrMr8YP6TBrCe8QNhhwz8sAanBeU68QLWmfEDM067BKT3vQGruqUDxCbnBKDfPQMwp
s0AbqcDBqKvTQIOqi7/6EK/ByOzJQAvBV0CXZZvBd6aBQMpPYECZ1JjB+pmyQNbTPUAlsqXBNOgN
QZ+/vEByMbrBVOoJQfZ+r8Bn+4bBNGGxQDRUhkDXaonBswP8QEwxSsBtD4zBfNICQbBsksC4PpDB
JTa4QFOS5EA2L87BjvapQIZlZkAf/JPBVGmFQBoMQkCykaLBxtA1QLGgdEA1E5TB13TwQM8aVkBl
gZnBiifaQFW8y0COdcnBdU/iQOxkE8CoLbLBqY6qQIJeAUHIHcfB2qDHQBgr+ECWCtfB9CF4QIDe
eEAwRLXB10SoQEgp4D+Gh7nBWPCMQJH8qECOEsXBKYS+QOxjCb/w5L7BqenIQMjBXT/Q3JjBkl//
QM+2hUAo8KrBB+cXQT0Jp0Ak/b7BDN8MQbUE3EBVM77BOBcVQdnUwECDObLBKk8NQYjDz8DND4rB
AHAYQYhBosDDRYPB/Cb6QOFEscC3+oDBp9iSQOesiEAHFIXBNLnHQPFQZEAQ24TBaSO/QD59pkBx
ZorBe3gMQSiYL8CLTojBjB7iQK1eTcDfHIbBkK0PQU3BkMCcPZbBG6LoQKfEn8CR8pPBwa6dQMcR
z0C3UdDBmtBZQB9UMECONqfBzFv+P7ppbEDdHJjB0Yc0QJbAhUD1mozBBqcAQTEqp79UxKDBLfAN
QTtV7b9mP5vBauucQLXKhkA2drbB1l+nQOEaez/ID7LBBSGmQPOxoEAsUb/BKlqyQNB8mL5L17XB
kczWQLekLj8J1KLB5s/mQFAzjUCTfbDBjn3iQJx4E78HuKbBTGi7QDR7wT/O0KjBJQq9QM24eUBR
467Bz6jvQNEFqUC1DrnB4JnPQKovskBDr8DB6mTRQCdGh7/Na7DBNg7KQK8iWkB1QZvBwb2BQDTu
YkDB1ZjBCRSzQNRRPUDXgaXB6wYOQcVXvECtJbrBM6QzQX77kcB6JZHBUuiwQHjihkD/SInB6e0d
Qdh1HsAZapTBwZ4iQez7ecAtT5jBkEC4QFz14UA7nM7BuPipQE9WdkDRhpTB8N2FQMIdQ0CGeaLB
nF41QJZ3b0BL1ZPBcHvwQPtMWkB7NJnBkIjaQMvzykDNdsnBxuTeQDSTDsAvp7TBLpOpQP2gAEHV
/sfBybTHQF/880Cwq9fBbfR5QL6SdEDiaLXBkIOPQNgOyD8gO7bBiXeNQHBep0CnIsXBdfmiQDg5
Mr9M5LzBudbiQPeCgj9OMZvBORcAQbEyhEB2EqvBoicYQfgAp0Bh+r7Bk9gMQcm520C4Fr7ByScV
QR9NwECQKbLBv902QfalssBDAJTBAXhCQc8dfsA3dJHBV8UtQaxAk8BA24jBwmaSQF8FkUAns4XB
tXW9QLUpVkD15ITBEBLIQDZUoUBP1ojBTL8sQdAO8b8BrJTB5ukXQeLSIMBUJozBPIUoQZKgd8BF
mKDBktITQQ4CkMBN/5fBblSeQHpry0ApiNDBi+laQCEyMUAiI6fBezX+P0XuX0CRmpfB8T4zQNwG
hECrc4zBK77cQM1d1r8c7ZrB5D3nQOKBG8CtzZPBEL3mQFczjkDkwrDBoba5QDYVhD+HirPBrtbu
QLi3qUBiaLnBo6/BQLBCor7uErbBb3fIQPOvED8lwaDBCgqdQCNmhkBZtrbB4dPQQK8sR79vTaPB
kPa9QNakvz/E2ajBdzm9QEvLekDLG6/BnUulQOQioEBjtL/BsWTOQMPTs0D11sDBVojNQKmgnL97
/a3BCYjKQM/xWUBjlpvBbveBQD9FY0CYEpnBpLOzQEEUPUCD0qXBflmBQGUwpEDr48fBnYgRQfU5
mMCZCJjBFb6xQDFPhkBOdInBJY/0QJF+VsA3XovBFqf9QKVXmMCe8Y/BrJK6QHmt7EA2B83BxW2q
QDYKdUAutpTBPSqGQG07QkB5saLB0qg1QN0DckDNHJTBc+PwQBQgVkA3iZnBXijaQB2SzkBLNMnB
rkzVQK8kIcC9i7DB/UbKQFp6CkGRcszBBYexQHtT40CAadfBHCoAQVLShUBqWKvBD0mwQBAL3D+c
xrnB/S0HQV1Xt0A2YrrBJbS+QFAcKL/FPb7BtxPKQCa+Yz/8hZjBtMx6QN91ckCqmLXB50taQBnb
v0D73cXBpiWPQEm4qEAO6M/BNKNbQAvohkA8zsfB6iIUQTHiuMB3DJvBN6ANQSTmgsCXwZ7Bhycg
QXDNjMCsDZTBpj6TQMfgj0C7xIXBEQG/QNdmVUAOHoXBh3TIQP8noUDEEInBHOgIQYvHPcCAkofB
v/DaQGkXW8BNXIXBHa/gQKQJpMCt/5PB3t4CQfDwrcDDS4nBfYqdQKDB6UAgG8jBDohbQMoeL0D8
SKfBuGL+P8pDY0AV45fB2tQzQFSvhUBIxYzB7RoAQWwjpb8Gs5/Bj7UNQc5K5r++JZrBsnudQE7T
hEA1xbbBy0WnQLF3aj9L2LHBcmumQDS3n0CYdL/BiX6yQGo1wL4IT7XB5TLVQKfWKD8OSaLBjXXn
QCSrikDN4bDBgTXhQMjoGr9k3aXBeLG6QIpsvD96najBxoe9QDi9dUDuMK/BXEHwQBb2pkCjW7nB
9bjPQGzisUDctsDB5B/RQOjWjr/fk6/BwjnKQN6GWEDcZ5vBjwKCQD6eX0As1ZjBrgezQHZpO0DL
oqXBl0sOQUOGukBbW7rBTA4qQT7Ie8DqFqPBj4axQLZah0CHiInBLV4eQX84GsDTqpPB51EiQcwp
d8CPWJfBAWm3QKZY3EDbrs/BY0WqQHtMZkCG+5PB1NuFQJ6dQkBEnqLByEk2QHQIc0BiGJTBhcfw
QH5nXUDPnJnBEN/ZQBprzkD+18jBCm7fQMKoEsAPjrPBSMHEQDsY/0DMO9XBg9WsQF3WvEBjtdbB
x417QHsib0CM27XBL8KPQLM3vj+FPLbBIrCNQIOqpkAhPMXBrqSjQFv8S78kWLzBU07gQNoWgj8o
nprBBIAAQYvhgEDQmavBYWAYQXjppUCHZ7/BJAcNQb1t2kA1Bb7B/IcVQUVovUAQXrLBiKYsQWeE
n8BTWKXByd8dQY5uX8BIXKjB0SQ5QTkkWMAW6qPB5huTQGMjiUByIIXB9aXIQNt6aEAf7oTBWUS+
QGbTp0DHtorBCz4tQclq6r96hJTBalwZQTlCGsAbO4vBQkwTQe+ujcCSm5bBSpEuQcQJisBgKZLB
H52bQNSa5EC/scrBdZlaQExyM0AvYqfB3bn/P10Ya0CRL5jBgpU0QL5+hEB1lYzBwVkKQay2ar8b
76bBy+MbQQHrqL95YqTBp5qdQMskhkCgsLbBhricQAWlRT+pea7BvkymQCihoEBvc7/BfX+jQK2h
GL/RarDB2PXlQNfwfT9gIajBR5bmQNHnj0C1TLDB8UnsQLP4wL5bwKnBTxa9QG+Uxj+JianBDWy9
QEQGfEAT7a7Bzy/vQOZaq0Aq8LjBBUXPQCxbs0C8sMDB0aPKQF0kmL95iq3Bj3zKQJ6rVUAaNpvB
tByCQGYzXkCD2JjBouuzQINWPkDOyqXBuY8NQSmxv0D07bnBvLUlQTwriMAqoqDBJ9WwQOQXhUAv
T4nBuQwxQfkl5r/GXqHBC+k0QUUSTsB8xqXBVRu5QPhR50Dwuc3BGxeqQMhPY0Bz4JPBInOGQDpj
RED8vaLBMww2QMIecEDgHZTBMMrwQHItW0DdKpnBewvaQPq7y0DxhsnBrkfPQLPxIcA/R67B9VrM
QBe7AkED2tPBwC6dQA9a0UCV/NPBxKl8QF+gb0DL27XBw5N9QAOSnT/Yv7DBJqGNQBvTpkDNTMXB
ELWKQFJnmL+4G7TBDz4AQWJWzz/by6XBaar/QIlpiEBeqKrBUBcYQbKbqkAGnb7BSx0MQS3M3kAU
/L3BOWYUQXdrxEBN6LHBOP0oQesLqMBv/KPBq0ooQezMiMAa7pfB8AUVQX18fsBGUqLB3CCSQIry
hkD2B4XBbWbHQBLQYkBRr4TB1Ae+QBx8pUBWTIrBJzk9Qf0Pj7/DpqTB1U0yQYqZ6L8LmJjBRIpF
QXi8YMCaFaTBiEUyQR6fTcDGea7BbRGoQG939kB2BcfBxRNcQECHNkCznafBO/T/P6qFaUAEUZjB
rbIzQEjTgUAEgYzBSdvjQKDlx7+n/prBfRbvQOLhD8AKiJPByEecQOLQhUAaurbBNhy3QIGOfz9i
X7PBq0OlQKqHoEBab7/BC4zEQLrImb52DbbBUNfHQCtbET9PrqDB9CzmQOAWjEAVzLDBxKXVQJyh
N7+HYKPBY8m7QDDAvD8swajBaF+8QLnid0AmLK/Bpf3uQLY/qEB/SbnBgoXOQPL3skAZssDBrL/V
QBvmkb90Ia7BxxfKQMSAV0A3s5vBoeGBQABaY0DOIJnBYGmyQNFJO0BD16XBhsANQX5pu0BxUrrB
ESoKQWD0q8CI/4TBUESyQKAciUDu7onB9RH8QOp4RMDSg4rBk/cCQaTjj8CmbI7BNbi3QO4H3kB6
ENDB7VuqQHWYakASZZTBJkiFQLJbQUAQr6LBrqo2QJ1keUAVZJTBCovwQLEvU0Daw5nBLSzZQMxV
z0D84sjBXT3mQMrLFcAg7LDBe5WoQMonvUC0HtbBp02XQOhK8UDLlsrBtBd5QBVScUBXyLXBgC6p
QE5O0T9La7nBJpeMQNgvp0BWQMXB7afBQLgMJ78yML7BtGjGQEDUXT+9YpjBfqD/QKCpgkDIcqvB
Pr4XQSB9pkCWVb/Ba54MQd4720B4Cr7B2QAVQe1kvkCfVrLBWaQNQSl5zMAq4ofBkqgYQW0xnsCM
YYHBhLH6QBRKrcAq9H3BtbiTQEVFjUByr4XBL4LHQLnRaEDiMYXBdoLBQASCqEAdFIvBuW4MQcPe
KMDKz4bB4A7iQL2iRsCgl4TBPc0PQXOojsAhcJTB2/roQBnBncCrCJLByjfGQG3Y9UCsb9XBrzVZ
QPBELkD5LqfBkV7/P2mQb0D8S5jBzwM2QFCQiUAPEY3BP8XfQG7px79QtJrBOCTrQBHYEcBLcZPB
vYicQLjLhkD2ybbBAvO3QBEygz/ebLPBwLClQCNzoUD8f7/BJ+vDQEmglb7a9bXBWJDGQD/yFz8u
naDBOInmQC+ejEDN2LDBrcLSQNYINr/HKKPBdga8QN5swD8WyqjB4qK8QAx5eUBCPq/BeZ/vQPtd
qECdZLnB0DjPQE8Xs0CCzsDB5AbTQHvkkr/34a3BWDjKQCoSWkDPyJvBjwiCQEYpZEB6KZnBnbOy
QIkiPUCJ6aXBEw0OQWOQu0BAZLrBMYAUQdN7j8D5PJjBXzCyQA7thkA9vInBH9j5QCQ/S8AfDovB
gVMCQcHtkcC12I/Bru+2QG3b3kDBf8/BIpWqQOEmd0CR+ZTBt52FQN39QkBmwqLB6pg2QAbWcUBQ
CpTBt2TwQJYBU0Amo5nBjrbZQMPKzkCgEsnB7bnhQM4qGMBNfrDB/uTEQOfkAEHO39TBYjSqQBSx
wEAjq9bBGnB5QI+yc0C81bXBRZurQNNs1j9jmLnBQfmMQIyiqEDxQ8XB8oHBQAttJb/TGb7BITbF
QBzRZz9qWZjByNT/QBNOg0CKcKvB3RwYQbmQpkA8Wb/BXO8MQZlN20DXJ77BUTYVQbu8vkBoZLLB
dr8XQbKur8DJZpvB0p0PQeWOdMD10p7BQA4jQXq9gsDuc5TBZQWUQAaLkUApD4bB6We+QBicVUCZ
aYXByNnJQI3uoEARUInBllALQcw9MMB7R4fBLIPgQDZ9UsAyA4XBxdHnQPvsnsCqtZPBUVkHQQJj
p8CjVonB9CicQPSA50AtNsrBCvlZQDhHMEC4TKfBNJn/P68fYkA6rZfBXH81QCm1hUBVtYzBTGwB
QSemn79W0KDBUBgPQSTB4r8oY5vB3qWcQC4hh0Dlg7bB5lunQAdbeD/HI7LBEhCmQHtgoUD2T7/B
10uzQFU8mr7j7bXB9QjWQFtdLz/MwKLBQJHmQCvIjECrjbDB3QLjQFpADr8rs6bBfbO6QG3AwD+s
0qjBX6u8QDyBeUBb867BFanvQF7DqECDD7nB1bvPQPpxskD3q8DBAcPSQFNAhb/xebDBlNLJQEP7
WECuTpvBg42BQCzVX0BEpZjBpnSyQHUjPUAZkKXBmRwOQanEu0BuGLrBwswPQRD8l8D0lJfBEmOx
QKWyhUDPMonBvU0fQRrXGcAeu5TBr7wjQWD0dcBxmpjBuiu6QDEi5UBFJM7BTPCpQMzEZ0BF6JPB
i0eFQBmEQ0AAeaLBlpg1QE7YcEDrtJPB32TwQNcuXECPepnBijvbQIIty0DraMnB5L3hQJUtDMCp
yLTBt2zNQL03AkFe5tPBs0+hQLCrzUAV29TBGUh5QGZ1dUCHgrXBq1WPQKkzxT83WrbBaGWNQK2f
qEAeFsXB7lakQPxANb9+Ab3BswbhQNkggj/QAJvBCuT/QLNgg0AOKqvBOysYQf1spkBN9r7BNBEN
QaNL20Bg+b3BTTsVQblav0AGGbLBy7QTQT1euMC6bJrBA8wKQfV8mcA7J4/Bw7QCQeG6isCNcJzB
7L2SQPtZiECK64TBygfHQBH+YED9t4TBR/u/QEKYpUDD7onBBy4uQVLC6L9MKpXBs6MZQcLFG8AS
Z4zBDb8wQYGniMAPw5PBzacoQdnKc8BhDKHB24amQB4r80DavMfBTFVZQGFSNEAkOKfBfJX9P0uY
Z0BbrJfB23A0QEowg0CqLIzB

>  <OMEGA_E>  (11) 
WJgVP7AFFj9EVRY/HE8bPzBhEz+U5hQ/rDkVP3xCFT8EWhU/

>  <OMEGA_NBR>  (11) 
    123859

$$$$
50168838
     RDKit          3D

 50 52  0  0  1  0  0  0  0  0999 V2000
    4.9383    4.1271  -22.9091 C   0  0  0  0  0  0  0  0  0  0  0  0
    4.8843    0.4871  -21.0634 C   0  0  0  0  0  0  0  0  0  0  0  0
    5.2151    4.9919  -23.9824 C   0  0  0  0  0  0  0  0  0  0  0  0
    5.1807   -0.8498  -21.3815 C   0  0  0  0  0  0  0  0  0  0  0  0
    7.2088    4.4384  -22.0784 C   0  0  0  0  0  0  0  0  0  0  0  0
    7.2150    1.0954  -21.4582 C   0  0  0  0  0  0  0  0  0  0  0  0
    5.9197    3.8709  -21.9203 C   0  0  0  0  0  0  0  0  0  0  0  0
    5.9003    1.4779  -21.0955 C   0  0  0  0  0  0  0  0  0  0  0  0
    7.4926    5.2998  -23.1548 C   0  0  0  0  0  0  0  0  0  0  0  0
    6.4869    5.5973  -24.1015 C   0  0  0  0  0  0  0  0  0  0  0  0
    7.5151   -0.2499  -21.7679 C   0  0  0  0  0  0  0  0  0  0  0  0
    6.4904   -1.2196  -21.7363 C   0  0  0  0  0  0  0  0  0  0  0  0
    6.3152    3.3571  -19.4440 C   0  0  0  0  0  0  0  0  0  0  0  0
    4.0543    3.5688  -19.1313 C   0  0  0  0  0  0  0  0  0  0  0  0
    5.5955    2.9432  -20.7338 C   0  0  1  0  0  0  0  0  0  0  0  0
    8.8767    5.9156  -23.2805 C   0  0  0  0  0  0  0  0  0  0  0  0
    5.5588    4.1939  -17.1852 C   0  0  0  0  0  0  0  0  0  0  0  0
    9.8454   -0.4003  -21.1920 C   0  0  0  0  0  0  0  0  0  0  0  0
    9.9240   -1.5817  -20.2030 C   0  0  0  0  0  0  0  0  0  0  0  0
    5.9149    7.6022  -25.2551 C   0  0  0  0  0  0  0  0  0  0  0  0
    5.3237    3.8186  -18.5893 N   0  0  0  0  0  0  0  0  0  0  0  0
    4.1736    3.1252  -20.3611 N   0  0  0  0  0  0  0  0  0  0  0  0
    2.8356    3.7718  -18.4946 N   0  0  0  0  0  0  0  0  0  0  0  0
    7.5120    3.2855  -19.1832 O   0  0  0  0  0  0  0  0  0  0  0  0
    8.7870   -0.6185  -22.1628 O   0  0  0  0  0  0  0  0  0  0  0  0
    6.7783    6.4495  -25.1483 O   0  0  0  0  0  0  0  0  0  0  0  0
    6.7622   -2.5119  -22.0344 F   0  0  0  0  0  0  0  0  0  0  0  0
    8.9074   -1.5240  -19.3006 F   0  0  0  0  0  0  0  0  0  0  0  0
   11.1089   -1.5372  -19.5396 F   0  0  0  0  0  0  0  0  0  0  0  0
    6.6035    8.5993  -25.8682 F   0  0  0  0  0  0  0  0  0  0  0  0
    4.8153    7.3100  -25.9990 F   0  0  0  0  0  0  0  0  0  0  0  0
    3.9699    3.6543  -22.8379 H   0  0  0  0  0  0  0  0  0  0  0  0
    3.8758    0.7624  -20.7925 H   0  0  0  0  0  0  0  0  0  0  0  0
    4.4523    5.1948  -24.7196 H   0  0  0  0  0  0  0  0  0  0  0  0
    4.4000   -1.5955  -21.3532 H   0  0  0  0  0  0  0  0  0  0  0  0
    7.9840    4.2067  -21.3631 H   0  0  0  0  0  0  0  0  0  0  0  0
    7.9962    1.8400  -21.4983 H   0  0  0  0  0  0  0  0  0  0  0  0
    9.5185    5.2563  -23.8834 H   0  0  0  0  0  0  0  0  0  0  0  0
    8.7979    6.8977  -23.7696 H   0  0  0  0  0  0  0  0  0  0  0  0
    9.3154    6.0387  -22.2793 H   0  0  0  0  0  0  0  0  0  0  0  0
    4.6135    4.5252  -16.7304 H   0  0  0  0  0  0  0  0  0  0  0  0
    5.9461    3.3247  -16.6334 H   0  0  0  0  0  0  0  0  0  0  0  0
    6.2927    5.0121  -17.1424 H   0  0  0  0  0  0  0  0  0  0  0  0
    9.6399    0.5254  -20.6345 H   0  0  0  0  0  0  0  0  0  0  0  0
   10.8061   -0.3052  -21.7193 H   0  0  0  0  0  0  0  0  0  0  0  0
    9.8548   -2.5102  -20.7889 H   0  0  0  0  0  0  0  0  0  0  0  0
    5.6146    7.9162  -24.2446 H   0  0  0  0  0  0  0  0  0  0  0  0
    3.4027    2.9346  -20.9689 H   0  0  0  0  0  0  0  0  0  0  0  0
    1.9812    3.5772  -18.9765 H   0  0  0  0  0  0  0  0  0  0  0  0
    2.8131    4.1123  -17.5547 H   0  0  0  0  0  0  0  0  0  0  0  0
  1  3  2  0
  1  7  1  0
  2  4  2  0
  2  8  1  0
  3 10  1  0
  4 12  1  0
  5  7  2  0
  5  9  1  0
  6  8  2  0
  6 11  1  0
 15  7  1  6
  8 15  1  0
  9 10  2  0
  9 16  1  0
 10 26  1  0
 11 12  2  0
 11 25  1  0
 12 27  1  0
 13 15  1  0
 13 21  1  0
 13 24  2  0
 14 21  1  0
 14 22  2  0
 14 23  1  0
 15 22  1  0
 17 21  1  0
 18 19  1  0
 18 25  1  0
 19 28  1  0
 19 29  1  0
 20 26  1  0
 20 30  1  0
 20 31  1  0
  1 32  1  0
  2 33  1  0
  3 34  1  0
  4 35  1  0
  5 36  1  0
  6 37  1  0
 16 38  1  0
 16 39  1  0
 16 40  1  0
 17 41  1  0
 17 42  1  0
 17 43  1  0
 18 44  1  0
 18 45  1  0
 19 46  1  0
 20 47  1  0
 22 48  1  0
 23 49  1  0
 23 50  1  0
M  CHG  1  22   1
M  END
>  <OMEGA_C>  (12) 
2QaeQOEQhEDORbfBZkycQIJg+T7hgajBauKmQAm+n0D327/BocilQPuNWb9ADavBTa7mQHcHjkCZ
oLDB8eDmQO00jD9UqqvBkW69QDC9d0DAXK/B4s68QPosvT+vw6jBkcPvQDqYqUAOPbnB1pTPQHQd
s0DQz8DBTnvwQJHrf76lJK7BjbHPQDgdnL/n463BtxXKQDraVkBbjZvBGL2BQNJmZEDaDJnBKg6z
QHRdPEDg3qXBywYOQXNMvUB7PrrBbuGxQCM0hkAxe4nBrYYdQSj3zL5FianBjcgeQT52yr++n6HB
lka9QI5F80CKCsrBoVuqQI5jdEDntpTBcI6FQM4DSECW46LBJ3o1QH9kcUDy9JPBZGLwQIlFUkAi
d5nBlZcMQfpXHr9WTbHBlufYQFpizkDRL8nBoGPYQMHCIMCBRrDBmIQOQS8Sw7+ZZ5rBPr4xQe/D
xL8FUZzBLVDTQLiWCUEW8s7BqxaaQNzr6UD1/c/BIRN+QAfgaUAYtLbBcgx4QMQrQz8PV6bBgHmO
QKE7pkCkwcXBs8yMQDE5zL9y06rBI33/QCydhkCb56rB+uD/QAWE6z+F/KvBs0sYQbszqEAfEb/B
AcQMQfG53EAyKL7BrwsVQTw9wUALPLLBIaKTQH3OkEDz14XBRUa+QE/HVEAbEYXB8l3JQAVjoECa
I4nB8zwaQdV+Bj9rE6XBveUsQfpCnL4Swa3BNK0dQXSmIMCZT6bBsaqzQLNR/UDm9MHBYMZZQO7P
O0A/wKfBepj9Pz/xZEDbz5fB3wk0QDiYg0Dub4zB/ReeQFM0hEBBR7fBdq7nQMlvjT9clavB5O+m
QPfZn0Ci4L/BYfnwQFGRcb4NJK7BD9XmQDsjjkBJp7DBZuScQJ0rAj8GuKjB/5O9QHkneEDKXq/B
G329QErzvj+TzKjBTQbwQINAqUDEVbnBPrnPQNrqskCK28DBDTmmQHsPVr8WHqvB8FLQQEx5mr9w
663BLEDKQC6aV0B9iZvB29aBQJ32Y0A8CpnBemOzQEL5PEA036XBaAoOQdiCvUDVPrrB/sexQIEj
hkCgconBs+JhQHNn/L/osqDB/82IQGtnQcAV75nBLpy9QJ+A80B32snBrGCqQERpdECosJTBZ9CF
QJE4SEC/5qLBIoc1QIghcEDv8pPBGIrwQI1tU0DlbZnBZg6GQFhX5L9z+arBfcXYQJU6zkBCOcnB
y57ZQDbPH8B6PrDBdoSxQHtqJ8DD1pfBAhKKQG9hhsChXZ/BfGHDQKBVBkFxEsHBbpzIQBQQBUHG
tNLBtzl+QCwiakAzsrbBi3EAQeP66z/RvqvBNHiOQOmEpkBOv8XB/pkIQQkrBb+fRrDBi4//QOX9
hkBZ46rBWOp4QLYWSz8by6bBjIUYQaGwqEBqB7/BbKUMQYzq3ECOKL7BzOYUQcaawUDcNLLBDnCT
QNttkEDazYXBLmq+QDLCVEDiDYXBIwnJQPOFoEBTFYnBT9QfQCn4E8DeD6LB//tgQHXsgb8YXJzB
AgFuQMpzScDKaJLB2AucQK0b6UDCYcrBTWxaQBYyPECJyqfBsvT9P9WLY0Bq05fBI9szQA68gkDb
aIzBQLKgQKiygUCkprfBbFOaQDTrQT9T4q3BcwSpQD+QnEBnVcDB6hCgQFaVIL8KPK/BMy7nQLN9
kUBBVrDBVK7jQMBudj+A6KfBEAS/QPH0eUCsYa/BX3W7QJBBxT+NX6nBOq3vQIvBrECiBbnBXmvQ
QIvoskAiC8HBh+3oQCtB4b5zeajBu2vGQAAVnr9E66vByv/KQJWSV0BKbpvBSpSCQCSnW0BV8pjB
kVi0QG+AP0DkBabBrSgNQXXxw0CxnLnBTPawQC5GhUBSeYnBqXgYQdIjMr4OeqLBBqcrQWbgc78A
oZ7Bcfu2QBRg2kCfTtDBjZmqQAOdY0AID5TB3QOHQJF8SkAhIqPBuKA2QP8EZUDc8JPBBUbxQCC/
XUAoXZnByS4HQUDmh7/JU6XBSN/ZQI2tzkACW8nBFtvJQHdPJcBv9KvB9HgmQYADzb9Yb5XBY5k7
Qbh7eb2nwJzBdE3CQAMG/kCewtXBvNmuQMJSukC1YtfB48+CQFfQYECNRLfBw095QJGDnD+NSbDB
7UyRQBFZoEDhi8bBcAyHQD2QnL870LLBn4H/QAUpjECeWKrBOAv/QOvIyz/sU6bBRL4YQXwqsECN
Bb7BOgcLQeaq4kCpxb3BcyYTQQTOyUDsd7HBuECSQPhahkBwLoXBRATIQJYgZEDa34TBHGS9QF36
pUBacYrBwhQTQasMAD8TEZzBPAkdQX091j4XiKnBPFMwQRp71b/G5KTBcG6aQHCy4ECZaMvB6Wdd
QGF4RUAMTKjBP5MAQL6mXkBYJpjBGvwzQGUmckA2HozBVdidQBVXhEA2DbfB1kucQKakKT/jh63B
IHmmQMwZoEBDnL/BRGOkQMNBL78hF7DBGnbnQJu0i0Dq7bDB8/DlQNVSaD/yc6fBz829QNQKdkAg
Yq/BLba8QJiDuz9/26jB2VfwQFuep0A9frnBsZbPQOO4skAhzcDB2dTtQAQz5b7IqanBV9/MQFTq
n78+Ea7Bo17KQKTwV0ATfpvBK+6BQGNqY0D8CpnBBZezQHt2O0BW2KXB7WUOQbr+ukDuhrrBHcKx
QGdUhkBBconBtCYMQVOlBsBGxKDBAT0hQT3LBMCqc5rB7qq1QGCw5kArhM3BWF+qQE3dc0DvqZTB
DvuFQIodRUB0yqLBWro1QEDGcUDCCpTBA7nwQIKSWUD0ZpnBJSwLQVW0br92jqfBPjDZQDBNz0Au
9cjBCe3TQIbjIsBjprDB720kQYHiUcCPspXB8HwgQRBujb/N0ZLBUNbEQHDBBUE219HB8qCiQJBB
z0BZW9XBtxl9QL3za0BwULbB7mB6QO1Liz8ZI6/BOJ2NQJ9Wp0BYVcXBAHGLQAHYpL/ynrPBFWIA
QWbqgkBweKvBnsD/QBZMxD83o6TBPGwYQek2pkBHj7/BWjANQV/Z2kD7OL7BFqkVQbLyvUCVi7LB
JEuTQJUnkEAeyYXBUv2+QGXgVUC+BIXBNYXIQJUnoUDcJ4nB2YILQRvCQMA/uaXBZh39QKpVBsBm
LZvBGjouQRy97r/qJaDBNH2eQNzl7UC0JMfBI75aQOBhNkCwj6fB80n+PxTfZEAl5ZfBnhc0QCuB
hEA1l4zBjeSdQEQxhEDHCbfB6mGcQDyvKz94ma3BSIKmQNDnn0C9m7/BGV2kQASzLL9PPrDBsnnn
QHizi0Bd57DBOtzlQLyUZj/ASqfBvta9QEbxdUBwW6/Bw728QG+Fuz/zy6jBdFjwQISRp0B5ernB
iZnPQOyUskBPzMDBepDtQHMB6L6vvKnBms3MQLSwnr/pPK7BBFbKQDskWEDrc5vBbN6BQAduY0Aa
B5nBxKGzQEJ8O0CizaXBhmIOQcADu0DwgbrBppWxQGx9hkCZbInBmv8RQao1a7++6JzB2dQgQYzh
BsBvkprBpaa1QH1u5kDXis3B7EaqQAcGdEBVo5TBov+FQPEURUD5xKLBdIQ1QAq3cUCJC5TB867w
QBL4WUDNW5nBRXgKQVjsgr911qfB9S/ZQE0gz0DP9sjB0RDUQGGwIsAwlLDBzPExQayIBMAiSaHB
mfwVQXByUcBTIJzBysjEQJagBUEO4NHBS7CiQKHszkB3YdXBazt9QLOTa0ApTbbBwMN6QEoIjT81
Pa/B6qiNQPoPp0AiV8XBcmmLQLYJo7/w0LPBfWMAQaL7gkDSb6vBdo7/QFrLwT++PaTBNnAYQeU8
pkDahr/BCygNQYzX2kBEN77BjKAVQYsKvkDdhbLBShWTQMBGkEC0xoXBZ9m+QIpNVkB1+4TBw0rI
QJdcoUASI4nBu0kEQeVycL/PZJfBQ9kaQYaqvDya3ZvBVSQmQVPZAcCtNJLByG2eQNWj7UDnLcfB
NdtaQHVHNkCNjKfBNAL+P462ZECT6JfBhb8zQHB/hECumIzB7DyeQF9eg0CMP7fBwKbnQJdSjD8/
lavB+7GmQPwEn0AH1b/BquzwQEqder7fIa7BYOXmQHPKjUADsbDB4uWcQIPh/z4vnajBd729QJQ1
d0BfXK/BHoG9QFbWvT/lwKjBANTvQI38qEA4YrnBDVvPQOO4skDN4sDBpUGmQGftV7/2C6vBGUjQ
QDuFm7/c3q3Br1PKQANQV0DHh5vB4OWBQPBUZEDzE5nBiYKzQPlpPEDH2KXBMPUNQbY9vUCjUbrB
9cmxQHlzhkBnfYnB9YNgQKsi+L8csqDBlZBrQPBVWMCSspzBSfi0QMLd5UCat83BaXCqQL6fdEDg
t5TB4uqFQErYR0DJ5qLBIZE1QNswcUBpCJTBEJ3wQLQgU0BebJnBOFSGQJ+e5b8o3KrBs73YQOYZ
z0B9F8nBKH3ZQIRgIMC0MLDBkB2gQDbsacDKXpvBsRlKQLzIh8Ai/qPB6KjDQFxwBUGbCtLBc4Gi
QAMLzkCukdXBqdt+QPHGZ0CDqLbBb2sAQdDr6j8UyavBIA+OQE9ZpUBmrsXB8Y8IQWCEB7+gSrDB
4sP/QOCyhkC59arBQgh5QK19SD/snqbB3GYYQQVzqEBrIb/BPIwMQZiu3EBiNr7BDt8UQYFBwUDr
SbLBS3OTQE/rkEAY4IXB1Eq+QFJ7VUDJDYXBHCHJQKzDoEDEJYnBjQ0cQJYo3L80xKHBLOh7QKey
nr8Z05rBlZNJQGElXsB+BpXBKYadQKrE7EBfYsfB9KxaQIprO0BqyKfBfCH+PzqMZEDa6pfBFMoz
QN6Kg0DRhIzBBcqdQOZXhEAjC7fBbTScQFl+KT8ihq3Bb2qmQJwdoEAnmr/Bi0ykQEcGL79pI7DB
323nQMShi0Ak77DBAN3lQPxCZz+FZ6fBksS9QATsdUAJYq/BYKG8QBgruz/o0ajB/UfwQBOip0DT
e7nBqYnPQBm4skDPy8DBzLLtQNsV6L43uqnBb93MQIVcn78JLK7BMlnKQODiV0BafZvBLOqBQMp4
Y0AFCZnBCI2zQLtfO0Ds1aXB7WIOQajkukBBjLrBVsixQGRLhkDncInB27cSQdzQe7/DKJ3ByT0K
QTpYDcCg9pbB0Ki1QGK55kBFgs3BL16qQG/Xc0CFqJTBV/KFQF8iRUD/x6LBArc1QOfvcUDBCJTB
b7TwQJRmWUC0ZpnBqOkKQdBLf7/9HqjBUSjZQMFFz0A39cjBWDXUQIjgIsBmkbDBi4DqQCP+AsDc
YZTBWMUVQWeVF8D11Y3Blt7EQIHFBUHk09HBoZOiQFdXz0AVWtXBCPV8QGsJbEDgTLbB9S56QGpQ
iz9FHK/Bt4yNQHZfp0BYUsXBpFWLQIC7pL8SqbPBamEAQd/DgkCpfavBNKT/QCwvwz++gaTBglsY
QaEOpkC+l7/B7jINQTbA2kBEPr7B2rEVQWzQvUBnk7LBD1WTQLojkEC2xoXBi/++QEbFVUBoBIXB
VZHIQI0ZoUB6JonBNzkNQehPhL0ULpnBSFAkQfr+gL8sN53BhDAMQZqsRcCwJpzBKoCeQIrx7UDX
IcfBK6haQHdwNkD4jKfBZzr+P/kVZUDa4pfBWRw0QCaZhEB7lYzBTTieQPzvg0DkS7fBjKrnQGtG
jT/DlKvBNPqmQJCVn0B+5L/BIhDxQA94cr7MHK7Bk9LmQL49jkDTpLDBj/mcQH+V/z7tmKjBA6S9
QJD5d0CSX6/Bdny9QMdcvj/swqjBoOrvQFF+qUAHULnB2J/PQHQOs0Dm2sDBwHGmQMKSWL+N/KrB
EofQQMT8mr8K1q3BSTfKQI2PV0CAipvBn8uBQFISZEBUEpnBtmWzQJbKPEBi36XBjv0NQQG/vUCN
PLrBEa2xQFQ4hkATeInBNPxfQLXW/78x+6DBYomIQLXaP8AD3pnBXP+8QHIh80ArFcrBtFGqQA1+
dEDMtZTBTdCFQAgXSEDV66LBWmQ1QOptcED2/5PB9H/wQOxnU0BQbZnB622GQNFB5r/6CqvB1NLY
QHhnzkCdOMnBS93ZQLTvH8ByN7DB0CxdQFQCW8Cz1ZHByvGrQMqiGsCVkZXBrObSQFySCUHi+s7B
hOWZQJKX6UDvC9DBFJ9+QGZKaUBzurbBumQAQdIn7D89yqvB2omOQGH6pUDvycXBJ6UIQfK9BL9F
RbDBS5P/QEMlh0CR4arB/R55QG/NRz85nqbBEXUYQcjrqEDYBr/BBZcMQQwn3UD3Jb7BIt8UQcTV
wUCnM7LBAFOTQM+OkECQ1oXB9UG+QOnuVEBYEIXBv/TIQPuUoECoGonBtZgfQCMyGcAWnqLBMZ5a
QH6ZhL9Qx5zB9uORQM1PdsAk7p7BrUqzQIIg/UBdAMLBQXhaQL3vO0BE0KfBHMH9P4LNY0Df4ZfB
MKYzQCL5gkD8d4zB

>  <OMEGA_E>  (12) 
bOQWPyQzFz/Mrhc/DjAUP2SKFD/gKRU/GK4SP1h4FT8=

>  <OMEGA_NBR>  (12) 
    130943

$$$$
284495
     RDKit          3D

 53 58  0  0  1  0  0  0  0  0999 V2000
    5.3236   -4.1863  -17.9238 C   0  0  0  0  0  0  0  0  0  0  0  0
    5.7950   -3.2338  -18.8334 C   0  0  0  0  0  0  0  0  0  0  0  0
    6.0960   -1.6943  -21.4207 C   0  0  0  0  0  0  0  0  0  0  0  0
    6.6069   -0.7305  -22.2912 C   0  0  0  0  0  0  0  0  0  0  0  0
    6.4259    7.8906  -23.3829 C   0  0  0  0  0  0  0  0  0  0  0  0
    5.1396    0.0655  -20.0284 C   0  0  0  0  0  0  0  0  0  0  0  0
    5.8557    4.7450  -21.5308 C   0  0  0  0  0  0  0  0  0  0  0  0
    7.2704    5.0727  -23.4842 C   0  0  0  0  0  0  0  0  0  0  0  0
    6.2729    7.6109  -20.9796 C   0  0  0  0  0  0  0  0  0  0  0  0
    3.9582   -4.1825  -17.5729 C   0  0  0  0  0  0  0  0  0  0  0  0
    6.3106    9.2759  -23.1918 C   0  0  0  0  0  0  0  0  0  0  0  0
    5.3628   -1.2940  -20.2913 C   0  0  0  0  0  0  0  0  0  0  0  0
    4.8866   -2.2968  -19.3540 C   0  0  0  0  0  0  0  0  0  0  0  0
    6.4015    7.0427  -22.2611 C   0  0  0  0  0  0  0  0  0  0  0  0
    6.5061    5.6010  -22.4298 C   0  0  0  0  0  0  0  0  0  0  0  0
    5.6649    1.0400  -20.8911 C   0  0  0  0  0  0  0  0  0  0  0  0
    6.0026    3.3578  -21.6521 C   0  0  0  0  0  0  0  0  0  0  0  0
    6.4122    0.6339  -22.0300 C   0  0  0  0  0  0  0  0  0  0  0  0
    6.7751    2.8259  -22.7180 C   0  0  0  0  0  0  0  0  0  0  0  0
    7.3838    3.6935  -23.6379 C   0  0  0  0  0  0  0  0  0  0  0  0
    6.1650    9.0058  -20.8607 C   0  0  0  0  0  0  0  0  0  0  0  0
    3.5275   -2.3432  -18.9655 C   0  0  0  0  0  0  0  0  0  0  0  0
    6.3308    2.8089  -19.2758 C   0  0  0  0  0  0  0  0  0  0  0  0
    4.1142    3.2154  -18.8687 C   0  0  0  0  0  0  0  0  0  0  0  0
    5.5269    2.4929  -20.5199 C   0  0  2  0  0  0  0  0  0  0  0  0
    5.7394    3.6150  -16.9636 C   0  0  0  0  0  0  0  0  0  0  0  0
    3.0905   -3.2789  -18.0919 N   0  0  0  0  0  0  0  0  0  0  0  0
    6.1821    9.8093  -21.9529 N   0  0  0  0  0  0  0  0  0  0  0  0
    5.4208    3.3224  -18.3674 N   0  0  0  0  0  0  0  0  0  0  0  0
    4.1426    2.8191  -20.1237 N   0  0  0  0  0  0  0  0  0  0  0  0
    2.9606    3.5167  -18.1608 N   0  0  0  0  0  0  0  0  0  0  0  0
    7.5495    2.7501  -19.1557 O   0  0  0  0  0  0  0  0  0  0  0  0
    7.0193    1.4872  -22.9192 O   0  0  0  0  0  0  0  0  0  0  0  0
    8.1170    3.2018  -24.6620 F   0  0  0  0  0  0  0  0  0  0  0  0
    6.0524    9.5543  -19.6304 F   0  0  0  0  0  0  0  0  0  0  0  0
    2.6311   -1.4798  -19.5046 F   0  0  0  0  0  0  0  0  0  0  0  0
    5.9966   -4.9147  -17.4962 H   0  0  0  0  0  0  0  0  0  0  0  0
    6.8337   -3.2189  -19.1287 H   0  0  0  0  0  0  0  0  0  0  0  0
    6.2638   -2.7435  -21.6145 H   0  0  0  0  0  0  0  0  0  0  0  0
    7.1547   -1.0365  -23.1702 H   0  0  0  0  0  0  0  0  0  0  0  0
    6.5317    7.4815  -24.3768 H   0  0  0  0  0  0  0  0  0  0  0  0
    4.5645    0.3619  -19.1636 H   0  0  0  0  0  0  0  0  0  0  0  0
    5.2406    5.1556  -20.7438 H   0  0  0  0  0  0  0  0  0  0  0  0
    7.7694    5.7362  -24.1750 H   0  0  0  0  0  0  0  0  0  0  0  0
    6.2573    6.9831  -20.1009 H   0  0  0  0  0  0  0  0  0  0  0  0
    3.5936   -4.9189  -16.8721 H   0  0  0  0  0  0  0  0  0  0  0  0
    6.3247    9.9309  -24.0504 H   0  0  0  0  0  0  0  0  0  0  0  0
    4.8463    4.0127  -16.4595 H   0  0  0  0  0  0  0  0  0  0  0  0
    6.0632    2.6915  -16.4611 H   0  0  0  0  0  0  0  0  0  0  0  0
    6.5478    4.3596  -16.9186 H   0  0  0  0  0  0  0  0  0  0  0  0
    3.3437    2.7493  -20.7211 H   0  0  0  0  0  0  0  0  0  0  0  0
    2.0675    3.4386  -18.6038 H   0  0  0  0  0  0  0  0  0  0  0  0
    3.0218    3.8121  -17.2074 H   0  0  0  0  0  0  0  0  0  0  0  0
  1  2  2  0
  1 10  1  0
  2 13  1  0
  3  4  2  0
  3 12  1  0
  4 18  1  0
  5 11  2  0
  5 14  1  0
  6 12  2  0
  6 16  1  0
  7 15  2  0
  7 17  1  0
  8 15  1  0
  8 20  2  0
  9 14  2  0
  9 21  1  0
 10 27  2  0
 11 28  1  0
 12 13  1  0
 13 22  2  0
 14 15  1  0
 16 18  2  0
 16 25  1  0
 17 19  2  0
 17 25  1  0
 18 33  1  0
 19 20  1  0
 19 33  1  0
 20 34  1  0
 21 28  2  0
 21 35  1  0
 22 27  1  0
 22 36  1  0
 25 23  1  1
 23 29  1  0
 23 32  2  0
 24 29  1  0
 24 30  2  0
 24 31  1  0
 25 30  1  0
 26 29  1  0
  1 37  1  0
  2 38  1  0
  3 39  1  0
  4 40  1  0
  5 41  1  0
  6 42  1  0
  7 43  1  0
  8 44  1  0
  9 45  1  0
 10 46  1  0
 11 47  1  0
 26 48  1  0
 26 49  1  0
 26 50  1  0
 30 51  1  0
 31 52  1  0
 31 53  1  0
M  CHG  1  30   1
M  END
>  <OMEGA_C>  (13) 
3FqqQOf1hcAHZI/BTXC5QCv2TsC4qpbB0hLDQPbf2L+RXavBcmvTQLj/Or9LVLLB4qDNQJJ//EAq
ELvBhHekQKAPhj0QOqDBQWK7QAPXl0AqP6zBtqboQNpTokCy37vBY7vIQECM80Ao1qfBsVN9QDLX
hcBSlYzBoPDJQD5qFEG2iLnB95urQMShpb+pVKLB+V6cQC3/EsAI1ZrBXNnMQLRd4UDMFrLBQDLQ
QHo7s0ArcLPBK0e1QDQehT/7IKfBkhXAQLfmVkCCN63BDDHNQPNGIj9ZPbDBps3YQFPcNEB1vrXB
EEjsQOhhbEBaGr3BBUjFQOUXEEGf4qbBacJhQJX2FcBsuZfBSpbKQFLEM0DZNJrBhaeDQLfITUAE
85bB+tuwQGOMH0DFKKTBd6m3QHJbZ0BatYfBh8tFQH7ZUcAvvJDBudPFQPPyHEGZn6/BaHetQGCi
VECB8JLBjZCEQHpsNEBB/aDB7no9QHoRYUBoSZHBr5XxQAwBMEDZPpnBWZ7gQHRcvj+LWrfBFt8B
QRHrTEDBS8XBoq3BQH3eGEEIC53BS2QoQNVpvb9bCZzB7uO/QGNFncBH+IvBiq3aQJcCTsCWB5nB
tnDIQEKVL8B26qzBGvPkQMashL96XLnBEQTRQEho70CsA8PBrhCSQBRJuT7+TpnBULOnQOX6pEBQ
86XBxp74QNSOt0BzZsHBHzzIQPF130CSzqDByP1lQNZnncAH+obBm2PKQBDlHkEhZ8DBqRSbQAho
gEATrYPB0QXCQFRCLEBFsIPBo4fRQP2Bi0BjWYfB4v9VQEL0L0C3xKXBkVEEQJgSXECJ1JTBRGVB
QNL4c0DMqInBOhSrQBavhsAZfY/BZuW5QHIAUMBov5bBWjHDQAdu2r+Oc6vB1oDTQAeVPL+vXrLB
IVzGQNB88kD5ZKfBEOSjQHB8KD0yU6DBak26QDwwl0DfG6zBvEDnQP98okDRwrvB+k7MQEyX/EDp
j7rBrLF+QPgch8DyuIzBZJnCQGuHD0G/TKbB+nerQHteqL/9bqLBkIWcQOzCFMCR8ZrBbCPLQNTw
4EAWt7HBCbvOQCbwskDUQ7PBUcW0QJXUgj+ZKafB97O/QHbsVUB1Fa3BfhbNQCAkID9rPLDB5Z3Y
QPijNEDon7XBvY3rQKTGbEBdAr3B8FPIQNJhFEEf5rjBOvthQC77GMD25ZfBqU/KQL7NMEBUEZrB
4r6DQO4WTUD1zpbBmYmwQLARHkBUEKTB2dq3QM5rZUBknYfBwoxGQAQwVcCz6pDBD4zDQOaiHEFq
767B4n6sQNDWQ0DCN5LBvFSEQIDsMkA70aDB6Oc/QE4nbUCxnZHB4WnxQILyMkCcTZnBKejgQLdE
vj/ZO7fBhYcBQYQETkCcPcXBC9/IQE6OIUFud8HBOgUoQER1xb9BSJzBqtnAQH67ncDWDIzBvCrb
QPgyTsAYE5nB8MrIQJA/MMChBq3BNiblQBGyhL95ZrnBZ5rFQJH83UD6cKDBfBqRQBFtqT4jdJnB
aVWmQBv6o0DR0qXBPrj2QOUBuECMTsHByjnQQA7870AJjMLB78xnQBDInsBTHYfBeeC+QBdcFkES
a57BUZWaQDctb0C+4YLBvsvMQGlxN0DXfYPBbrTIQNplkUDBh4jBgTJVQGToLUAHiKXBYCoIQKKe
cUDZgZXBdQdEQK3Of0AQ+4nBLcNJQOlYUMAzvI/BEjljQDQ3EMBR45bBfTu/QNya1r/+1avBrdLP
QE/PN7/rybLBuVrUQFq4/UDAerrB726jQOD3tD2bTKDBJYq+QMiJmEDvF6zBT/vrQIE2okAVurvB
Y9/OQIkx80ATUafBuqaCQPW6h8CRn4zBLCrSQHUEFUEcr7jBStGpQFAUo7/EeqLB6MObQPrZEcBi
zJrBZnvSQNrH4UC/qrHBTi3UQPyVs0D6ObPBa3O0QFashz/hO6fB/7bBQCAgWECNKq3BMWvLQFxm
JT9merDBT8XZQAYvNUC4vrXBvTDuQH7ua0C3Cr3Bo+XMQG/mD0GgGKbBpVu4QCdCUsCXPpfBCkTK
QKCzM0DmG5rB/0iDQJ2FTUDSFJfBjx6xQI0FIUCQNqTB+X62QEpeaUAtwofBTWWrQCO4h8BjUpDB
Q3bOQDQnHUH2rK7BIuWsQPPzVUD8/5LBsd2EQKrwN0A5QKHB5NY7QLPWW0CSXpHBfxzxQM70LUBw
75jBWL3fQEhjvj9lhrfBE4YCQaJLS0ABRsXBgarJQNk5GEGyJZzBDNLhQMf9UcBgdJrB0T8JQCV1
UcADo4zB5yM3QG5vvb+VVpnBu9HCQPCHLsDDoa3BGSXgQHyag78s/bnBzW3XQFJI8UD9gMLBi4GR
QLuGxz4oUZnBrVyrQDERpkBTwKXBbIb8QLYbt0A4OsHB1KPNQMt93kC8Z6DBEWhxQJSMoMAxJofB
sHXTQIjOH0HUbL/B4dSZQLHzgUDl34PBtTbAQEBbLkDHnoPBoqXQQBYxjEDUW4fBDaJXQDgvN0Br
OqbBYgkDQC3rVUDs+pTBecE+QAUVbEDUo4nBoi5LQKidUsC6/Y/B2MhjQBofEsBYHpfB5iG+QAOI
2b+OZqzBJ3DPQIzmOr/HGLPBY8m2QKZi9ECvV6rBJPWiQECdJT1zfqDBtL28QETHlkCQ4KvB2uPn
QG4goUBZ47vBgNn7QOQ09ECmLLPBpiWDQFKuicBfTo3BEF6+QKGRD0HgcafBHw6pQJsyqL+V9KLB
ZWibQBMLFcAqZ5vBmPrVQKW+3kA0ZrDB0ZzRQGjmsUCDD7PBwnC0QEffgj+NMafB2YvAQN4kVUCS
BK3BBMnLQPyGHz+Lb7DBLWnZQDU8M0ARirXBcKrsQPxaakDS8bzBFKAAQUNkD0HrFLDBt/63QEWY
VsDONZjBqXDKQA9XMUDs8ZnBEmqDQK5+TEAL0pbBluewQLAsHkAPAaTB2IK3QHStbkBi5ofBrWWr
QL0fisAsVJHBIN/iQB/KGUHfV6rBoX6sQNS8SEBVTZLBaq6EQE91NEBx6KDBwaM9QKZbZ0DJg5HB
5HjxQCPPNkCMM5nBWkvhQDwdvD+CIrfBSfgCQc0oS0CZ0MTBdvQSQfF1GUHqzbLB9DDhQCWaVsCd
pZvBpKkLQBrTUsCWlYzBgBI4QHjWvr/yRJnBO9/AQFOxL8C9cq7Bh7PfQIHZgr9qWrrBAKCZQOdx
5EDj+KfBuuqQQKBspj4xfJnBa7qpQCcApEDEdqXBPz71QMlgtkDk08HBQ0QKQfjz40Atp7fB+thy
QIDOosAG5YfBJqOmQPoMGEGzz6LB6w2aQFZAe0CSWIPBGOrLQP4OQkCNZIPBcNLIQG6PlUDuLInB
+ahWQBqvMUAHx6XBsqUFQEtraUCDYZXBWt1AQCCqeEDK0onBfp6cQMGNVMDKdYjBPD6sQLe9FcBf
eI/BTia+QNM+2r/XWavBgqLNQBj0P783lLLBsMjqQFuv/kBFg7jBZgGqQDDuoz1GC5/BhL/BQGO6
mUAF/avByAziQGDnoUD6mr3BxvarQNuU9kASX63B9+Z5QOr7hsBrFozBrpLmQGKsFUEMcrfBJlCs
QDJnpb/ljaHBQhCcQNbVEsA/+ZnBlArNQLmO40BRZLPBnlTQQOd+tEC3VbTBEsa4QGKphj/XZKbB
Pp/EQO5wWUBS1azBOArLQFJDID9LPbDB/o3WQG7HNEBpObbBbB7lQKiiakDwhL7B7qCpQNq9EUFU
pqzBT2B4QDlSTsAJG53BBkTMQMjWNkA3R5nBhqOEQGfNU0DgHpfBGq20QLnpIUCdoaPBQBO1QDAk
bUAgE4fBT4paQN8DhcDSL5bBwIzGQH56HkHAnrHBBHitQLJ3WECAa5LBmsuHQC9QN0CLA6HBIbA8
QJbuakDtPJLB5ozyQDdkLUCJeJfBwjvbQISuuz/FCLjBJB72QMBdSEBdhsfBKraJQGi+GkE856bB
RzJWQLWrSsDVD6fB/7KoQAXiWMAbYoDBiTTEQHoO0b+y24zBj+W/QCFiMMAAS63BS7vbQJ44ib/T
CLrBYEQCQeBP8UDWNL3BQt2cQGepyD7Xc5fBMTi0QOzZp0Bo3aTBd03tQDUZtkAaB8TBE5mUQCLc
4kAhWKnB3s5hQP0en8Dcr4bBt2b9QBEEIEGcXLvByYiXQB1Zg0ADg4PBFr++QPHZMkDjxYLBeKLO
QNqmjkBAeIbBklpeQLUGMUBdEKbBJ6MFQNloZkBbR5bB0K48QF0KgED6r4rB+A9eQKkgiMA4Q5fB
to97QGksUsC5fJ7Bfte+QKwS278VP6zBqInOQKflOr82OrPBPSnqQLAKAEGgTrfBM+ypQJpvAj0z
pZ/BNW7BQPuYmUD1gavBWWXiQDfGo0AV/LzBvPCqQPtn9kBpY6zBBhmAQNswicAS0ozB1oXlQEFM
FkFf/bXBsc+sQKyYqr98ZKLBdOOcQHk2F8CTApvBN27MQIc75EADbrLBESXQQJRNtUD4pbPBIei4
QH3Lgz/Ou6bB863EQIFtWUBmoazBOb7LQBtWIz+zmbDBIyjXQLTpNkCHFbbBj93lQJOjbkDEKr7B
7S+oQLuaEUFCaavB6cWsQLn1HMDVapDBaYzLQCCrMkCaK5nBmbiDQDP0TUC3GJfB1Xm0QD/VH0BZ
qaPBMsqzQDifaUDqCofBfVueQNjUWcCvlonBvBnFQDmxHkG0JrDB4KerQA1uSUDi75HBX2yHQMYt
NEAGGKHB9Ac7QIQoaEDHapLBkxLyQNQQLUA1b5fBGD3cQNXSwD/rJ7jBVGH3QAhyTkDjOsfBZd6H
QJ8zGkFnpqXBROPLQFnCzb+5C43Buc8tQPHsnsAbq5nBnwVjQLipT8DqjqbB85bAQD5TMMCYba7B
xPTcQLVRg7/etrrBJx0CQRRf80ChAbzBSSScQKKgoj4XD5jBA4SzQMvlpkDyVKTBar/tQGqwuEAL
QMPBOZSTQNkd4kAziqjBC5JpQBgdocBtQ4fBYFf8QKDqIEFtuLnBQiOVQH61dkCTCYPBLKjFQA0+
OUAdeILBqqjGQAJ5kkAZfYfBmiJeQHITL0BQPqbB1/kEQG81aEA8s5bBpyg6QM7xekAyxYrB

>  <OMEGA_E>  (13) 
BKEJP5DBCj8A1Co/lHYrP8BPOz/YIUA/

>  <OMEGA_NBR>  (13) 
      7548

$$$$
50093272
     RDKit          3D

 53 58  0  0  1  0  0  0  0  0999 V2000
    5.3491   -4.2103  -17.9382 C   0  0  0  0  0  0  0  0  0  0  0  0
    5.8133   -3.2480  -18.8414 C   0  0  0  0  0  0  0  0  0  0  0  0
    6.0906   -1.7047  -21.4350 C   0  0  0  0  0  0  0  0  0  0  0  0
    6.5908   -0.7360  -22.3078 C   0  0  0  0  0  0  0  0  0  0  0  0
    6.2886    7.5911  -20.8979 C   0  0  0  0  0  0  0  0  0  0  0  0
    5.1329    0.0450  -20.0345 C   0  0  0  0  0  0  0  0  0  0  0  0
    5.8576    4.7324  -21.4854 C   0  0  0  0  0  0  0  0  0  0  0  0
    7.2441    5.0841  -23.4546 C   0  0  0  0  0  0  0  0  0  0  0  0
    6.3892    7.8934  -23.3008 C   0  0  0  0  0  0  0  0  0  0  0  0
    3.9826   -4.2232  -17.5919 C   0  0  0  0  0  0  0  0  0  0  0  0
    6.1820    8.9859  -20.7656 C   0  0  0  0  0  0  0  0  0  0  0  0
    5.3630   -1.3113  -20.2993 C   0  0  0  0  0  0  0  0  0  0  0  0
    4.8970   -2.3173  -19.3594 C   0  0  0  0  0  0  0  0  0  0  0  0
    6.3915    7.0363  -22.1891 C   0  0  0  0  0  0  0  0  0  0  0  0
    6.4939    5.5986  -22.3822 C   0  0  0  0  0  0  0  0  0  0  0  0
    5.6526    1.0240  -20.8957 C   0  0  0  0  0  0  0  0  0  0  0  0
    6.0044    3.3480  -21.6253 C   0  0  0  0  0  0  0  0  0  0  0  0
    6.3968    0.6272  -22.0393 C   0  0  0  0  0  0  0  0  0  0  0  0
    6.7672    2.8273  -22.7038 C   0  0  0  0  0  0  0  0  0  0  0  0
    7.3643    3.7062  -23.6215 C   0  0  0  0  0  0  0  0  0  0  0  0
    6.2745    9.2751  -23.0978 C   0  0  0  0  0  0  0  0  0  0  0  0
    3.5381   -2.3771  -18.9713 C   0  0  0  0  0  0  0  0  0  0  0  0
    6.3207    2.7562  -19.2534 C   0  0  0  0  0  0  0  0  0  0  0  0
    4.1119    3.1932  -18.8578 C   0  0  0  0  0  0  0  0  0  0  0  0
    5.5221    2.4698  -20.5074 C   0  0  2  0  0  0  0  0  0  0  0  0
    5.7361    3.6090  -16.9625 C   0  0  0  0  0  0  0  0  0  0  0  0
    3.1078   -3.3238  -18.1060 N   0  0  0  0  0  0  0  0  0  0  0  0
    6.1741    9.7989  -21.8507 N   0  0  0  0  0  0  0  0  0  0  0  0
    5.3851    3.0618  -18.2796 N   0  0  0  0  0  0  0  0  0  0  0  0
    4.1390    2.7948  -20.1117 N   0  0  0  0  0  0  0  0  0  0  0  0
    2.9891    3.6880  -18.2124 N   0  0  0  0  0  0  0  0  0  0  0  0
    7.5424    2.7841  -19.1510 O   0  0  0  0  0  0  0  0  0  0  0  0
    7.0056    1.4890  -22.9214 O   0  0  0  0  0  0  0  0  0  0  0  0
    8.0892    3.2274  -24.6578 F   0  0  0  0  0  0  0  0  0  0  0  0
    6.2485   10.0908  -24.1746 F   0  0  0  0  0  0  0  0  0  0  0  0
    2.6348   -1.5171  -19.5039 F   0  0  0  0  0  0  0  0  0  0  0  0
    6.0285   -4.9335  -17.5119 H   0  0  0  0  0  0  0  0  0  0  0  0
    6.8526   -3.2212  -19.1339 H   0  0  0  0  0  0  0  0  0  0  0  0
    6.2624   -2.7525  -21.6324 H   0  0  0  0  0  0  0  0  0  0  0  0
    7.1295   -1.0378  -23.1938 H   0  0  0  0  0  0  0  0  0  0  0  0
    6.2916    6.9552  -20.0250 H   0  0  0  0  0  0  0  0  0  0  0  0
    4.5565    0.3369  -19.1691 H   0  0  0  0  0  0  0  0  0  0  0  0
    5.2531    5.1329  -20.6851 H   0  0  0  0  0  0  0  0  0  0  0  0
    7.7267    5.7566  -24.1483 H   0  0  0  0  0  0  0  0  0  0  0  0
    6.4748    7.4929  -24.3002 H   0  0  0  0  0  0  0  0  0  0  0  0
    3.6230   -4.9692  -16.8987 H   0  0  0  0  0  0  0  0  0  0  0  0
    6.1048    9.4193  -19.7794 H   0  0  0  0  0  0  0  0  0  0  0  0
    4.8202    3.7648  -16.3736 H   0  0  0  0  0  0  0  0  0  0  0  0
    6.3948    2.9027  -16.4359 H   0  0  0  0  0  0  0  0  0  0  0  0
    6.2567    4.5694  -17.0915 H   0  0  0  0  0  0  0  0  0  0  0  0
    3.3397    2.7231  -20.7084 H   0  0  0  0  0  0  0  0  0  0  0  0
    2.1215    3.7613  -18.7041 H   0  0  0  0  0  0  0  0  0  0  0  0
    3.0470    3.9715  -17.2552 H   0  0  0  0  0  0  0  0  0  0  0  0
  1  2  2  0
  1 10  1  0
  2 13  1  0
  3  4  2  0
  3 12  1  0
  4 18  1  0
  5 11  2  0
  5 14  1  0
  6 12  2  0
  6 16  1  0
  7 15  2  0
  7 17  1  0
  8 15  1  0
  8 20  2  0
  9 14  2  0
  9 21  1  0
 10 27  2  0
 11 28  1  0
 12 13  1  0
 13 22  2  0
 14 15  1  0
 16 18  2  0
 16 25  1  0
 17 19  2  0
 17 25  1  0
 18 33  1  0
 19 20  1  0
 19 33  1  0
 20 34  1  0
 21 28  2  0
 21 35  1  0
 22 27  1  0
 22 36  1  0
 25 23  1  1
 23 29  1  0
 23 32  2  0
 24 29  1  0
 24 30  2  0
 24 31  1  0
 25 30  1  0
 26 29  1  0
  1 37  1  0
  2 38  1  0
  3 39  1  0
  4 40  1  0
  5 41  1  0
  6 42  1  0
  7 43  1  0
  8 44  1  0
  9 45  1  0
 10 46  1  0
 11 47  1  0
 26 48  1  0
 26 49  1  0
 26 50  1  0
 30 51  1  0
 31 52  1  0
 31 53  1  0
M  CHG  1  30   1
M  END
>  <OMEGA_C>  (14) 
6CurQGK6hsBsgY/Bgwa6QKzfT8Avu5bB9uXCQOsz2r/oeqvBqefSQD5qPL9mdrLBWDzJQBvq8kD3
LqfBkECkQKB1OD20RqDB3HG7QK9vl0Ar4qvBp8/nQJCwokAIo7vBbHTMQOuW/EAhaLrBVuN+QGYk
h8AyvIzBE9PFQG3GD0EAIKbBBJ6rQDbZp7/0ZKLBmLScQPxOFMAH4JrBPIfMQPoo4UBVg7HBx83P
QHkns0DDDrPB4eG0QGsSgz9rKqfBqiPAQEpFVkCIAK3B97LMQHCSID9oULDBgYzYQMLyNEBYobXB
KajrQM4xbUDu+LzB5cjIQNpmFEFMyLjBiHBiQOAiGMAmxZfBlUPKQFhmMEAJB5rBdpSDQKJdTEC8
3JbBRLWwQAISHkAqD6TBao63QOz5ZkAzs4fByOZGQMi4VMAm2ZDBdJLFQHvIHEFAzq7Bn1KsQLz0
Q0CUPJLB8XKEQNDeMkDd5KDBHE4/QPoHbED8spHB/FrxQHIuMkAoNZnB9S3gQGOXvj8cX7fBkW0B
QZyNTkAcQ8XBpfPHQP1zIUGHZcHBBKEoQOIuwr/8B5zBvenAQDPfncBuGIzBU0jbQFUoTsBGEpnB
imXIQGUpMMAgD63BJSXkQLfWhL//jLnBFFXJQL6Q3kAzM6DBj86RQNp/rD5TWpnByhmoQM9ApEAO
e6XBfEH3QOQ1uEClL8HBXTHPQAvG70DHZsLBed9nQBYEn8CXMIfBY1rDQJW1FkE+PJ7BFT+aQAby
cEAj/YLBR6LMQGjGOUCtfIPBCjfIQH04kkBku4jBAL5VQA9HLkC+qqXB38UHQIa5cEDqoZXBaQFD
QN4tfkCfCorBwFepQHcChsBIZY/BBpu4QIjrTsDEoZbBGpvCQDTp2L/3UavBexTTQOU0PL/ST7LB
5YLOQETP/EArDLvBVTakQPBpkz2bPKDBFzK8QLfjl0CFSazBjKDoQPkfokDZE7zBX6fKQDw980C1
06fBLj97QB7PhcDLnozB9mjLQFmSFEFuZrnBCierQAj/pL8QTKLBTribQA57EsA1xprBHunNQMxa
4UAIIrLB77TQQIAvs0Crj7PBtEe1QISKhT9GJafBdbrAQPr8VkBsPa3BuiPNQN+dIT+CP7DBtCXZ
QPyTNEBbzLXBHE7sQPjba0CVP73BJ8XHQNnuD0GKwabBgm5gQNEOFcBGp5fB4gLLQHtZM0B0MZrB
uM+DQPP7R0DGuJbBYFKxQOjfH0A+LKTBCxC4QPD6Z0DQxIfBlhJEQF5EUcDgupDB7BHIQMryHEFg
b6/B1RqtQB2VREAITpLBGCaFQPZeNUDl/KDB+Ko9QOYyXECpIZHB5hLyQPsuOEDsfJnBRtzgQMJ9
vT/zW7fBXsIBQSkPTECyd8XBzfbEQGKGGEEw25zB3WQnQCj/ub9g3pvBJsW+QEZvncAy+4vB+tvZ
QHo3TsC0+5jBnN/HQEasL8DI16zBt33kQIr4hb/WWLnB4FDRQGb770AmCsPBOcGRQFtAvz6OV5nB
H92oQKYjpUD676XBQyT4QJxAt0BftcHBsWDKQM7n3kBN16DBAJRjQAyFncD+EofBNLHLQCAtH0Gv
OMDBl8CaQPOwb0D3/YLBnxDOQOojPECLoIPBC5fHQNpPk0DOy4jBFtVXQDa/NUBh6KXBG0cFQP1R
XUCT6ZTBartAQECnaUDUUYnBtPlKQBuzUcAu5o/BA81jQC7/EMC7/JbBQ2S+QKx12L9QMazBBmnP
QO98Or8JALPB2rfwQOc5+0DBFrXBXPmiQBAudT1Rb6DBM/m9QLHblkAs3avBzlTpQPiJoUDNy7vB
Kd6uQEn88UAGHKvBwB2DQOURicCBJY3BNoHuQOCOE0E/z7LBhTmpQODxpb+oyKLBgJWbQCN9E8BI
LJvBKkjQQF4l4EBtN7HBFP/RQEdRskDHIbPBfGe0QABthD8YNqfBYWbBQAeGVUB4CK3Byo7LQCvR
ID+LeLDBw9vZQBeCM0CkmLXBLIftQFPWakDJ77zBUx6vQEbzDkFi9KjBsz64QCqhVMDP5ZfBr07K
QA8YMkAX+pnBjkGDQBXDTUA79JbB/AWxQL3sHkArEaTB4tK2QMV+a0CRu4fBpIurQAY+icCMDpHB
pFXOQKPWG0GL1azBfd6sQAekU0Cc05LBCKmEQKLzNUB7DqHB6aE8QIdHYkATW5HBGmDxQAnQM0AC
HZnBGKXgQLwYvD8mU7fBcK0CQTlAS0CSD8XB1XGPQKZEF0FT4qLB4pPhQHMTVMDPOpvBei4LQMBL
UsD6kozBSAM4QNf0vL9hLpnBPW3BQIRRL8DmIK7BQpzfQEmxg79xPrrB13EFQflw7kA8vbnBWN2Q
QP4YtD7RdJnB0LqrQEX7o0DWTKXBc/D3QCTQtkD8isHBmleVQHr63UDkH6jBnppyQGNLosAuxofB
8H0DQXcXHkGV4rXBAdSZQOYtgkBg1IPBX1LCQCTbMkAnXoPBgcnPQFiQjkCCsYfBfuVWQB+/M0C7
+aXBLrsDQNyMX0B2AJXBGUlAQNvLc0DArInB2ZWcQAxRVMDxcojBRymsQGV/FcDwdo/BNCa+QDEt
2r92WKvBB6/NQLviP7/SkbLBHL3qQAm5/kAogrjBIuWpQOIppj0yDp/B17XBQNq9mUCy/qvBOhni
QIPsoUD5mb3BheKrQNyS9kCIYa3BDPp5QE7yhsAbE4zBL37mQOmwFUGicLfB0j2sQGhHpb/RjqHB
/gKcQB/AEsC0+JnB/v7MQMmS40AcZbPBBFLQQHCDtEBTVrTB/bO4QHfAhj8/Z6bBhZnEQLV4WUDR
1qzBqA7LQN5dID+4PLDB3JnWQEXPNECYOLbBTDPlQDasakD8gr7BbYOpQJG8EUGzqKzBa2h4QKRi
TsADGp3BhUDMQAbJNkDkS5nBCKOEQGG7U0BZHZfBwKG0QH7zIUA7pKPBE0e1QFoxbEA6EIfBQKda
QGgMhcBbLZbBtW/GQO17HkEen7HBuYCtQHM6WEBVa5LBlMOHQI5vN0CKBKHBIas8QPrCakA2OpLB
nIfyQIE5LUCsfZfB8E7bQCC6uz+ZBrjB9EH2QBRoSECbgsfBg4+JQOW5GkF866bB8UtWQMvjSsD4
D6fB2qWoQCuHWMCWXoDB3BDEQNRQ0L+j2ozBrum/QLpaMMCeSK3BAtjbQCA7ib9FBLrBzkECQcJe
8UBxMr3BgbGcQJpsyT62eJfB2SW0QFncp0D836TB0l7tQJsetkCCBcTBFoWUQJDV4kDlW6nB6PVh
QPAWn8CYq4bBilL9QOIKIEGRWbvBStOXQAnhgkC/dIPBVeS+QHWWMUAs0oLBoO7OQPIQjkAjb4bB
dEdeQEtUMUDHEabBV6AFQClPZkBrRZbBWaU8QJ7Ef0Csq4rBEAleQCmvh8AuKJfBtYp7QJNtUcCF
Zp7B7da+QKAv2r8lL6zBypTOQDjnOb+EL7PBzTTqQDsXAEF6eLfBu+mpQCypND3IoJ/BF2zBQHPR
mUCJnqvB23ziQMDJo0B7Fr3BQvqqQP6a9kCMjKzB5Q6AQFKfiMAatozB0pTlQBdaFkE1LLbBPsms
QCcxqb+YV6LBPdmcQKZYFsAi8JrBNnjMQNxf5ECSlLLBpy/QQBdutUB3xbPBd+u4QLvwhD/tvabB
XazEQJfVWUCbtKzB8cnLQGSZJD82mLDBQzfXQCkXN0DSIrbBjfblQP+gbkBAPL7BvjyoQCy1EUGT
l6vBA7asQHraG8BtV5DB06PLQHGrM0DjPpnBjNuDQCZsT0DOKpfBYn+0QBt5IEAMtqPB/cCzQMeV
ZUA57YbBqEueQBWYWMCNfonBwinFQADGHkGrV7DBCoSsQIyMU0BAW5LB43eHQL37NEDWI6HBLpY6
QFohZUBrUJLBi+DxQHRSKkD6XpfB/lPcQDwRwT/1KrjBJob3QOU3TkDGR8fBneqHQF5UGkE/16XB
ms7LQIVZy78F/IzBTdItQIKFnsARjZnBfg1jQJkdT8CPeabBqpHAQJ3vL8A0V67BewjdQKY6g78R
qbrBPiICQblt80AxKrzBWiGcQP6Rqj6/DJjBwnWzQP8zp0CHdaTB49/tQGOguEB/XcPB/ZqTQP5Z
4kBhsajBTnxpQP58oMCkI4fBo2j8QBP0IEGC6bnB7ROWQBYufkAaVIPBUVu9QJRZKkBU0oLB+z3N
QILXikDEGIbB+iFeQFeJL0A1RabB8OYDQGYeYUCqcJbBkNQ5QOK+eEAhs4rB

>  <OMEGA_E>  (14) 
+BQKPwgBCz+sQyo/ut06PwTdPz8=

>  <OMEGA_NBR>  (14) 
     14792

$$$$
284494
     RDKit          3D

 53 58  0  0  1  0  0  0  0  0999 V2000
    5.8426    9.0059  -21.1325 C   0  0  0  0  0  0  0  0  0  0  0  0
    5.6725    7.6647  -21.4841 C   0  0  0  0  0  0  0  0  0  0  0  0
    7.2588    5.0391  -23.5433 C   0  0  0  0  0  0  0  0  0  0  0  0
    7.3662    3.6587  -23.6786 C   0  0  0  0  0  0  0  0  0  0  0  0
    5.5915   -3.3178  -19.0307 C   0  0  0  0  0  0  0  0  0  0  0  0
    5.9558    4.7466  -21.5073 C   0  0  0  0  0  0  0  0  0  0  0  0
    5.0180    0.0916  -20.0911 C   0  0  0  0  0  0  0  0  0  0  0  0
    5.9724   -1.6747  -21.4789 C   0  0  0  0  0  0  0  0  0  0  0  0
    3.4356   -2.2167  -18.9180 C   0  0  0  0  0  0  0  0  0  0  0  0
    7.0763    9.6326  -21.4002 C   0  0  0  0  0  0  0  0  0  0  0  0
    5.1128   -4.2778  -18.1259 C   0  0  0  0  0  0  0  0  0  0  0  0
    6.6186    5.5784  -22.4124 C   0  0  0  0  0  0  0  0  0  0  0  0
    6.7487    6.9864  -22.0877 C   0  0  0  0  0  0  0  0  0  0  0  0
    4.7397   -2.2746  -19.4325 C   0  0  0  0  0  0  0  0  0  0  0  0
    5.2226   -1.2701  -20.3616 C   0  0  0  0  0  0  0  0  0  0  0  0
    6.0394    3.3622  -21.6486 C   0  0  0  0  0  0  0  0  0  0  0  0
    5.6176    1.0600  -20.9127 C   0  0  0  0  0  0  0  0  0  0  0  0
    6.7986    2.8162  -22.7158 C   0  0  0  0  0  0  0  0  0  0  0  0
    6.3938    0.6442  -22.0305 C   0  0  0  0  0  0  0  0  0  0  0  0
    6.5431   -0.7183  -22.3155 C   0  0  0  0  0  0  0  0  0  0  0  0
    3.0133   -3.2255  -18.0338 C   0  0  0  0  0  0  0  0  0  0  0  0
    7.9831    7.6575  -22.2798 C   0  0  0  0  0  0  0  0  0  0  0  0
    6.3245    2.8041  -19.2680 C   0  0  0  0  0  0  0  0  0  0  0  0
    4.1116    3.2545  -18.8848 C   0  0  0  0  0  0  0  0  0  0  0  0
    5.5268    2.5133  -20.5248 C   0  0  1  0  0  0  0  0  0  0  0  0
    5.7283    3.6875  -16.9816 C   0  0  0  0  0  0  0  0  0  0  0  0
    8.1144    8.9610  -21.9552 N   0  0  0  0  0  0  0  0  0  0  0  0
    3.8460   -4.2254  -17.6505 N   0  0  0  0  0  0  0  0  0  0  0  0
    5.4147    3.3458  -18.3751 N   0  0  0  0  0  0  0  0  0  0  0  0
    4.1483    2.8880  -20.1484 N   0  0  0  0  0  0  0  0  0  0  0  0
    2.9585    3.5631  -18.1790 N   0  0  0  0  0  0  0  0  0  0  0  0
    7.5452    2.7869  -19.1547 O   0  0  0  0  0  0  0  0  0  0  0  0
    7.0667    1.4866  -22.8806 O   0  0  0  0  0  0  0  0  0  0  0  0
    7.2718   -1.1113  -23.3861 F   0  0  0  0  0  0  0  0  0  0  0  0
    1.7472   -3.2022  -17.5658 F   0  0  0  0  0  0  0  0  0  0  0  0
    9.0874    6.9874  -22.7015 F   0  0  0  0  0  0  0  0  0  0  0  0
    5.0402    9.5549  -20.6622 H   0  0  0  0  0  0  0  0  0  0  0  0
    4.7365    7.1594  -21.2971 H   0  0  0  0  0  0  0  0  0  0  0  0
    7.6642    5.6926  -24.3015 H   0  0  0  0  0  0  0  0  0  0  0  0
    7.8871    3.2376  -24.5258 H   0  0  0  0  0  0  0  0  0  0  0  0
    6.5998   -3.3797  -19.4127 H   0  0  0  0  0  0  0  0  0  0  0  0
    5.3801    5.1747  -20.7001 H   0  0  0  0  0  0  0  0  0  0  0  0
    4.4032    0.3931  -19.2559 H   0  0  0  0  0  0  0  0  0  0  0  0
    6.1062   -2.7256  -21.6886 H   0  0  0  0  0  0  0  0  0  0  0  0
    2.7693   -1.4133  -19.1955 H   0  0  0  0  0  0  0  0  0  0  0  0
    7.1978   10.6776  -21.1562 H   0  0  0  0  0  0  0  0  0  0  0  0
    5.7673   -5.0737  -17.8025 H   0  0  0  0  0  0  0  0  0  0  0  0
    4.8325    4.0993  -16.4939 H   0  0  0  0  0  0  0  0  0  0  0  0
    6.0538    2.7830  -16.4468 H   0  0  0  0  0  0  0  0  0  0  0  0
    6.5341    4.4360  -16.9602 H   0  0  0  0  0  0  0  0  0  0  0  0
    3.3596    2.8665  -20.7628 H   0  0  0  0  0  0  0  0  0  0  0  0
    2.0677    3.5150  -18.6309 H   0  0  0  0  0  0  0  0  0  0  0  0
    3.0177    3.8337  -17.2182 H   0  0  0  0  0  0  0  0  0  0  0  0
  1  2  2  0
  1 10  1  0
  2 13  1  0
  3  4  2  0
  3 12  1  0
  4 18  1  0
  5 11  2  0
  5 14  1  0
  6 12  2  0
  6 16  1  0
  7 15  2  0
  7 17  1  0
  8 15  1  0
  8 20  2  0
  9 14  2  0
  9 21  1  0
 10 27  2  0
 11 28  1  0
 12 13  1  0
 13 22  2  0
 14 15  1  0
 16 18  2  0
 16 25  1  0
 17 19  2  0
 17 25  1  0
 18 33  1  0
 19 20  1  0
 19 33  1  0
 20 34  1  0
 21 28  2  0
 21 35  1  0
 22 27  1  0
 22 36  1  0
 25 23  1  1
 23 29  1  0
 23 32  2  0
 24 29  1  0
 24 30  2  0
 24 31  1  0
 25 30  1  0
 26 29  1  0
  1 37  1  0
  2 38  1  0
  3 39  1  0
  4 40  1  0
  5 41  1  0
  6 42  1  0
  7 43  1  0
  8 44  1  0
  9 45  1  0
 10 46  1  0
 11 47  1  0
 26 48  1  0
 26 49  1  0
 26 50  1  0
 30 51  1  0
 31 52  1  0
 31 53  1  0
M  CHG  1  30   1
M  END
>  <OMEGA_C>  (15) 
9fa6QFgYEEFbD6nB24S1QDlF9UBq36vBz0foQEdAoUCsWLzB7rfrQFkoakDbbb3Bse2yQAlWVMDk
PpjBQJa+QH/kl0D9DqzBnJOgQGisuz2CuqDBTx6/QJhb1r+31KvBJuFbQN7eDcALWJfBwHDiQPse
GkGmM6vB45ujQOrjiMDNAZHBjMvTQEeCskCNTLPBF/XXQO+Q30CQs7DBy6uXQPCSEcDWdZvBbh+n
QFKRor+b5KLBgkLBQHEuV0BlMK3BCcOzQIauhz88TafBPI7ZQFc9NEDlubXB1JnMQH3nJD+APrDB
S2HRQNXgN78ihrLBLtlAQN1uTsBDRZDBfXX/QAkK9UAVPbLBmWLKQC12M0DFJJrB2ZGDQAFJUED8
E5fBpduwQDjZIEDDMqTBiE63QP//a0BI2ofBnNQBQWNgD0EppK/BgiR2QKw2h8A4NI3B30StQI0h
VkAsAJPBkr6EQGvVOEDcL6HBPlg9QDMJZEClbpHBj3LxQKRcMkDAPJnBwyLiQHJHvj9+C7fBS7Lo
QHg/jr+jFrvBMaTfPwPxTMC6hozB5mURQYqY30CrnLXBiUmhQMngGEEoTKXBIJGXQKEZ5UCLYKrB
CkH1QB8qtkCGacLBvmL8QDI0T0DrNMTBtzHTQFZMWMAkTZvB5imsQHSXpUC3maXBuOaMQEdIyT4l
DJrBsWXDQLFwLsBZgq3BojwxQL7ntL9TkJnBI1TmQHLXKkHuP6nB7Y24QLpbosCXa47BgKOaQFct
g0CB84PBwLjBQHkdMkD0koPBPxfRQAP0jUB9rofBpQNXQHd0N0A+GqbB7FUEQG71YEAoDJXBxiJB
QE1bdUDPvonBTYsFQeSXDUF2t6/BD7gBQVzu8EBpvLLBVfToQMDRoEAuWbzBVe/rQLdGaUAJb73B
5jyyQJVpVsDwQZjBIwW/QPPIl0AfFqzBP1+hQKjqwz3zhaDBafq/QPpW1r/SlKvByadcQPr/C8D9
NZfBgkfqQFUqGUH+m6rBm6qhQI9iisDpUJHBUCLUQK1WskBCYbPBQOjaQAcE30BKrrDB6RuYQD1C
EcBOQ5vBPDWoQGAZor8inaLBcBzBQB/+VkABPq3BD/2zQJLZhz8QNqfBA1fZQKu6M0Ctw7XBAKnM
QBFGJD/hKrDBUK7RQIN1OL8OYrLBzSo/QNFJTcAKapDBnjq7QIjb90DhbKvBgI7KQFEgNECnLprB
up+DQN3JT0B6A5fBCeKwQP0FIUDMMKTB1L+3QK+TbEC13IfB/IbDQLlXEEFdh6jB1SRyQM/jh8B/
ko3BU1ytQLkQVUAV8JLB9cKEQILeOEC7JKHBfYg9QAcsZEBDYpHB3ajxQH3jNEDtY5nBu/HhQDZf
vT+4CLfBR7foQDqfjr9h/rrB5BvcP07hScBAuIzBZoOTQG7950CDfqnBgNsUQZD4FEGORbHBQBEO
QaNG3kCGlLbBqo32QFyWtUAMXMLB85f8QGYBTkBbMcTBvJHSQP5+W8A8PpvB6RetQLubpUDTjqXB
2eeNQIxKzD4wz5nB0oHEQK13LsDPMa3BzMIzQK+Prb+kRpnB+CXwQJ2LKUH3R6jBlay1QEngpMAG
6o7BV96aQJp+gkDP3IPBKZbDQMLiM0CikIPBMJbQQDc7j0C03IfBVwFXQDXBN0CaDabBJZkEQLsF
YkAaB5XBg1BBQP8EdUA0ronBgl7dQMVJFUHmu7jBEXvdQARJ/kCJSrrBEVLvQMFcokBnTbvBsQDx
QIgrbED/r7zBjaNdQJ8tCMCLU5bBy668QMEQmUBauazB2+2gQK8gAz5ImaDBN4y+QHPi07/BoKvB
uJ+xQE4OVcAUVpjBQ83TQMh+HUHViK7BZoRCQPKkSMAmOI/BL2DVQFdJtEDANbPBisDUQAoU40CJ
i7HB4oyXQDcWD8C2CJvBjy+nQCeSnr9emqLBMQLBQH0vWUAQgq3Bi2WzQOMmiz/ga6fBSvPaQE/k
NUC1rrXBKdbLQH4oKT+AY7DBxmjQQMWCNb94g7LBh06iQBFIicCuHZHBR3HMQHf39UBzWKfBxyfK
QLspNUAsbZrBU2KDQPFiT0AcMpfBAXiwQBzZIkBod6TBSCa3QKNzaEDP64fBJ5TLQPd7EEG4IabB
f4l1QKEBhsBjvIzBtietQH72VkBTMZPBZ3yEQKS1OkDbZaHBl4M8QP8uXUCIX5HBD/TwQBK2LUBF
S5nBM3nhQOLkvz9LRrfBlB3nQJGIj78bH7vBPrC7QFy1qsB+iY7B+t3HQLYN3kBuW57BPovkQCT4
H0HcSL/BkyrkQPcI8UALGMLBJvcAQU0At0BFcMDBZbIBQZtgUUDcMMPB8KM0QOHbpL/MIJjBdjWm
QByRpkA/GKfB//eNQJYM4z6C1JnBkKrCQK1cLcDvOq3B0SXRQG5uW8BfyZvBov/SQJ6dLkFlYa3B
eqkDQPJXRMBdqovBuLuaQG6CgUCc7YPBqaTAQAqcLECL8IPB45HRQOVoi0Dcc4fBepNWQH4dO0As
VKbBPm0DQEKTV0DI65TBlQtAQD6+bEAyoInBPxrgQKmdD0GIUabBMxzgQEa38kDpi6fBVOvtQLRA
okCzxrvBXWDvQK/1a0BCGL3BCF5eQOfrB8DMVpbBjt3AQIhtmUD7AqzBR9mhQBhZBz7xdqDB07S+
QAWO07/3mKvBbSqyQAuFVMDBI5jBDkrVQMyYHEGNJq/BtbpCQIpFSMC6P4/BX4jWQELQs0B4PLPB
lMrVQOKx4UDMo7HB9yKYQIa2DsD67JrBVN6nQIAPnr8Af6LB7N3CQKvKWUAtLa3BM/WzQPyoiz/A
WKfBBm3aQFcaNkBJzbXB5kvLQKAWKj8dfrDBu8nPQC/bNL88nbLBIpiiQDryiMAc7ZDBV/bKQKZI
/UDnK7rBMT3KQLc5NECyI5rBX0qDQLvzTkBeQZfBwWOxQOIHI0DSUaTBRfq1QCsOaECtwIfBy9nK
QA4YFEGnyrjBabB1QNq2hcDIqYzBqcCsQMA+VkDfDJPBKUKFQAWhO0AJfaHBCmg7QOETXEABmJHB
jfXwQL/ULEAX25jBcKvfQLY3wD/RnbfBBXvlQIBRj7/4YbvBSe67QKJBqsDnOY7BRDa/QMLr7ECP
y8PBvUHoQFjBFkEVuJ7BbtfnQDH23UDx6aDBYKv+QIHwtkBwScHBkFgAQYm8UEC9wMPBoGc1QAqk
pL93OJjBYaGuQJBXp0CFjKXBf1OPQIJ85T5dn5nBiQjDQGY0LcD0KK3B2NLRQOHlWsAqg5vBm1LV
QDjGLUHsNa7BJ4YDQOANRMC5yovBS0yZQGlggUCn5IPBDDG/QApULEAhtIPBXl7QQIE2i0CTMYfB
yyVZQBdcPUAek6bBkOYCQJUEV0DtS5XBNLI9QIWaakDMzonBzjm0QOA8EEHfnqrBUUqyQCxt9EDQ
cazBTGHpQCUKoUCFFLzBt1TsQJHCaUA7Pb3BYnBdQLTKEMBYFpfBAa2/QIKvl0CvyavB4nCgQPh5
oT2xqKDBqAO/QKxi178DzKvBtxe0QOMrVcDJbpjBqczZQCdtG0EmXq3B8UxEQOP9UsB7HpDBHbrU
QPhZskDKDrPBWTnWQLr830BU7rDBHTuYQNTWEsDiY5vBjRWnQDYRpL9R1aLB4ajBQLXBVkA3Ca3B
52mzQPZOhj/eRafB/ZHZQG3JM0AQo7XBrBPMQKOmIj+PQLDBOhrRQC/qOb+KgLLBuMulQDIcisDM
UZHBgcb7QHzy90C4ELPBGDLKQM6mMUBeDZrBS1KDQLNyTkDK+JbBl8WwQF8YIEA6IaTBqpu3QA8p
b0A/CIjBAZX8QGhREUF+a7HBCNR6QD91icBKXI3BSlmsQI+gSUDebpLB57qEQOVnOEAQIaHB/2w9
QDlmaEDSmpHBakTxQIGzNUCVSpnBHjPhQNYUvT/xIrfBAoToQKw8j7/NDLvByDbBQDpNqcA3VI7B
20IQQZFU5ECILLbBXlCZQNmSGEGZJ6fBx96VQPxv4kB4darBQ9/2QB/0tUAjE8LBWBj9QPLWTkD+
AMTB09gxQKAlu79VFJnBwOatQPhcpUDaNqXBTuOMQILswT5u85nBzl3DQMTsLsBMe63BMzbUQP2R
V8Cpm5vBB+raQLyKLEE2NqzBiysEQIDmUsBf5YzB3TyaQCxwfEB/eYPB6LrLQIn7QUB0iIPB/EzJ
QNWVlUC6TInBU0BXQOYpOEAHF6bBI4IFQKNba0COepXBYoxAQEQneEBb3InBGvjJQOS1FEETNbjB
RmDLQNA9/UDn/LnBPHHtQJ4Lo0D0t7vB0wfvQIFqbUB+Gr3Bz7CyQFsZVsD7JZjBLanAQK58mUBh
8qvBgH2iQBpU/j0EcqDBNzW/QGn5079NoKvBgFFgQGkYCMDOPpbBKXHTQE+uHEFG663BOdqiQPCU
icDk5pDBR5vWQPZJtEB5DLPBOsDVQIRK4kAWYLHB2vuYQJF9D8BS4ZrBIKWoQBAjn7/1d6LBOMnC
QDbyWUCQLK3BeTG0QH4Ziz8mYKfBZVXaQNDNNkB/07XB7mHLQI2FKj+EjrDBJfLPQCKkNL8WrrLB
ah5EQB5ASMD7KY/B5i3fQB4q9EDRN6fBDznKQFukM0DfKZrBK0WDQMfDTkBbSpfBuGaxQDCkIkA5
WKTBUQu2QFBjZ0BNx4fBE+jdQAmCD0FEs6XB0oN2QGbshcDbmIzB1LysQGhmVUDvEJPBHTSFQKK0
OkDlgKHBmYU7QDo9XUDupZHBbObwQA+wK0Dq2ZjBBnvfQMxjwT8UtrfBUVzlQJzojr/IfrvB27vp
P0OkQsCX54rBQDvrQC632kAI8J7Bs7zBQNOEH0FzoL7Bu6PEQCUo8EAtzsHBcqv9QKvvt0BYR8HB
ISIAQR2zUkByzsPBVDXSQGFMXcCtk5vBWhGuQG8kp0Bsg6XBKyiQQMBp4D7dkJnBJpzDQGdcLcAf
Nq3BP9k3QHUSpL+XFpjBclXSQKC7LUFEjKzBhay2QFSEpMDxuI7Bg1eZQBbqgEDs5oPB93O/QATJ
K0CYuoPBPVPQQFIDi0BjPofBzeVYQEajO0BakqbBGvgCQLGqWECFWZXBdPg9QCpAbECb4InB5R3W
QP7mFUFAoLvBl2PcQG15/0Cs9LvBUUrpQCxdokDywrzB3+HvQKoUbEB0Mb3B7eGRQJhtZcAED57B
X9K/QK36mEBojqzBI86oQMBXrD30o5/Bg+DIQAOK2L/kS6rBI8qVQAi7AMBXYI/B5ay9QFrNHkHo
VrPBLySAQEW+kMAc7pbBj/TQQPENtUA8YbTBdwfKQHfv5EBy87PBf/6cQAJUE8AaRJrBj8SvQKc8
pb+EfaHBvenFQPUFWUDE+6zBf4W6QFtKhz9ug6bBs2feQG6gNUC2ZbXBZdPTQI5BJD8EXa/BT7va
QByXO79AJLHBz/SDQJXXP8AwsYjBy2+xQF0B+kAIyavBe2PCQPRXO0A6N5nBBiJzQHxFUEAQ6ZnB
SQyyQCWmIUBGRqTBTw6fQOi7ckB2V4jBBQesQA51EkG+rqvBHv5yQN4ph8BifozB/+OeQPusWkDC
vpPBdXqDQGkKMkAacqPBblwgQPgVZECMopbB11rnQIuiN0Ce9JXBhw7nQFM8vz/mp7bBq9nyQDDV
kb8cirnBvqh6QJuvLcDpf3zBE++dQLAd5UBgtaPB9/njQAsOIEHRssHB+jHvQFdw8UB3TMLBqub2
QCaWtkDe4sLBHVgBQTQ9UUBmnsPBQPCWQNUIdsCMWabBrXCtQHdLpkB3CqbBDLKVQF57yj7P4pjB
N17OQAF8L8BZxavBveOdQJwehb+LMIzB1+S4QJroL0GfFrPBEUVvQEcjsMCc2ZnB0ht+QP64hED8
BYbBVKmnQCaxOkAweIPBL5a2QOcBk0BWBYfBU81cQNmYJ0BqUqnBiGneP3GXW0CZpZvBrwcWQPbR
ekDgRI/B

>  <OMEGA_E>  (15) 
CHQlP+CCJT+wHSY/1CUmPyyLJj84Jyc/1F1SPw==

>  <OMEGA_NBR>  (15) 
     21283

$$$$
50168821
     RDKit          3D

 52 55  0  0  1  0  0  0  0  0999 V2000
    6.2602   -0.7120  -22.5451 C   0  0  0  0  0  0  0  0  0  0  0  0
    3.2294   -3.7396  -18.4356 C   0  0  0  0  0  0  0  0  0  0  0  0
    5.8442   -1.6966  -21.6318 C   0  0  0  0  0  0  0  0  0  0  0  0
    3.6053   -2.7689  -19.3774 C   0  0  0  0  0  0  0  0  0  0  0  0
    6.2016    0.6491  -22.1904 C   0  0  0  0  0  0  0  0  0  0  0  0
    5.1860    3.8895  -22.5851 C   0  0  0  0  0  0  0  0  0  0  0  0
    7.4654    3.8118  -21.7187 C   0  0  0  0  0  0  0  0  0  0  0  0
    5.6174    4.7062  -23.6399 C   0  0  0  0  0  0  0  0  0  0  0  0
    7.8934    4.6412  -22.7683 C   0  0  0  0  0  0  0  0  0  0  0  0
    5.3068    0.0411  -20.0026 C   0  0  0  0  0  0  0  0  0  0  0  0
    4.1994   -4.2460  -17.5445 C   0  0  0  0  0  0  0  0  0  0  0  0
    5.3672   -1.3170  -20.3616 C   0  0  0  0  0  0  0  0  0  0  0  0
    4.9429   -2.3355  -19.3989 C   0  0  0  0  0  0  0  0  0  0  0  0
    6.0966    3.4641  -21.5895 C   0  0  0  0  0  0  0  0  0  0  0  0
    5.7242    1.0406  -20.9084 C   0  0  0  0  0  0  0  0  0  0  0  0
    6.9714    5.1181  -23.7187 C   0  0  0  0  0  0  0  0  0  0  0  0
    5.8662   -2.8772  -18.4743 C   0  0  0  0  0  0  0  0  0  0  0  0
    6.3517    2.7655  -19.1618 C   0  0  0  0  0  0  0  0  0  0  0  0
    4.1334    3.2879  -18.8985 C   0  0  0  0  0  0  0  0  0  0  0  0
    5.6213    2.5134  -20.4822 C   0  0  1  0  0  0  0  0  0  0  0  0
    5.6538    3.6166  -16.8894 C   0  0  0  0  0  0  0  0  0  0  0  0
    6.5006    6.9783  -25.1906 C   0  0  0  0  0  0  0  0  0  0  0  0
    6.0263    7.9153  -24.0534 C   0  0  0  0  0  0  0  0  0  0  0  0
    5.4851   -3.8150  -17.5732 N   0  0  0  0  0  0  0  0  0  0  0  0
    5.4101    3.3333  -18.3139 N   0  0  0  0  0  0  0  0  0  0  0  0
    4.2176    2.8198  -20.1252 N   0  0  0  0  0  0  0  0  0  0  0  0
    2.9439    3.6754  -18.2914 N   0  0  0  0  0  0  0  0  0  0  0  0
    7.5122    2.4868  -18.8786 O   0  0  0  0  0  0  0  0  0  0  0  0
    7.4351    5.9758  -24.7033 O   0  0  0  0  0  0  0  0  0  0  0  0
    7.1543   -2.4565  -18.4803 F   0  0  0  0  0  0  0  0  0  0  0  0
    5.1406    8.8161  -24.5474 F   0  0  0  0  0  0  0  0  0  0  0  0
    6.6252   -1.0001  -23.5199 H   0  0  0  0  0  0  0  0  0  0  0  0
    2.2103   -4.0946  -18.3936 H   0  0  0  0  0  0  0  0  0  0  0  0
    5.8902   -2.7410  -21.9031 H   0  0  0  0  0  0  0  0  0  0  0  0
    2.8828   -2.3637  -20.0705 H   0  0  0  0  0  0  0  0  0  0  0  0
    6.5211    1.4014  -22.8963 H   0  0  0  0  0  0  0  0  0  0  0  0
    4.1517    3.5831  -22.5324 H   0  0  0  0  0  0  0  0  0  0  0  0
    8.1838    3.4362  -21.0051 H   0  0  0  0  0  0  0  0  0  0  0  0
    4.9146    5.0231  -24.3962 H   0  0  0  0  0  0  0  0  0  0  0  0
    8.9353    4.9144  -22.8464 H   0  0  0  0  0  0  0  0  0  0  0  0
    4.9384    0.3218  -19.0270 H   0  0  0  0  0  0  0  0  0  0  0  0
    3.9110   -4.9951  -16.8219 H   0  0  0  0  0  0  0  0  0  0  0  0
    4.7528    4.0641  -16.4446 H   0  0  0  0  0  0  0  0  0  0  0  0
    5.8948    2.6799  -16.3655 H   0  0  0  0  0  0  0  0  0  0  0  0
    6.4964    4.3174  -16.7940 H   0  0  0  0  0  0  0  0  0  0  0  0
    5.6259    6.4707  -25.6231 H   0  0  0  0  0  0  0  0  0  0  0  0
    6.9958    7.5807  -25.9664 H   0  0  0  0  0  0  0  0  0  0  0  0
    5.5421    7.3194  -23.2658 H   0  0  0  0  0  0  0  0  0  0  0  0
    6.8922    8.4465  -23.6314 H   0  0  0  0  0  0  0  0  0  0  0  0
    3.4366    2.6883  -20.7357 H   0  0  0  0  0  0  0  0  0  0  0  0
    2.0812    3.6062  -18.7922 H   0  0  0  0  0  0  0  0  0  0  0  0
    2.9513    4.0235  -17.3539 H   0  0  0  0  0  0  0  0  0  0  0  0
  1  3  2  0
  1  5  1  0
  2  4  2  0
  2 11  1  0
  3 12  1  0
  4 13  1  0
  5 15  2  0
  6  8  2  0
  6 14  1  0
  7  9  1  0
  7 14  2  0
  8 16  1  0
  9 16  2  0
 10 12  2  0
 10 15  1  0
 11 24  2  0
 12 13  1  0
 13 17  2  0
 20 14  1  6
 15 20  1  0
 16 29  1  0
 17 24  1  0
 17 30  1  0
 18 20  1  0
 18 25  1  0
 18 28  2  0
 19 25  1  0
 19 26  2  0
 19 27  1  0
 20 26  1  0
 21 25  1  0
 22 23  1  0
 22 29  1  0
 23 31  1  0
  1 32  1  0
  2 33  1  0
  3 34  1  0
  4 35  1  0
  5 36  1  0
  6 37  1  0
  7 38  1  0
  8 39  1  0
  9 40  1  0
 10 41  1  0
 11 42  1  0
 21 43  1  0
 21 44  1  0
 21 45  1  0
 22 46  1  0
 22 47  1  0
 23 48  1  0
 23 49  1  0
 26 50  1  0
 27 51  1  0
 27 52  1  0
M  CHG  1  26   1
M  END
>  <OMEGA_C>  (16) 
pFPIQJtENr9iXLTBAa9OQAFWb8AtfJPBmQO7QG8q2b/cDa3BwrxmQFA1McAEBZvBOHPGQGUrJj/4
hbHBV/OlQLjteEBdrrTB5uTuQH30c0Dsv63BvcGzQEOZlkCJHr3Bf5b8QHeElEBiJbbB/tCpQHM3
KD1eBaDBvWGGQHbfh8AWW4zB/b+rQBqUqL+c5KLBRSyeQOd4FcALMZvBPxfDQPGzXUBGt6zBeSy3
QAgyhT9SRKfBVhXfQBrHo0DMv73BBri7QPMjOMBky5PBxEDLQDf+MEBdS5nB50SEQItsUkAwMJfB
tuGzQEncIECh26PBVOy0QOR2Z0CMHYfBLwXQQFBO30BAhsnBs9fAQClK/UBzbcDBHoavQGEpdMD+
lYzBRh+tQHtVVUD3gpLB4PaGQFB3NEBPAKHBGWk8QI06a0C2VJLBOWTwQPYnH0BWB5fB8OvtQHA5
v0BhoMXBb/DkQOQ2HcCZ15PBdH+kQKIODUEbYcTBYQHUQNAEgL+0KLzBonUNQAAHg8AFJpPBHny8
QPRrL8B+Oa/BE4A4QHRGF8BQkKDBK63QQPhhsz+gK7fBedqEQAlSZUBBQrTBzvACQWfqW0BhCqjB
EESdQEK9oEBxK8PBCfcOQbVCnUB4xbbBQQeeQH+9pD43N5jBLk16QLfXn8BFk4bB1xaYQPsMgkCI
joPBi6K8QEuEK0By7ILBYeLPQOInikApWobBFwe0QAwQz0Ar/MzBkt3fQEmV8kAmu8/B1VixQMw4
6kBDILrBi4zcQPQkB0EHDb3B4vFbQK4MLECt4qXBoTEFQD7LZkBvVpbB9OE8QB/AgEDJ1IrB9j7G
QNIXQL8ntLPB2eWsQLejb8A1MIvB/lC5QHN02r9aHqzBkg67QOKFM8CRvpLBjt3EQDjNHj+7KLHB
5iilQHQGd0Bt37TBzoTuQCICckCMOK7BP6yyQK2blEADib3Bv+z7QFyCkkD517bBynKpQNJToT2a
ZZ/BV2uBQCMEhMBhIYvBcfGqQOQCpb+Z+KHBHTydQC68EcB2CJrBSK7CQETgXEBQ8KzBZ3a2QERr
hj8J7KbBKhXeQPlCoUBRbb7BsQ5kQHh0LMD9hpnBzODLQKgwNEBqaZnBezCFQJhWV0DRIpfBesKz
QCA6IkCP0qPBHvy2QMXnbkDuVYfBUdzOQC2120CwhcrBlKvAQD/R+kBSkMHBQOlJQPOfZsCCLZLB
eFquQBeFWkBuopLBNh6HQHo+N0DF2qDBCxs/QInZcUAfNpLBPxHxQHQXIkA/O5fBRK3sQEi1u0AJ
i8bBHfYpQMibC8Aic6DBmVSkQGvAC0F5lMXBsT/RQEipiL+pfbvBKQLDQF1yhcAJfYXBPWa6QBeJ
MMCtEK7BZyXcQBSlH8Cp9JLBxs7OQL3lrD+QBLfBn/+DQMszZEC2QLTBquACQT+2WkDVhqjB7eOb
QLtYnkAEj8PBHacOQSTYmkDFqLfBv0OeQBQPxz5om5fB1xVtQMA3m8A4VYXB+4SaQCVqhkDPwYPB
TrO+QMK4M0Bb+oLBpjHSQGaxjUDA1IbBXXKyQKVty0Dwv83BG3neQKci7kCH7NDBL3SxQPqZ6EC2
ELvBPsvcQHjwBUFgbr7BVI5bQJI8LkDHm6XBmVYHQPEMbUAjF5bBeb5AQFDbhECKyorB

>  <OMEGA_E>  (16) 
XodNP1DmNT8=

>  <OMEGA_NBR>  (16) 
     28166

$$$$
