CACHE3HI_1714_63
     RDKit          3D

 53 57  0  0  1  0  0  0  0  0999 V2000
  -47.1994  -29.7983    3.2156 C   0  0  0  0  0  0  0  0  0  0  0  0
  -46.6563  -32.9773    0.3703 C   0  0  0  0  0  0  0  0  0  0  0  0
  -48.5279  -29.7648    3.6529 C   0  0  0  0  0  0  0  0  0  0  0  0
  -46.9885  -31.6661    0.0344 C   0  0  0  0  0  0  0  0  0  0  0  0
  -46.3888  -29.1698    5.4311 C   0  0  0  0  0  0  0  0  0  0  0  0
  -46.1389  -29.5035    4.0974 C   0  0  0  0  0  0  0  0  0  0  0  0
  -45.7053  -33.5743   -0.4467 C   0  0  0  0  0  0  0  0  0  0  0  0
  -47.7068  -29.1477    5.8255 C   0  0  0  0  0  0  0  0  0  0  0  0
  -48.7503  -29.4343    4.9719 C   0  0  0  0  0  0  0  0  0  0  0  0
  -46.3679  -31.0636   -1.0566 C   0  0  0  0  0  0  0  0  0  0  0  0
  -45.1298  -32.9097   -1.5184 C   0  0  0  0  0  0  0  0  0  0  0  0
  -49.6416  -28.9841    6.9097 C   0  0  0  0  0  0  0  0  0  0  0  0
  -44.7569  -29.5476    3.6068 C   0  0  0  0  0  0  0  0  0  0  0  0
  -46.7213  -29.6792   -1.4076 C   0  0  0  0  0  0  0  0  0  0  0  0
  -42.3145  -28.9969    0.1043 C   0  0  0  0  0  0  0  0  0  0  0  0
  -42.1798  -29.1746    1.6155 C   0  0  0  0  0  0  0  0  0  0  0  0
  -43.5986  -28.3796   -0.4536 C   0  0  0  0  0  0  0  0  0  0  0  0
  -43.0111  -28.2311    2.4739 C   0  0  0  0  0  0  0  0  0  0  0  0
  -45.2867  -28.2936    1.4594 C   0  0  0  0  0  0  0  0  0  0  0  0
  -44.9088  -28.9392    0.1173 C   0  0  1  0  0  0  0  0  0  0  0  0
  -46.2145  -27.2118   -1.1039 C   0  0  0  0  0  0  0  0  0  0  0  0
  -45.4390  -31.6357   -1.8604 N   0  0  0  0  0  0  0  0  0  0  0  0
  -44.2334  -33.7304   -2.1429 N   0  0  0  0  0  0  0  0  0  0  0  0
  -44.2284  -34.8924   -1.4955 N   0  0  0  0  0  0  0  0  0  0  0  0
  -45.1073  -34.7980   -0.4817 N   0  0  0  0  0  0  0  0  0  0  0  0
  -48.2676  -28.8648    7.0423 N   0  0  0  0  0  0  0  0  0  0  0  0
  -44.3965  -28.6937    2.5540 N   0  0  0  0  0  0  0  0  0  0  0  0
  -45.9885  -28.6325   -0.8297 N   0  0  0  0  0  0  0  0  0  0  0  0
  -50.4742  -28.8061    7.7900 O   0  0  0  0  0  0  0  0  0  0  0  0
  -44.0119  -30.3542    4.1609 O   0  0  0  0  0  0  0  0  0  0  0  0
  -47.6432  -29.5394   -2.2098 O   0  0  0  0  0  0  0  0  0  0  0  0
  -49.9859  -29.3479    5.5949 O   0  0  0  0  0  0  0  0  0  0  0  0
  -46.9907  -30.0562    2.1797 H   0  0  0  0  0  0  0  0  0  0  0  0
  -47.1098  -33.4907    1.2083 H   0  0  0  0  0  0  0  0  0  0  0  0
  -49.3439  -29.9911    2.9767 H   0  0  0  0  0  0  0  0  0  0  0  0
  -47.7264  -31.1306    0.6249 H   0  0  0  0  0  0  0  0  0  0  0  0
  -45.5859  -28.9403    6.1225 H   0  0  0  0  0  0  0  0  0  0  0  0
  -41.4567  -28.3695   -0.2266 H   0  0  0  0  0  0  0  0  0  0  0  0
  -42.1302  -29.9752   -0.3959 H   0  0  0  0  0  0  0  0  0  0  0  0
  -42.4407  -30.2103    1.8573 H   0  0  0  0  0  0  0  0  0  0  0  0
  -41.1279  -29.0536    1.8955 H   0  0  0  0  0  0  0  0  0  0  0  0
  -43.5673  -27.2752   -0.3510 H   0  0  0  0  0  0  0  0  0  0  0  0
  -43.5940  -28.5674   -1.5467 H   0  0  0  0  0  0  0  0  0  0  0  0
  -42.5828  -28.1673    3.4665 H   0  0  0  0  0  0  0  0  0  0  0  0
  -43.0029  -27.2336    2.0489 H   0  0  0  0  0  0  0  0  0  0  0  0
  -45.2766  -27.2003    1.3890 H   0  0  0  0  0  0  0  0  0  0  0  0
  -46.3100  -28.5861    1.7209 H   0  0  0  0  0  0  0  0  0  0  0  0
  -44.8723  -29.9969    0.2034 H   0  0  0  0  0  0  0  0  0  0  0  0
  -46.9442  -26.7961   -0.4030 H   0  0  0  0  0  0  0  0  0  0  0  0
  -45.2784  -26.6547   -1.0073 H   0  0  0  0  0  0  0  0  0  0  0  0
  -46.5907  -27.0789   -2.1220 H   0  0  0  0  0  0  0  0  0  0  0  0
  -45.2409  -35.5942    0.1301 H   0  0  0  0  0  0  0  0  0  0  0  0
  -47.7592  -28.6149    7.8813 H   0  0  0  0  0  0  0  0  0  0  0  0
  1  3  2  0
  1  6  1  0
  2  4  2  0
  2  7  1  0
  3  9  1  0
  4 10  1  0
  5  6  2  0
  5  8  1  0
  6 13  1  0
  7 11  2  0
  7 25  1  0
  8  9  2  0
  8 26  1  0
  9 32  1  0
 10 14  1  0
 10 22  2  0
 11 22  1  0
 11 23  1  0
 12 26  1  0
 12 29  2  0
 12 32  1  0
 13 27  1  0
 13 30  2  0
 14 28  1  0
 14 31  2  0
 15 16  1  0
 15 17  1  0
 16 18  1  0
 17 20  1  0
 18 27  1  0
 19 20  1  0
 19 27  1  0
 20 28  1  0
 21 28  1  0
 23 24  2  0
 24 25  1  0
  1 33  1  0
  2 34  1  0
  3 35  1  0
  4 36  1  0
  5 37  1  0
 15 38  1  0
 15 39  1  0
 16 40  1  0
 16 41  1  0
 17 42  1  0
 17 43  1  0
 18 44  1  0
 18 45  1  0
 19 46  1  0
 19 47  1  0
 20 48  1  1
 21 49  1  0
 21 50  1  0
 21 51  1  0
 25 52  1  0
 26 53  1  0
M  END
>  <POSIT::Probability>  (1) 
0.18

>  <POSIT::Method>  (1) 
HYBRID

>  <ReceptorTitle>  (1) 
UCSF-P4528-REFINED_LIGAND-BOUND-STATE_A__DU__LA1_A-201(A)

>  <OMEGA_C>  (1) 
PMw8wuRi7sHUzE1AFqA6wrXoA8IVk70+nhxCwjge7sHPyGlANvQ7wkZU/cFoAA09HY45wtdb6cHJ
y61ANY44wkEH7ME8HoNAP9I2wiFMBsIjsOS+xdM+wnIu6cFkarpATgBDwn1568EQGp9Asng5wkWC
+MENPoe/4YQ0woejA8LHW8K/+5BGwoLf58EjHN1AGAczwoxh7MGC1mZAo+I6whBv7cHHKrS/GUIp
wrb558HUptU9HrgowqNl6cHUyc4/82QuwlwJ48FrOei+XQsswmLZ4cGcVB5AmSU1wlFZ4sFCzbo/
kqIzwpWD58GUQ/A9qds4wrSx2cH1S42/gcE1wtoV/cGjIe6/+O4wwvXrBsIRJgnA6ukwwtWRC8KL
a7+/5200wjAxC8ITn/a++hFBwjDr5sG9WuFADZYxwryM5cFSdCNAN/Q3wlwP5cFaZFS/ieVJwtBy
5sGwR/lALwwwwlXV8sHCJYVAqpI+wsNQ7MFNbQ3AhfFHwnvI6sE8CbNAhPY7wiRz8MFzfwtAbXA8
wm/2BcK0qpo/J2BFwrTt78HWgT5Ayec+wnsL+cFu+h8/61c2wqaF58G468NAqdMlwsv04sFG/2e+
ToUowjrN78F7sMq+TMMpwpyu8cGBvO0/AIMkwrZt6MGpn/I/70QuwpYz2sEzubO+SWAuwvKJ5MHz
+sW/vlQqwohW4cHh211A9QIswlfe2cG+IQNAPxs1wkia2cELyrE/Zz05wj+w5MHZRdw/O30zwr35
78EaSVA+0sY7wnxe1sEDUc6+Cx01wtI81cGB74C/2lw6wp2h2MFJzwfAuvY0wnBgDsJaRAU+dQk/
wlHr5MH4M/xA

>  <OMEGA_E>  (1) 
xtD4wA==

>  <OMEGA_NBR>  (1) 
    169385

$$$$
CACHE3HI_1714_64
     RDKit          3D

 54 58  0  0  1  0  0  0  0  0999 V2000
  -48.4462  -29.4718    3.9038 C   0  0  0  0  0  0  0  0  0  0  0  0
  -47.1265  -29.6202    3.4627 C   0  0  0  0  0  0  0  0  0  0  0  0
  -46.9190  -32.6700    0.4244 C   0  0  0  0  0  0  0  0  0  0  0  0
  -47.1064  -31.3135    0.1657 C   0  0  0  0  0  0  0  0  0  0  0  0
  -49.8637  -28.9831    6.0386 C   0  0  0  0  0  0  0  0  0  0  0  0
  -46.2747  -29.2176    5.7018 C   0  0  0  0  0  0  0  0  0  0  0  0
  -49.4722  -28.7450    7.3357 C   0  0  0  0  0  0  0  0  0  0  0  0
  -48.6883  -29.1914    5.2636 C   0  0  0  0  0  0  0  0  0  0  0  0
  -46.0591  -29.4946    4.3492 C   0  0  0  0  0  0  0  0  0  0  0  0
  -46.0316  -33.3172   -0.4253 C   0  0  0  0  0  0  0  0  0  0  0  0
  -47.5994  -29.0712    6.1294 C   0  0  0  0  0  0  0  0  0  0  0  0
  -46.4170  -30.7186   -0.8876 C   0  0  0  0  0  0  0  0  0  0  0  0
  -45.3805  -32.6570   -1.4557 C   0  0  0  0  0  0  0  0  0  0  0  0
  -44.6864  -29.6582    3.8581 C   0  0  0  0  0  0  0  0  0  0  0  0
  -46.6175  -29.2862   -1.1571 C   0  0  0  0  0  0  0  0  0  0  0  0
  -42.1740  -29.1701    0.3960 C   0  0  0  0  0  0  0  0  0  0  0  0
  -42.0699  -29.4489    1.8944 C   0  0  0  0  0  0  0  0  0  0  0  0
  -43.3805  -28.3871   -0.1258 C   0  0  0  0  0  0  0  0  0  0  0  0
  -42.8015  -28.4731    2.8058 C   0  0  0  0  0  0  0  0  0  0  0  0
  -45.0634  -28.2318    1.7874 C   0  0  0  0  0  0  0  0  0  0  0  0
  -44.7471  -28.8351    0.4101 C   0  0  1  0  0  0  0  0  0  0  0  0
  -45.8515  -26.9093   -0.7089 C   0  0  0  0  0  0  0  0  0  0  0  0
  -45.5489  -31.3394   -1.7227 N   0  0  0  0  0  0  0  0  0  0  0  0
  -44.5727  -33.5315   -2.1265 N   0  0  0  0  0  0  0  0  0  0  0  0
  -44.6969  -34.7229   -1.5482 N   0  0  0  0  0  0  0  0  0  0  0  0
  -48.1046  -28.8003    7.3810 N   0  0  0  0  0  0  0  0  0  0  0  0
  -45.5679  -34.5939   -0.5314 N   0  0  0  0  0  0  0  0  0  0  0  0
  -44.2290  -28.7882    2.8574 N   0  0  0  0  0  0  0  0  0  0  0  0
  -45.7810  -28.3596   -0.5182 N   0  0  0  0  0  0  0  0  0  0  0  0
  -44.0360  -30.5709    4.3646 O   0  0  0  0  0  0  0  0  0  0  0  0
  -47.5134  -29.0019   -1.9506 O   0  0  0  0  0  0  0  0  0  0  0  0
  -49.2688  -29.5725    3.2016 H   0  0  0  0  0  0  0  0  0  0  0  0
  -46.9464  -29.8370    2.4123 H   0  0  0  0  0  0  0  0  0  0  0  0
  -47.4308  -33.1796    1.2305 H   0  0  0  0  0  0  0  0  0  0  0  0
  -47.7868  -30.7371    0.7859 H   0  0  0  0  0  0  0  0  0  0  0  0
  -50.8858  -29.0049    5.6862 H   0  0  0  0  0  0  0  0  0  0  0  0
  -45.4496  -29.1185    6.4005 H   0  0  0  0  0  0  0  0  0  0  0  0
  -50.0443  -28.5413    8.2299 H   0  0  0  0  0  0  0  0  0  0  0  0
  -41.2515  -28.6203    0.1033 H   0  0  0  0  0  0  0  0  0  0  0  0
  -42.0919  -30.1318   -0.1605 H   0  0  0  0  0  0  0  0  0  0  0  0
  -42.4420  -30.4628    2.0748 H   0  0  0  0  0  0  0  0  0  0  0  0
  -41.0132  -29.4579    2.1819 H   0  0  0  0  0  0  0  0  0  0  0  0
  -43.2318  -27.3003    0.0413 H   0  0  0  0  0  0  0  0  0  0  0  0
  -43.3882  -28.5103   -1.2281 H   0  0  0  0  0  0  0  0  0  0  0  0
  -42.3759  -28.5134    3.8009 H   0  0  0  0  0  0  0  0  0  0  0  0
  -42.6834  -27.4592    2.4400 H   0  0  0  0  0  0  0  0  0  0  0  0
  -44.9357  -27.1437    1.7811 H   0  0  0  0  0  0  0  0  0  0  0  0
  -46.1139  -28.4274    2.0303 H   0  0  0  0  0  0  0  0  0  0  0  0
  -44.8248  -29.8938    0.4341 H   0  0  0  0  0  0  0  0  0  0  0  0
  -46.5375  -26.4592    0.0145 H   0  0  0  0  0  0  0  0  0  0  0  0
  -44.8618  -26.4625   -0.5790 H   0  0  0  0  0  0  0  0  0  0  0  0
  -46.2040  -26.6779   -1.7179 H   0  0  0  0  0  0  0  0  0  0  0  0
  -47.5466  -28.6619    8.2121 H   0  0  0  0  0  0  0  0  0  0  0  0
  -45.7904  -35.4053    0.0326 H   0  0  0  0  0  0  0  0  0  0  0  0
  1  2  2  0
  1  8  1  0
  2  9  1  0
  3  4  2  0
  3 10  1  0
  4 12  1  0
  5  7  2  0
  5  8  1  0
  6  9  2  0
  6 11  1  0
  7 26  1  0
  8 11  2  0
  9 14  1  0
 10 13  2  0
 10 27  1  0
 11 26  1  0
 12 15  1  0
 12 23  2  0
 13 23  1  0
 13 24  1  0
 14 28  1  0
 14 30  2  0
 15 29  1  0
 15 31  2  0
 16 17  1  0
 16 18  1  0
 17 19  1  0
 18 21  1  0
 19 28  1  0
 20 21  1  0
 20 28  1  0
 21 29  1  0
 22 29  1  0
 24 25  2  0
 25 27  1  0
  1 32  1  0
  2 33  1  0
  3 34  1  0
  4 35  1  0
  5 36  1  0
  6 37  1  0
  7 38  1  0
 16 39  1  0
 16 40  1  0
 17 41  1  0
 17 42  1  0
 18 43  1  0
 18 44  1  0
 19 45  1  0
 19 46  1  0
 20 47  1  0
 20 48  1  0
 21 49  1  1
 22 50  1  0
 22 51  1  0
 22 52  1  0
 26 53  1  0
 27 54  1  0
M  END
>  <POSIT::Probability>  (2) 
0.18

>  <POSIT::Method>  (2) 
HYBRID

>  <ReceptorTitle>  (2) 
UCSF-P4528-REFINED_LIGAND-BOUND-STATE_A__DU__LA1_A-201(A)

>  <OMEGA_C>  (2) 
7shBwjbG68Ge2HlAioE8wjb27MHMnF1ADa07whGuAsIgSdk+6mw8wgyC+sEgpSk+bHRHwnHd58H1
O8FAShk5wo296cHMdLZAf+NFwtn15cEtvupA2sBCwvaH6cEDb6hAkDw4wgj168GlLItAViA4ws5E
BcKgvdm+ymU+wuKR6MFxJMRA96o5wsG/9cFwOWO/mIU1wrugAsKQVbq/3b4ywhJE7cH66nZAX3g6
wjxK6sFkHZS/LbIowmlc6cEgxso+mEcowkeX68FwevI/nIUtwrkY48HA3QC+uzQrwvjI48GQkjNA
5EA0wrra4cH4x+Q/EP0ywk6u5sGg9tE+9Gc3wk9G18GgfDW/HTI2wg23+sGEgty/bkoywjYgBsJe
GAjAoMkywkzkCsL4K8a/JmtAwgxn5sFfMexAgkU2wiRgCsJwCwi/i+owwiZO5sGk3zZAth83wo7g
4sGYqwS/6iQwwk6R9MFnqotAtg0+wssD6MFwrvm/PhNFwoKU7MGC5kxAHMk7wjSy7sFSYhpALrk9
wu63BMLYgZ0/tyU/wpLl9cEQL0k/DotLwh0K6MEg9bVAbsw1wsry6MEc0cxAYS1IwoRU5MGUrQNB
kAElwk/25MFAe9M9Hl4owuEN8cGgUSS+m8QpwtKz88GEyQRAeg0kwtqp68HUowtAY+0swvhm2sGA
Cyk9iY0twjIV5ME8M52/7YApwosb5MF0QXNA0bsqwmSs28GsKRxAJ74zwkYm2cGU/OM/pHQ4wlVr
48Es8QFAmkwzwoYm78FAPt4+WiY6wois08EAaG08e3Izwk2z08FYPBS/3NA4wj5s1cFw49u/tC8+
wnxL5cHiZANBXik3wgyfDcIAaQU9

>  <OMEGA_E>  (2) 
u1sGwQ==

>  <OMEGA_NBR>  (2) 
    170972

$$$$
CACHE3HI_1714_65
     RDKit          3D

 54 58  0  0  1  0  0  0  0  0999 V2000
  -47.6069  -29.7709    3.5020 C   0  0  0  0  0  0  0  0  0  0  0  0
  -47.2074  -32.7318    0.4121 C   0  0  0  0  0  0  0  0  0  0  0  0
  -48.9477  -29.6600    3.8840 C   0  0  0  0  0  0  0  0  0  0  0  0
  -47.4135  -31.3730    0.1813 C   0  0  0  0  0  0  0  0  0  0  0  0
  -46.8426  -29.4054    5.7978 C   0  0  0  0  0  0  0  0  0  0  0  0
  -46.5655  -29.6450    4.4477 C   0  0  0  0  0  0  0  0  0  0  0  0
  -46.2746  -33.3381   -0.4190 C   0  0  0  0  0  0  0  0  0  0  0  0
  -49.1946  -29.4243    5.2171 C   0  0  0  0  0  0  0  0  0  0  0  0
  -48.1690  -29.3003    6.1497 C   0  0  0  0  0  0  0  0  0  0  0  0
  -46.6972  -30.7365   -0.8288 C   0  0  0  0  0  0  0  0  0  0  0  0
  -45.5989  -32.6377   -1.4062 C   0  0  0  0  0  0  0  0  0  0  0  0
  -50.1543  -29.0438    7.2606 C   0  0  0  0  0  0  0  0  0  0  0  0
  -45.1719  -29.7677    4.0060 C   0  0  0  0  0  0  0  0  0  0  0  0
  -46.9178  -29.3018   -1.0689 C   0  0  0  0  0  0  0  0  0  0  0  0
  -42.5402  -29.1370    0.6575 C   0  0  0  0  0  0  0  0  0  0  0  0
  -42.4874  -29.4533    2.1510 C   0  0  0  0  0  0  0  0  0  0  0  0
  -43.7423  -28.3650    0.1097 C   0  0  0  0  0  0  0  0  0  0  0  0
  -43.2738  -28.5171    3.0583 C   0  0  0  0  0  0  0  0  0  0  0  0
  -45.4998  -28.2947    1.9597 C   0  0  0  0  0  0  0  0  0  0  0  0
  -45.1185  -28.8547    0.5806 C   0  0  1  0  0  0  0  0  0  0  0  0
  -46.2201  -26.9226   -0.5303 C   0  0  0  0  0  0  0  0  0  0  0  0
  -45.7850  -31.3172   -1.6454 N   0  0  0  0  0  0  0  0  0  0  0  0
  -44.7477  -33.4775   -2.0674 N   0  0  0  0  0  0  0  0  0  0  0  0
  -44.8685  -34.6862   -1.5253 N   0  0  0  0  0  0  0  0  0  0  0  0
  -45.7802  -34.6019   -0.5400 N   0  0  0  0  0  0  0  0  0  0  0  0
  -50.4122  -29.2703    5.8789 N   0  0  0  0  0  0  0  0  0  0  0  0
  -48.7381  -29.0680    7.4017 N   0  0  0  0  0  0  0  0  0  0  0  0
  -44.6953  -28.8623    3.0465 N   0  0  0  0  0  0  0  0  0  0  0  0
  -46.1261  -28.3758   -0.3745 N   0  0  0  0  0  0  0  0  0  0  0  0
  -50.9798  -28.8653    8.1446 O   0  0  0  0  0  0  0  0  0  0  0  0
  -44.5221  -30.6802    4.5136 O   0  0  0  0  0  0  0  0  0  0  0  0
  -47.7886  -29.0147   -1.8889 O   0  0  0  0  0  0  0  0  0  0  0  0
  -47.3707  -29.9576    2.4565 H   0  0  0  0  0  0  0  0  0  0  0  0
  -47.7386  -33.2729    1.1844 H   0  0  0  0  0  0  0  0  0  0  0  0
  -49.7465  -29.7564    3.1585 H   0  0  0  0  0  0  0  0  0  0  0  0
  -48.1292  -30.8271    0.7894 H   0  0  0  0  0  0  0  0  0  0  0  0
  -46.0519  -29.3072    6.5331 H   0  0  0  0  0  0  0  0  0  0  0  0
  -41.6191  -28.5610    0.4149 H   0  0  0  0  0  0  0  0  0  0  0  0
  -42.4165  -30.0817    0.0800 H   0  0  0  0  0  0  0  0  0  0  0  0
  -42.8445  -30.4790    2.2908 H   0  0  0  0  0  0  0  0  0  0  0  0
  -41.4425  -29.4486    2.4789 H   0  0  0  0  0  0  0  0  0  0  0  0
  -43.6232  -27.2802    0.3103 H   0  0  0  0  0  0  0  0  0  0  0  0
  -43.7053  -28.4591   -0.9949 H   0  0  0  0  0  0  0  0  0  0  0  0
  -42.8858  -28.5752    4.0677 H   0  0  0  0  0  0  0  0  0  0  0  0
  -43.1635  -27.4916    2.7236 H   0  0  0  0  0  0  0  0  0  0  0  0
  -45.3952  -27.2044    1.9864 H   0  0  0  0  0  0  0  0  0  0  0  0
  -46.5545  -28.5179    2.1567 H   0  0  0  0  0  0  0  0  0  0  0  0
  -45.1745  -29.9150    0.5743 H   0  0  0  0  0  0  0  0  0  0  0  0
  -46.9426  -26.5059    0.1774 H   0  0  0  0  0  0  0  0  0  0  0  0
  -45.2458  -26.4595   -0.3508 H   0  0  0  0  0  0  0  0  0  0  0  0
  -46.5387  -26.6716   -1.5459 H   0  0  0  0  0  0  0  0  0  0  0  0
  -46.0068  -35.4323   -0.0061 H   0  0  0  0  0  0  0  0  0  0  0  0
  -51.3224  -29.3144    5.4374 H   0  0  0  0  0  0  0  0  0  0  0  0
  -48.2178  -28.9397    8.2608 H   0  0  0  0  0  0  0  0  0  0  0  0
  1  3  2  0
  1  6  1  0
  2  4  2  0
  2  7  1  0
  3  8  1  0
  4 10  1  0
  5  6  2  0
  5  9  1  0
  6 13  1  0
  7 11  2  0
  7 25  1  0
  8  9  2  0
  8 26  1  0
  9 27  1  0
 10 14  1  0
 10 22  2  0
 11 22  1  0
 11 23  1  0
 12 26  1  0
 12 27  1  0
 12 30  2  0
 13 28  1  0
 13 31  2  0
 14 29  1  0
 14 32  2  0
 15 16  1  0
 15 17  1  0
 16 18  1  0
 17 20  1  0
 18 28  1  0
 19 20  1  0
 19 28  1  0
 20 29  1  0
 21 29  1  0
 23 24  2  0
 24 25  1  0
  1 33  1  0
  2 34  1  0
  3 35  1  0
  4 36  1  0
  5 37  1  0
 15 38  1  0
 15 39  1  0
 16 40  1  0
 16 41  1  0
 17 42  1  0
 17 43  1  0
 18 44  1  0
 18 45  1  0
 19 46  1  0
 19 47  1  0
 20 48  1  1
 21 49  1  0
 21 50  1  0
 21 51  1  0
 25 52  1  0
 26 53  1  0
 27 54  1  0
M  END
>  <POSIT::Probability>  (3) 
0.14

>  <POSIT::Method>  (3) 
HYBRID

>  <ReceptorTitle>  (3) 
UCSF-P4528-REFINED_LIGAND-BOUND-STATE_A__DU__LA1_A-201(A)

>  <OMEGA_C>  (3) 
d20+wsEq7sGBIWBAV9Q8wlrtAsIg/NI+ecpDwqZH7cGGk3hAcac9wt37+sFgrzk+0147wlQ+68Fz
h7lAHkM6wgYp7cGgU45AOBk5wjZaBcIgh9a+QMdEwgpl68Ey8qZACa1AwvVm6sGcysRA+Mk6wmPk
9cEQLFS/OWU2wv6MAsK8/LO/Bp5IwrZZ6MEnV+hABLA0wjok7sFiMYBA1Ks7wihq6sGA0oi/LCkq
wqcY6cGkUSg/JvMpwmCg68GwqglAFfguwoTr4sFAl+A9ahgtwhUj5MHsu0NA1f81wodb4sHo1vo/
Y3k0wmjW5sEsohQ/Z+E4wo1h18Hwwwe/1iM3wo2J+sG8ndK/nf0ywvzoBcIYUQTAWXkzwrG+CsII
PcO/6B43wlFoCsIgPAq/IqZJwo4p6sEbILxAxfNCwjeL6MHR2uxA/8cywuvl5sE7+kJAHIE4wpgB
48GAu7++R+tLwibs5sFkUAJBnhYywgBx9cFYb5BAfSc/wgoe6MEgx/G/nns9wh6p78EVNx1AXvQ+
wnUXBcL4mpc/YPxGwiAN7sGiJEpAWYRAwgCe9sFYFUo/HDU4wiR16sF3D9FA/nkmwgB95MHYa9Q+
hqopwlun8MGA06M9x2ArwgDV88EJnBJAGsUlwr6W68E/ph5AMH4uwuw92sFg5Z4+RNIuwjis48HQ
sX6/BYsrwhKa5MH7KoJAZacswuHu28FAUC5AqZQ1wrGi2cH8Q/4/zDc6wrQk5MHdBwpAvLI0wvJR
78EwBBM/L8U7whUM1MFgnjU+sfs0whKt08FQmrO+mic6woBf1cHI3sW/6wY4wre6DcIA/Me7GUpN
wuSD6sGV/61A/95AwmyE58E5LARB

>  <OMEGA_E>  (3) 
8icAwQ==

>  <OMEGA_NBR>  (3) 
    172561

$$$$
