CACHE3-HO_1706_11
     RDKit          3D

 33 35  0  0  0  0  0  0  0  0999 V2000
  -48.8151  -28.6068    5.5861 C   0  0  0  0  0  0  0  0  0  0  0  0
  -44.4047  -29.7150    5.5279 C   0  0  0  0  0  0  0  0  0  0  0  0
  -46.8677  -29.1493    4.5037 C   0  0  0  0  0  0  0  0  0  0  0  0
  -48.3114  -28.8457    4.3255 C   0  0  0  0  0  0  0  0  0  0  0  0
  -46.6218  -29.1088    5.8834 C   0  0  0  0  0  0  0  0  0  0  0  0
  -45.7827  -29.4466    3.6429 C   0  0  0  0  0  0  0  0  0  0  0  0
  -49.1708  -28.8129    3.1159 C   0  0  0  0  0  0  0  0  0  0  0  0
  -42.5836  -30.0092    0.7711 C   0  0  0  0  0  0  0  0  0  0  0  0
  -43.0685  -31.3373    1.3561 C   0  0  0  0  0  0  0  0  0  0  0  0
  -43.6170  -28.9917    1.2541 C   0  0  0  0  0  0  0  0  0  0  0  0
  -44.6006  -31.2704    1.2799 C   0  0  0  0  0  0  0  0  0  0  0  0
  -44.9544  -29.7675    1.2173 C   0  0  0  0  0  0  0  0  0  0  0  0
  -45.4001  -29.3793    6.3811 N   0  0  0  0  0  0  0  0  0  0  0  0
  -44.5762  -29.7518    4.1832 N   0  0  0  0  0  0  0  0  0  0  0  0
  -47.7988  -28.7578    6.5165 N   0  0  0  0  0  0  0  0  0  0  0  0
  -50.5292  -28.5889    3.2512 N   0  0  0  0  0  0  0  0  0  0  0  0
  -45.9434  -29.3658    2.2566 N   0  0  0  0  0  0  0  0  0  0  0  0
  -48.7276  -29.0058    1.9928 O   0  0  0  0  0  0  0  0  0  0  0  0
  -49.8378  -28.3439    5.8126 H   0  0  0  0  0  0  0  0  0  0  0  0
  -43.4353  -29.9634    5.9341 H   0  0  0  0  0  0  0  0  0  0  0  0
  -41.5816  -29.7582    1.1494 H   0  0  0  0  0  0  0  0  0  0  0  0
  -42.5606  -30.0513   -0.3278 H   0  0  0  0  0  0  0  0  0  0  0  0
  -42.6887  -32.1823    0.7631 H   0  0  0  0  0  0  0  0  0  0  0  0
  -42.7377  -31.4436    2.3997 H   0  0  0  0  0  0  0  0  0  0  0  0
  -43.3875  -28.6571    2.2765 H   0  0  0  0  0  0  0  0  0  0  0  0
  -43.6516  -28.1212    0.5825 H   0  0  0  0  0  0  0  0  0  0  0  0
  -44.9621  -31.7868    0.3785 H   0  0  0  0  0  0  0  0  0  0  0  0
  -45.0489  -31.7325    2.1719 H   0  0  0  0  0  0  0  0  0  0  0  0
  -45.4084  -29.5827    0.2326 H   0  0  0  0  0  0  0  0  0  0  0  0
  -47.9024  -28.6310    7.5030 H   0  0  0  0  0  0  0  0  0  0  0  0
  -51.1187  -28.5879    2.4435 H   0  0  0  0  0  0  0  0  0  0  0  0
  -50.9216  -28.4280    4.1568 H   0  0  0  0  0  0  0  0  0  0  0  0
  -46.7601  -29.9081    2.0592 H   0  0  0  0  0  0  0  0  0  0  0  0
  1  4  2  0
  1 15  1  0
  2 13  2  0
  2 14  1  0
  3  4  1  0
  3  5  2  0
  3  6  1  0
  4  7  1  0
  5 13  1  0
  5 15  1  0
  6 14  2  0
  6 17  1  0
  7 16  1  0
  7 18  2  0
  8  9  1  0
  8 10  1  0
  9 11  1  0
 10 12  1  0
 11 12  1  0
 12 17  1  0
  1 19  1  0
  2 20  1  0
  8 21  1  0
  8 22  1  0
  9 23  1  0
  9 24  1  0
 10 25  1  0
 10 26  1  0
 11 27  1  0
 11 28  1  0
 12 29  1  0
 15 30  1  0
 16 31  1  0
 16 32  1  0
 17 33  1  0
M  END
>  <POSIT::Probability>  (1) 
0.94

>  <POSIT::Method>  (1) 
SHAPEFIT

>  <ReceptorTitle>  (1) 
UCSF-P4508-REFINED_LIGAND-BOUND-STATE_AALTB__DU__LA1_A-201(A)

>  <OMEGA_C>  (1) 
oEJDwqXa5MEowbJAcZ4xwka47cHZ5LBAkng7wrsx6cGjHpBA1j5BwhbE5sFoaopAvHw6wtHe6MH1
RLxAcSE3wqSS68EYJWlA7K5EwtyA5sEGa0dAk1UqwsoS8MH6Z0U/KUYswrKy+sFHk60/xXcuwgvv
58EvhqA/AGcywr8p+sGv1KM/R9EzwtMj7sET0Js/rJk1wsAI68EMMsxACE4ywq0D7sG23IVA8zE/
wuoP5sEnh9BA5R1KwhO25MFUFFBAEMY3whDt6sGEaxBAB+lCwuYL6MEnE/8/7FlHwl/A4sGuALpA
yr0twh2178EO5L1Ak1MmwsYQ7sGTH5M/Gz4qwiBp8MEE2qe+L8EqwrO6AMJxXEM/cfMqwm+M+8Fj
lRlAw4wtwq5B5cFmshFASpsuwlD44MESHRU/Ndkzwl1L/sHkx8E+CDI0whnc/cGh/wpANaI1wkyp
7MGuI24+B5w/wloM5cGoGPBAjHlMwv2z5MHtYRxAv69LwoNs48HKBIVAVgo7wrZD78E2ygNA

>  <OMEGA_E>  (1) 
EHVBPg==

>  <OMEGA_NBR>  (1) 
      4971

$$$$
CACHE3-HO_1706_2
     RDKit          3D

 42 44  0  0  0  0  0  0  0  0999 V2000
  -48.9474  -28.6006    5.6013 C   0  0  0  0  0  0  0  0  0  0  0  0
  -44.5325  -29.5922    6.0521 C   0  0  0  0  0  0  0  0  0  0  0  0
  -46.8920  -29.1500    4.7519 C   0  0  0  0  0  0  0  0  0  0  0  0
  -48.3034  -28.8523    4.4089 C   0  0  0  0  0  0  0  0  0  0  0  0
  -46.7882  -29.0347    6.1459 C   0  0  0  0  0  0  0  0  0  0  0  0
  -45.7407  -29.5550    4.0365 C   0  0  0  0  0  0  0  0  0  0  0  0
  -49.0054  -28.8193    3.1047 C   0  0  0  0  0  0  0  0  0  0  0  0
  -44.5942  -28.6970   -1.2403 C   0  0  0  0  0  0  0  0  0  0  0  0
  -44.6442  -30.2421   -1.3060 C   0  0  0  0  0  0  0  0  0  0  0  0
  -44.8978  -28.0441    0.1283 C   0  0  0  0  0  0  0  0  0  0  0  0
  -45.7686  -30.8852   -0.4576 C   0  0  0  0  0  0  0  0  0  0  0  0
  -43.8099  -28.2495    1.1971 C   0  0  0  0  0  0  0  0  0  0  0  0
  -45.2743  -31.5178    0.8665 C   0  0  0  0  0  0  0  0  0  0  0  0
  -43.4958  -29.7092    1.5985 C   0  0  0  0  0  0  0  0  0  0  0  0
  -44.7085  -30.6009    1.9885 C   0  0  0  0  0  0  0  0  0  0  0  0
  -45.6214  -29.2590    6.7808 N   0  0  0  0  0  0  0  0  0  0  0  0
  -44.5781  -29.7525    4.7089 N   0  0  0  0  0  0  0  0  0  0  0  0
  -48.0354  -28.7070    6.6402 N   0  0  0  0  0  0  0  0  0  0  0  0
  -50.3835  -28.6998    3.0763 N   0  0  0  0  0  0  0  0  0  0  0  0
  -45.7908  -29.8430    2.6733 N   0  0  0  0  0  0  0  0  0  0  0  0
  -48.4052  -28.8973    2.0417 O   0  0  0  0  0  0  0  0  0  0  0  0
  -49.9946  -28.3593    5.7091 H   0  0  0  0  0  0  0  0  0  0  0  0
  -43.5907  -29.7359    6.5610 H   0  0  0  0  0  0  0  0  0  0  0  0
  -43.5832  -28.3843   -1.5406 H   0  0  0  0  0  0  0  0  0  0  0  0
  -45.3275  -28.3098   -1.9631 H   0  0  0  0  0  0  0  0  0  0  0  0
  -44.7943  -30.5367   -2.3551 H   0  0  0  0  0  0  0  0  0  0  0  0
  -43.6794  -30.6325   -0.9500 H   0  0  0  0  0  0  0  0  0  0  0  0
  -45.0232  -26.9626   -0.0288 H   0  0  0  0  0  0  0  0  0  0  0  0
  -45.8372  -28.4706    0.5099 H   0  0  0  0  0  0  0  0  0  0  0  0
  -46.5070  -30.1069   -0.2148 H   0  0  0  0  0  0  0  0  0  0  0  0
  -46.2487  -31.6715   -1.0586 H   0  0  0  0  0  0  0  0  0  0  0  0
  -42.8803  -27.8014    0.8165 H   0  0  0  0  0  0  0  0  0  0  0  0
  -44.1295  -27.7160    2.1044 H   0  0  0  0  0  0  0  0  0  0  0  0
  -46.1264  -32.0632    1.2983 H   0  0  0  0  0  0  0  0  0  0  0  0
  -44.4784  -32.2300    0.6035 H   0  0  0  0  0  0  0  0  0  0  0  0
  -42.9899  -30.1878    0.7470 H   0  0  0  0  0  0  0  0  0  0  0  0
  -42.8132  -29.6786    2.4606 H   0  0  0  0  0  0  0  0  0  0  0  0
  -44.3138  -31.2952    2.7449 H   0  0  0  0  0  0  0  0  0  0  0  0
  -48.2495  -28.5667    7.6068 H   0  0  0  0  0  0  0  0  0  0  0  0
  -50.8656  -28.6788    2.2005 H   0  0  0  0  0  0  0  0  0  0  0  0
  -50.8974  -28.6343    3.9317 H   0  0  0  0  0  0  0  0  0  0  0  0
  -46.6324  -30.3631    2.5276 H   0  0  0  0  0  0  0  0  0  0  0  0
  1  4  2  0
  1 18  1  0
  2 16  2  0
  2 17  1  0
  3  4  1  0
  3  5  2  0
  3  6  1  0
  4  7  1  0
  5 16  1  0
  5 18  1  0
  6 17  2  0
  6 20  1  0
  7 19  1  0
  7 21  2  0
  8  9  1  0
  8 10  1  0
  9 11  1  0
 10 12  1  0
 11 13  1  0
 12 14  1  0
 13 15  1  0
 14 15  1  0
 15 20  1  0
  1 22  1  0
  2 23  1  0
  8 24  1  0
  8 25  1  0
  9 26  1  0
  9 27  1  0
 10 28  1  0
 10 29  1  0
 11 30  1  0
 11 31  1  0
 12 32  1  0
 12 33  1  0
 13 34  1  0
 13 35  1  0
 14 36  1  0
 14 37  1  0
 15 38  1  0
 18 39  1  0
 19 40  1  0
 19 41  1  0
 20 42  1  0
M  END
>  <POSIT::Probability>  (2) 
0.94

>  <POSIT::Method>  (2) 
SHAPEFIT

>  <ReceptorTitle>  (2) 
UCSF-P4508_LA2_MERGED(A)

>  <OMEGA_C>  (2) 
KMpDwhbO5ME2PrNAOyEywtm87MEoq8FAZJE7wiQz6cE6D5hAqTZBwoPR5sEBFo1AFyc7whBH6MEG
q8RAbvY2wrVw7ME/K4FAkQVEwvmN5sHZskZAcGAywmWT5cH8wp6/spMywuTv8cGwKae/XJczwlla
4MGqZwM+BRM3wu4U98GXUOq+Xj0vwhP/4cH7Opk/5hg1wl0k/MGW1V0/t/stwlqs7cFhm8w/hNUy
wo/O9MHRh/4/WXw2wlkS6sFG/NhA+E8ywigF7sEDr5ZANiRAwtmn5cE7fNRAsYhJwhyZ5cEz4kRA
zyk3wn2+7sHmFytA855Bwq8t58E5qwJAc/pHwtzf4sFJsbZA6lwuwifj7cGV89FAMlUuwgMT48Fm
McW/X081woh64sGORfu/ai0zwhpL9MEZuhbAs7cuwk8P9cGSMnO/yRc0wnuz18FSqOu8U1k3wrrD
48FoiwI/LQc6wvXa8MGm/1u+tf44wkZf/cH5gIe/ZIUrwjpp3sHhBVE/mYQwwna63cE9rwZAdIE4
wrhAAMJxLqY/1+kxwn/rAMLYfRo/rfUrwqGA8cFaPj8/xEArwr5t7cHieR1ATEExwnhc+sG1rC9A
f/9AwqCI5MFJa/NAZ3ZLwitu5cFi1AxA75ZLwhET5cEroHtAn4c6wo3n8sFdxCFA

>  <OMEGA_E>  (2) 
MAGRPg==

>  <OMEGA_NBR>  (2) 
     11442

$$$$
CACHE3-HO_1696_32
     RDKit          3D

 31 33  0  0  1  0  0  0  0  0999 V2000
  -47.9255  -29.4993    4.7643 C   0  0  0  0  0  0  0  0  0  0  0  0
  -48.7090  -28.9368    5.7449 C   0  0  0  0  0  0  0  0  0  0  0  0
  -44.3291  -29.5447    6.8319 C   0  0  0  0  0  0  0  0  0  0  0  0
  -46.5719  -29.6021    5.3072 C   0  0  0  0  0  0  0  0  0  0  0  0
  -46.6011  -29.0787    6.6018 C   0  0  0  0  0  0  0  0  0  0  0  0
  -45.3698  -30.1277    4.8067 C   0  0  0  0  0  0  0  0  0  0  0  0
  -44.7320  -31.8065    3.0913 C   0  0  0  0  0  0  0  0  0  0  0  0
  -46.1364  -32.8834   -1.2045 C   0  0  0  0  0  0  0  0  0  0  0  0
  -45.1163  -33.6311   -0.3364 C   0  0  2  0  0  0  0  0  0  0  0  0
  -46.1933  -34.4172   -1.1019 C   0  0  0  0  0  0  0  0  0  0  0  0
  -44.6451  -32.0842    1.5831 C   0  0  0  0  0  0  0  0  0  0  0  0
  -45.2015  -33.4676    1.1963 C   0  0  0  0  0  0  0  0  0  0  0  0
  -45.4812  -29.0465    7.3535 N   0  0  0  0  0  0  0  0  0  0  0  0
  -44.2585  -30.0930    5.5863 N   0  0  0  0  0  0  0  0  0  0  0  0
  -47.9053  -28.6791    6.8562 N   0  0  0  0  0  0  0  0  0  0  0  0
  -45.3343  -30.6170    3.4982 N   0  0  0  0  0  0  0  0  0  0  0  0
  -44.3408  -32.6447    3.8988 O   0  0  0  0  0  0  0  0  0  0  0  0
  -47.5738  -35.1444   -0.1979 Cl  0  0  0  0  0  0  0  0  0  0  0  0
  -45.6669  -35.3541   -2.5436 Cl  0  0  0  0  0  0  0  0  0  0  0  0
  -48.2486  -29.8064    3.7806 H   0  0  0  0  0  0  0  0  0  0  0  0
  -49.7662  -28.7300    5.6679 H   0  0  0  0  0  0  0  0  0  0  0  0
  -43.4310  -29.5043    7.4303 H   0  0  0  0  0  0  0  0  0  0  0  0
  -46.9179  -32.2713   -0.7306 H   0  0  0  0  0  0  0  0  0  0  0  0
  -45.8157  -32.4067   -2.1425 H   0  0  0  0  0  0  0  0  0  0  0  0
  -44.0985  -33.6964   -0.7487 H   0  0  0  0  0  0  0  0  0  0  0  0
  -45.2204  -31.3128    1.0502 H   0  0  0  0  0  0  0  0  0  0  0  0
  -43.5900  -32.0318    1.2765 H   0  0  0  0  0  0  0  0  0  0  0  0
  -46.2504  -33.5468    1.5182 H   0  0  0  0  0  0  0  0  0  0  0  0
  -44.6076  -34.2541    1.6850 H   0  0  0  0  0  0  0  0  0  0  0  0
  -48.2226  -28.2669    7.7102 H   0  0  0  0  0  0  0  0  0  0  0  0
  -45.7796  -30.0660    2.7924 H   0  0  0  0  0  0  0  0  0  0  0  0
  1  2  2  0
  1  4  1  0
  2 15  1  0
  3 13  2  0
  3 14  1  0
  4  5  2  0
  4  6  1  0
  5 13  1  0
  5 15  1  0
  6 14  2  0
  6 16  1  0
  7 11  1  0
  7 16  1  0
  7 17  2  0
  8  9  1  0
  8 10  1  0
  9 10  1  0
  9 12  1  0
 10 18  1  0
 10 19  1  0
 11 12  1  0
  1 20  1  0
  2 21  1  0
  3 22  1  0
  8 23  1  0
  8 24  1  0
  9 25  1  6
 11 26  1  0
 11 27  1  0
 12 28  1  0
 12 29  1  0
 15 30  1  0
 16 31  1  0
M  END
>  <POSIT::Probability>  (3) 
0.72

>  <POSIT::Method>  (3) 
SHAPEFIT

>  <ReceptorTitle>  (3) 
UCSF-P4537-REFINED_LIGAND-BOUND-STATE_A__DU__LA1_A-201(A)

>  <OMEGA_C>  (3) 
tbM/wnf+68HydJhADtZCwql+58Ex1rdACVExwodb7MHhntpAq0k6wgrR7MGB1KlAi2c6wjWh6MHM
QdNAsXo1wpwF8cEq0JlAhu0ywp9z/sHS10VAsos4wqSIA8KWLZq/DXc0wjqGBsKIQqy+/MU4wjKr
CcISC42/kJQywjdWAMKIoco/Vs40wt/eBcJdIZk/tew1wjNf6MEDUOtAwQgxwn6+8MHywrJACp8/
wrhu5cGVZdtASlY1wpHv9MHQ4V9A+FwxwjOUAsJshXlAnks+wuiTDMKUokq+5Ko2wp1qDcLIySLA
lP5AwoFz7sEI9XFAoxBHwgPX5cHNX7VAW7ktwr0I7MFfxe1A5as7wswVAcJdBzu/PEM3wmugAcKK
HgnA4mQwwibJBsLUqD+/tuE0wpyA+sEObYY/HFwuwpkgAMJAZaM/YAA5wuwvBsIoVcI/OW4ywjcE
CcLyrdc/9eNAwqEi4sEvuvZARB43whGH8MHBtjJA

>  <OMEGA_E>  (3) 
CpMlPw==

>  <OMEGA_NBR>  (3) 
      2425

$$$$
