50168839
     RDKit          3D

 54 56  0  0  1  0  0  0  0  0999 V2000
    7.0323   -0.0481  -22.6422 C   0  0  0  0  0  0  0  0  0  0  0  0
    6.3774   -1.0808  -21.9499 C   0  0  0  0  0  0  0  0  0  0  0  0
    6.7508    1.2926  -22.3388 C   0  0  0  0  0  0  0  0  0  0  0  0
    7.0130    4.7645  -22.1899 C   0  0  0  0  0  0  0  0  0  0  0  0
    4.8852    4.0798  -23.1690 C   0  0  0  0  0  0  0  0  0  0  0  0
    7.2634    5.5739  -23.3057 C   0  0  0  0  0  0  0  0  0  0  0  0
    5.1310    4.9022  -24.2796 C   0  0  0  0  0  0  0  0  0  0  0  0
    5.1404    0.5689  -20.6540 C   0  0  0  0  0  0  0  0  0  0  0  0
    5.4295   -0.7762  -20.9416 C   0  0  0  0  0  0  0  0  0  0  0  0
    5.8102    4.0231  -22.0998 C   0  0  0  0  0  0  0  0  0  0  0  0
    5.7828    1.6144  -21.3553 C   0  0  0  0  0  0  0  0  0  0  0  0
    6.3235    5.6677  -24.3453 C   0  0  0  0  0  0  0  0  0  0  0  0
    6.3363    3.3457  -19.6734 C   0  0  0  0  0  0  0  0  0  0  0  0
    4.0956    3.4885  -19.2101 C   0  0  0  0  0  0  0  0  0  0  0  0
    4.7302   -1.8204  -20.1595 C   0  0  0  0  0  0  0  0  0  0  0  0
    5.0742   -3.1579  -20.2285 C   0  0  0  0  0  0  0  0  0  0  0  0
    5.5390    3.0643  -20.9389 C   0  0  1  0  0  0  0  0  0  0  0  0
    5.7065    3.8720  -17.2919 C   0  0  0  0  0  0  0  0  0  0  0  0
    3.0408   -2.4987  -16.4019 C   0  0  0  0  0  0  0  0  0  0  0  0
    4.4123   -4.2631  -19.4128 C   0  0  0  0  0  0  0  0  0  0  0  0
    3.3643   -3.7993  -18.3910 C   0  0  0  0  0  0  0  0  0  0  0  0
    5.5109    6.9873  -26.1725 C   0  0  0  0  0  0  0  0  0  0  0  0
    5.3906    3.4883  -18.6730 N   0  0  0  0  0  0  0  0  0  0  0  0
    4.1455    3.2693  -20.5028 N   0  0  0  0  0  0  0  0  0  0  0  0
    2.9200    3.6526  -18.4933 N   0  0  0  0  0  0  0  0  0  0  0  0
    7.5470    3.2350  -19.5095 O   0  0  0  0  0  0  0  0  0  0  0  0
    6.6232    6.5247  -25.3858 O   0  0  0  0  0  0  0  0  0  0  0  0
    3.9734   -2.9678  -17.3870 O   0  0  0  0  0  0  0  0  0  0  0  0
    5.8138    8.2158  -26.6567 F   0  0  0  0  0  0  0  0  0  0  0  0
    5.2931    6.1333  -27.2067 F   0  0  0  0  0  0  0  0  0  0  0  0
    7.7539   -0.2869  -23.4094 H   0  0  0  0  0  0  0  0  0  0  0  0
    6.5975   -2.1111  -22.1874 H   0  0  0  0  0  0  0  0  0  0  0  0
    7.2741    2.0825  -22.8570 H   0  0  0  0  0  0  0  0  0  0  0  0
    7.7411    4.7058  -21.3944 H   0  0  0  0  0  0  0  0  0  0  0  0
    3.9838    3.4861  -23.1303 H   0  0  0  0  0  0  0  0  0  0  0  0
    8.1869    6.1304  -23.3670 H   0  0  0  0  0  0  0  0  0  0  0  0
    4.4122    4.9522  -25.0841 H   0  0  0  0  0  0  0  0  0  0  0  0
    4.4180    0.8066  -19.8871 H   0  0  0  0  0  0  0  0  0  0  0  0
    3.9195   -1.5261  -19.5095 H   0  0  0  0  0  0  0  0  0  0  0  0
    5.8661   -3.4391  -20.9069 H   0  0  0  0  0  0  0  0  0  0  0  0
    4.7795    3.9138  -16.7012 H   0  0  0  0  0  0  0  0  0  0  0  0
    6.3883    3.1293  -16.8519 H   0  0  0  0  0  0  0  0  0  0  0  0
    6.1889    4.8606  -17.2873 H   0  0  0  0  0  0  0  0  0  0  0  0
    3.5673   -1.8719  -15.6671 H   0  0  0  0  0  0  0  0  0  0  0  0
    2.2555   -1.9059  -16.8936 H   0  0  0  0  0  0  0  0  0  0  0  0
    2.5847   -3.3589  -15.8900 H   0  0  0  0  0  0  0  0  0  0  0  0
    3.9188   -4.9517  -20.1144 H   0  0  0  0  0  0  0  0  0  0  0  0
    5.2023   -4.7997  -18.8669 H   0  0  0  0  0  0  0  0  0  0  0  0
    2.5817   -3.2262  -18.9097 H   0  0  0  0  0  0  0  0  0  0  0  0
    2.9150   -4.6796  -17.9082 H   0  0  0  0  0  0  0  0  0  0  0  0
    4.6182    7.0414  -25.5320 H   0  0  0  0  0  0  0  0  0  0  0  0
    3.3496    3.2448  -21.1077 H   0  0  0  0  0  0  0  0  0  0  0  0
    2.0379    3.6065  -18.9621 H   0  0  0  0  0  0  0  0  0  0  0  0
    2.9543    3.8171  -17.5075 H   0  0  0  0  0  0  0  0  0  0  0  0
  1  2  2  0
  1  3  1  0
  2  9  1  0
  3 11  2  0
  4  6  2  0
  4 10  1  0
  5  7  1  0
  5 10  2  0
  6 12  1  0
  7 12  2  0
  8  9  2  0
  8 11  1  0
  9 15  1  0
 17 10  1  6
 11 17  1  0
 12 27  1  0
 13 17  1  0
 13 23  1  0
 13 26  2  0
 14 23  1  0
 14 24  2  0
 14 25  1  0
 15 16  2  0
 16 20  1  0
 17 24  1  0
 18 23  1  0
 19 28  1  0
 20 21  1  0
 21 28  1  0
 22 27  1  0
 22 29  1  0
 22 30  1  0
  1 31  1  0
  2 32  1  0
  3 33  1  0
  4 34  1  0
  5 35  1  0
  6 36  1  0
  7 37  1  0
  8 38  1  0
 15 39  1  0
 16 40  1  0
 18 41  1  0
 18 42  1  0
 18 43  1  0
 19 44  1  0
 19 45  1  0
 19 46  1  0
 20 47  1  0
 20 48  1  0
 21 49  1  0
 21 50  1  0
 22 51  1  0
 24 52  1  0
 25 53  1  0
 25 54  1  0
M  CHG  1  24   1
M  END
>  <OMEGA_C>  (1) 
bgjhQAQFRb0oI7XBEBTMQEVXir9rma/BYwbYQFNypT/ftbLBYWrgQLR2mEDchLHBllOcQGyNgkAM
WrnBqm3oQP9cskD5cbrBLjGkQL/enECIPMLBS36kQN2jET9XO6XB0L6tQJ+yRr9WiKfBN+25QJO9
gEBnzLDBTwy5QOmjzj+o16rB9VnKQOtdtUAow8LB/sLKQP0fVkAmY53B+A6DQEJEX0BarpnBIV6X
QPIC6b+qRqHBxl+iQOwaSsAE1KHBOz+xQAIeREDbgqfB2Zu2QAPPd0C7VYrBE51CQM3qH8AVN4PB
sDGNQFJriMBjTZvBl1BXQI8nc8C6IJPBcVmwQDqY30BJYdHBxX+sQOdAX0BSYpXBH6iEQPU8UUCl
BaTBheE6QKfEaUA78pPBooDxQNoJT0CLE5zBA/HTQJrK0EAxFsvBaEx+QArxPcCiGIvBsAq6QORz
A0HYQNXBG2GpQMhDxEA9p9nBoR/4QDnfkr6KRrvB/R7TQI4cB8C5f7HBJsXoQI5HBUA227bBfbf3
QNyVlkDKJ6vBDPd+QGUcX0DRCrnBtP0CQdUrxECP77rB5jCNQDt4nkAvrMjBmWCNQN9+Tj/TGJ/B
1Nl6QHxWw79kE5zBSLe7QBQaXMBLQafBx/GYQEJ7ekADnIXBCm3MQDNGSEDI0IbBnAvGQOWJm0BY
TIrB101kQLGZ779NrHrBaVkQQEX1878fJofBVWslQBT4VsCZPX7BbM16QKp0nsA16qDBXnmmQBOX
mcB075bBqjolQJp5TsAcR5fBi446QIa/lcD2Q4/BksiTQApT4UCeQczBcGBWQCCqT0CT3KjBS20C
QJbQZkBZspfBsxM9QINLdEBZD4zBZo/hQJzsnb14yLTBl5XLQLB2jL9nTq/B6+PYQDLroj8kfLLB
n+WcQD7sgUAEW7nBmIrgQOrmmEAngrHBomSkQJU6nEBcPsLBSzToQCjbskBjdbrBw9ejQMNCFT/K
TKXBxHCsQHyXQ7/uiKfBp266QPmagEAjzbDBaXa5QLihzj+KxqrBMCXKQOJptUADz8LBMf7KQEV4
VkCCVp3B4S+DQKbfXkD9tpnBCm6SQLVC478Z+aHB5VCdQAPeRsDydaHBj8CxQNVIREA6fqfBXUu2
QJv0dkCwR4rBkhcxQNwQJcCMx4LBooh/QNy7g8CDPJzBzIt4QM43esBlF5DBDeqwQNjv30Ae49HB
5IWsQHusXkCnW5XBHBGFQCXZUUA2EqTBS806QFzSaEBOCJTBQbzxQCXwT0B7/pvBSM7TQKHk0EDH
NMvBB5xGQK/pLsBf243By/2iQERNwEAPgNjBZQCQQAVk70BN3MvBjyL5QDWzqb6jw7rBbnzSQNyI
CMChCLHBOjzqQLRSA0CPm7bBWlSAQMkGXUADC7nBSND3QMhzl0CYIavBvGCNQC1YnUDXrsjBxMAC
QeITxUDH8brBm1KMQNOvVT9VTJ/BlZZqQNtTur//F57B/VS7QG0JXMDr06TBqIaYQF7XeEDzloXB
tkbMQDm0R0Dlw4bBoWrFQPNCm0CyLorBPx8LQAfR1L/JtIHBo4gLQN6nXMC+HIDB9BxsQBOYIMDL
B3zBTGo/QKSWgMCpyJ/BfTKMQDYWpMARxp3BKGtZQP4lmcCfdozBM4KcQBJ4csAksYzBRn+9QIU3
+kAi09bBm4FXQDMzUUDm9qjBJpECQBo7ZkCO1pfBPIo8QB2WckAMIYzBennkQABiWTzZzbXBy4jQ
QIAfib9AybDBNQraQEH8qD+7ybLBuBybQID1gkD2+7jBGgbgQFByl0BfarHB3++iQNlqnUBg38HB
U9DnQD/JsUAuS7rBxWSnQPmX6D7Xg6XBViiyQNeNXr96nqjBpz25QPoZgEDGjrDBas66QDUTyD9q
zarBXVzJQPSBtUApgsLBf57KQFONVEBBQp3BU/uCQNq5YUA8yJnBasmeQNPgBcChBaTBgIuBQF+N
CcC0zJvBq1GxQBRsQEBYWafBeWK2QE9egUCrpYrBDoYtQH1vGMDMPIPBIiRgQKAmYcB1pJjBGLiA
QIDwfcAjl43B0pqvQPi33kDqddHBmkisQJzxYkBZaJXB+5qEQGKTSUAv06PB7t86QCR1dEDCWpTB
tVvxQNpBTkA+4pvBWvfSQObe0ECo48rBfplCQOS7cMCISYXBxvSSQORO9UAZgsvB5QK/QF9h+ECi
TtnBRun7QBt6Ir7LALzB+YvYQKbxBMB+NbPB8fTpQGnLCUD3lbbBT7B7QMlMYUBolbjBv8j3QA3r
lEBcLKvBUaOLQLBpn0ABPMjBfr8CQQ9dw0BL0brB75CQQDwCHz+zKp/B6pWoQEcpQsB/d6fBDZZu
QHRuoL8btpfBHLaYQMJMhEBw+IXBCivMQFyoVUCxpIbBCtvFQMLjoEC2Q4vBjt76P3DjFMDOpnnB
QINnQEKE678axIDB+IwTQKSA9r/fjorBSNkZQKbgXcAjYZjB3f9zQOUviMCvrZ7B97iIQJI3ocD8
843BUqGdQNT4WMAPoYvBxQmgQORrwkDk9dTBcA9WQN/fPkCAcajBCIwCQIfib0D5G5jBEww9QBlF
g0Bur4zBRODhQPg0Nr2qVLXB1NvNQHCRir8fna/B+3/YQPHupT8T6rLBUimcQAFhgkC2LrnBHQXg
QJEgmUDAW7HB6JSjQDHOnECCDMLBTavnQAQds0BzTrrBNOGmQKy2Dz8ODaXBA02wQIRwR7/FYKfB
vem5QGvKgEAzq7DBmCO6QMgOzj/T3arBNYHJQOORtUDfocLBQvrKQOZWVUA2UZ3BoyuDQF4cYUAR
x5nBBfObQBWz6L/KtqDBYkCaQCA0ScAyvaPBYbaxQERkQ0A1eKfBxUe2QOBRdkCvP4rBATExQPDz
KcANR4TBUvuFQEXQh8CX/5zByTeBQKwDe8BiBpHBCiquQHhg4UDvwNDBdnasQHgnYECgZJXB2/aE
QAYJT0ALA6TBF+g6QGqpb0CdOJTBg4/xQHb6S0DB75vB45fSQKSC0EDVFcvBnz08QNAkQcA4TY/B
VQC5QHP4A0Hh5NTB1tuiQAN/xkBZ0tjBin74QOaijr7TlrvBngvVQMwrB8BMgrHBh3foQJjIBUAv
M7fBIwh/QBwuXkCf2bjBj0X3QLqul0D6+arBA2KMQOtMnkAtccjB6HgCQRpfxUAszrrBhJKQQPo4
Sz8luJ7BxNSNQM27w7+CLJnBmR+oQKPEWsCCV6vBnVuYQL77ekCgpoXBzcTKQDpxRECqvIbBuhXH
QAkTmkB2AYrBpGX1Py2V+7/fhYPBec4kQATXY8B8B3/BDJ5rQJR2CsDtV4HB0dNLQMtXjsA/PaDB
2PCZQFWnpMDIvp3BJ492QK1Vm8AgmIzB+OyeQF5NXcCbHI7BiGiTQCAC5UClG8vB8f1WQHrbSUDi
z6jBGrYCQD2kbEDxB5jBjbU8QJMsfUCcZ4zB

>  <OMEGA_E>  (1) 
YLE+Phi9Rj4Aqk0+qAoxPg==

>  <OMEGA_NBR>  (1) 
     24075

$$$$
50168737
     RDKit          3D

 57 59  0  0  1  0  0  0  0  0999 V2000
    7.0438   -0.0954  -22.6368 C   0  0  0  0  0  0  0  0  0  0  0  0
    6.3503   -1.1096  -21.9479 C   0  0  0  0  0  0  0  0  0  0  0  0
    6.7988    1.2581  -22.3353 C   0  0  0  0  0  0  0  0  0  0  0  0
    4.9074    4.0419  -23.1518 C   0  0  0  0  0  0  0  0  0  0  0  0
    7.0431    4.7388  -22.1949 C   0  0  0  0  0  0  0  0  0  0  0  0
    5.1268    4.8723  -24.2568 C   0  0  0  0  0  0  0  0  0  0  0  0
    7.2644    5.5654  -23.3053 C   0  0  0  0  0  0  0  0  0  0  0  0
    5.1810    0.5833  -20.6483 C   0  0  0  0  0  0  0  0  0  0  0  0
    5.4102   -0.7599  -20.9504 C   0  0  0  0  0  0  0  0  0  0  0  0
    5.8450    3.9954  -22.0941 C   0  0  0  0  0  0  0  0  0  0  0  0
    5.8402    1.6043  -21.3486 C   0  0  0  0  0  0  0  0  0  0  0  0
    6.3014    5.6628  -24.3260 C   0  0  0  0  0  0  0  0  0  0  0  0
    6.3536    3.3385  -19.6547 C   0  0  0  0  0  0  0  0  0  0  0  0
    4.1021    3.5221  -19.2451 C   0  0  0  0  0  0  0  0  0  0  0  0
    4.6205   -1.7314  -20.1935 C   0  0  0  0  0  0  0  0  0  0  0  0
    4.7247   -3.0908  -20.3289 C   0  0  0  0  0  0  0  0  0  0  0  0
    5.5834    3.0473  -20.9343 C   0  0  1  0  0  0  0  0  0  0  0  0
    5.6664    3.8333  -17.2759 C   0  0  0  0  0  0  0  0  0  0  0  0
    2.3673   -2.5323  -16.7620 C   0  0  0  0  0  0  0  0  0  0  0  0
    3.9015   -3.9451  -19.4077 C   0  0  0  0  0  0  0  0  0  0  0  0
    4.6461   -4.0794  -18.0635 C   0  0  0  0  0  0  0  0  0  0  0  0
    3.7012   -4.5733  -16.9531 C   0  0  0  0  0  0  0  0  0  0  0  0
    5.4178    6.9730  -26.1363 C   0  0  0  0  0  0  0  0  0  0  0  0
    5.3835    3.5010  -18.6773 N   0  0  0  0  0  0  0  0  0  0  0  0
    4.1781    3.2430  -20.5235 N   0  0  0  0  0  0  0  0  0  0  0  0
    2.9121    3.7506  -18.5702 N   0  0  0  0  0  0  0  0  0  0  0  0
    7.5578    3.2051  -19.4632 O   0  0  0  0  0  0  0  0  0  0  0  0
    6.5562    6.5451  -25.3583 O   0  0  0  0  0  0  0  0  0  0  0  0
    3.2339   -3.4877  -16.1151 O   0  0  0  0  0  0  0  0  0  0  0  0
    4.4942    7.5850  -25.3431 F   0  0  0  0  0  0  0  0  0  0  0  0
    5.8495    7.8587  -27.0651 F   0  0  0  0  0  0  0  0  0  0  0  0
    7.7646   -0.3563  -23.3976 H   0  0  0  0  0  0  0  0  0  0  0  0
    6.5352   -2.1481  -22.1798 H   0  0  0  0  0  0  0  0  0  0  0  0
    7.3413    2.0335  -22.8559 H   0  0  0  0  0  0  0  0  0  0  0  0
    4.0167    3.4328  -23.1066 H   0  0  0  0  0  0  0  0  0  0  0  0
    7.7882    4.6699  -21.4162 H   0  0  0  0  0  0  0  0  0  0  0  0
    4.4016    4.9109  -25.0562 H   0  0  0  0  0  0  0  0  0  0  0  0
    8.1811    6.1318  -23.3777 H   0  0  0  0  0  0  0  0  0  0  0  0
    4.4853    0.8404  -19.8633 H   0  0  0  0  0  0  0  0  0  0  0  0
    3.9061   -1.3507  -19.4786 H   0  0  0  0  0  0  0  0  0  0  0  0
    5.3745   -3.5317  -21.0704 H   0  0  0  0  0  0  0  0  0  0  0  0
    4.7215    3.9031  -16.7171 H   0  0  0  0  0  0  0  0  0  0  0  0
    6.2971    3.0483  -16.8332 H   0  0  0  0  0  0  0  0  0  0  0  0
    6.1932    4.7978  -17.2271 H   0  0  0  0  0  0  0  0  0  0  0  0
    2.0732   -1.7558  -16.0404 H   0  0  0  0  0  0  0  0  0  0  0  0
    2.8992   -2.0668  -17.6048 H   0  0  0  0  0  0  0  0  0  0  0  0
    1.4686   -3.0458  -17.1343 H   0  0  0  0  0  0  0  0  0  0  0  0
    2.9212   -3.4740  -19.2428 H   0  0  0  0  0  0  0  0  0  0  0  0
    3.7595   -4.9406  -19.8537 H   0  0  0  0  0  0  0  0  0  0  0  0
    5.4704   -4.7983  -18.1798 H   0  0  0  0  0  0  0  0  0  0  0  0
    5.0529   -3.0979  -17.7787 H   0  0  0  0  0  0  0  0  0  0  0  0
    2.8324   -5.0626  -17.4177 H   0  0  0  0  0  0  0  0  0  0  0  0
    4.2392   -5.2996  -16.3262 H   0  0  0  0  0  0  0  0  0  0  0  0
    4.9717    6.0954  -26.6270 H   0  0  0  0  0  0  0  0  0  0  0  0
    3.3917    3.1722  -21.1372 H   0  0  0  0  0  0  0  0  0  0  0  0
    2.0422    3.7068  -19.0615 H   0  0  0  0  0  0  0  0  0  0  0  0
    2.9241    3.9592  -17.5922 H   0  0  0  0  0  0  0  0  0  0  0  0
  1  2  2  0
  1  3  1  0
  2  9  1  0
  3 11  2  0
  4  6  2  0
  4 10  1  0
  5  7  1  0
  5 10  2  0
  6 12  1  0
  7 12  2  0
  8  9  2  0
  8 11  1  0
  9 15  1  0
 17 10  1  6
 11 17  1  0
 12 28  1  0
 13 17  1  0
 13 24  1  0
 13 27  2  0
 14 24  1  0
 14 25  2  0
 14 26  1  0
 15 16  2  0
 16 20  1  0
 17 25  1  0
 18 24  1  0
 19 29  1  0
 20 21  1  0
 21 22  1  0
 22 29  1  0
 23 28  1  0
 23 30  1  0
 23 31  1  0
  1 32  1  0
  2 33  1  0
  3 34  1  0
  4 35  1  0
  5 36  1  0
  6 37  1  0
  7 38  1  0
  8 39  1  0
 15 40  1  0
 16 41  1  0
 18 42  1  0
 18 43  1  0
 18 44  1  0
 19 45  1  0
 19 46  1  0
 19 47  1  0
 20 48  1  0
 20 49  1  0
 21 50  1  0
 21 51  1  0
 22 52  1  0
 22 53  1  0
 23 54  1  0
 25 55  1  0
 26 56  1  0
 26 57  1  0
M  CHG  1  25   1
M  END
>  <OMEGA_C>  (2) 
imbhQLlhw701GLXBYzXLQH0Ijr9Dla/BsI/ZQMkJoT/CrrLBVgmdQOVWgUDkNrnBDWHhQFekl0Ax
j7HBkw6kQC3qm0DfDcLB03XoQCMYskBScbrBwsqlQN5QFT/NL6XBiiCtQCyGQr95mqfBaQq7QO+0
f0DGwLDBieK6QOhYzT/hyarB3qTJQIA1tUCRm8LBl1DLQL2pVUC6PJ3BBESDQElqYUAC9pnBWtuT
QH2d3b9TjKHBhDCXQE3PRcCqoaLBbquyQDUHQ0CMeafBh1O1QD9VdUAiNYrBEYEXQHIQIsCMGIbB
YLF5QDB8fMACQ5vBf6yUQFWKgsASgpDBlOBsQJ5YksD2n4fB816tQOsi30A4F9HBk0WsQJgPYEA2
a5XB7rKFQHiNT0AMMKTBfGA6QHQKcEC3j5TBldnxQPYgTUCbtJvByMzRQENx0UDM3crBFvhOQEk3
X8Cs64DBHtCPQBa48kDEvsrBPS+7QF16+0BIhdjBj3f4QCdwtr40LrvBKCDRQGp6CcBQcLHBruvq
QEUkAkDK2LbBhIiAQNGyW0BI2rjBUzn5QA1wlUBfVKvBHtqMQDQmnUATc8jB6uUCQZM3xEB7BbvB
4YePQPElVz//557Bs/15QNbirL831JvBkvurQMMGYsA5kKjB3haXQLPLeUClvIXBnoHJQFgXQ0BZ
qobBki7GQGaHmUAr0YnBfK8EQAe/4L+2UoDBCY05QBtGBMCg1ozBtfq7PxvvQsATE4nB6/Q6QEJW
XsA58ZnBj5twQAUZnsBV1J7BuQ2vQPuLmcBBcJHBwrGhQCVERsCxOo7BaUY1QGoAosB9V4vBWKeH
QIuWqcD5m4LB9BefQLQNw0AkBNXBIxJZQO4ES0DkGKnBObQCQOE8bUDlfZjBfCQ7QJFjfUDnvIzB

>  <OMEGA_E>  (2) 
UPZmPg==

>  <OMEGA_NBR>  (2) 
      4080

$$$$
50168840
     RDKit          3D

 51 53  0  0  1  0  0  0  0  0999 V2000
    7.1567    0.0125  -22.7326 C   0  0  0  0  0  0  0  0  0  0  0  0
    6.5215   -1.0753  -22.1195 C   0  0  0  0  0  0  0  0  0  0  0  0
    6.8407    1.3201  -22.3427 C   0  0  0  0  0  0  0  0  0  0  0  0
    4.8249    4.0978  -23.1083 C   0  0  0  0  0  0  0  0  0  0  0  0
    6.9923    4.7227  -22.1821 C   0  0  0  0  0  0  0  0  0  0  0  0
    5.0584    4.9339  -24.2150 C   0  0  0  0  0  0  0  0  0  0  0  0
    7.2268    5.5506  -23.2898 C   0  0  0  0  0  0  0  0  0  0  0  0
    5.2650    0.4506  -20.6846 C   0  0  0  0  0  0  0  0  0  0  0  0
    5.5856   -0.8720  -21.0877 C   0  0  0  0  0  0  0  0  0  0  0  0
    5.7798    3.9970  -22.0682 C   0  0  0  0  0  0  0  0  0  0  0  0
    5.8651    1.5604  -21.3433 C   0  0  0  0  0  0  0  0  0  0  0  0
    6.2651    5.6763  -24.3066 C   0  0  0  0  0  0  0  0  0  0  0  0
    6.3347    3.3466  -19.6642 C   0  0  0  0  0  0  0  0  0  0  0  0
    4.1015    3.6000  -19.2450 C   0  0  0  0  0  0  0  0  0  0  0  0
    4.9646   -2.0786  -20.5009 C   0  0  0  0  0  0  0  0  0  0  0  0
    4.3502   -2.1178  -19.2723 C   0  0  0  0  0  0  0  0  0  0  0  0
    5.5472    3.0010  -20.9164 C   0  0  1  0  0  0  0  0  0  0  0  0
    5.7041    4.0956  -17.3500 C   0  0  0  0  0  0  0  0  0  0  0  0
    2.8435   -2.8251  -16.6361 C   0  0  0  0  0  0  0  0  0  0  0  0
    3.8212   -3.4428  -18.7568 C   0  0  0  0  0  0  0  0  0  0  0  0
    5.4645    6.9461  -26.1875 C   0  0  0  0  0  0  0  0  0  0  0  0
    5.4000    3.8154  -18.7587 N   0  0  0  0  0  0  0  0  0  0  0  0
    4.1505    3.1314  -20.4698 N   0  0  0  0  0  0  0  0  0  0  0  0
    2.9255    3.8349  -18.5486 N   0  0  0  0  0  0  0  0  0  0  0  0
    7.5299    3.1625  -19.4577 O   0  0  0  0  0  0  0  0  0  0  0  0
    6.5627    6.5377  -25.3489 O   0  0  0  0  0  0  0  0  0  0  0  0
    2.6147   -3.2411  -17.9989 O   0  0  0  0  0  0  0  0  0  0  0  0
    5.7852    8.1294  -26.7661 F   0  0  0  0  0  0  0  0  0  0  0  0
    5.2501    6.0176  -27.1569 F   0  0  0  0  0  0  0  0  0  0  0  0
    7.8906   -0.1574  -23.5065 H   0  0  0  0  0  0  0  0  0  0  0  0
    6.7522   -2.0800  -22.4416 H   0  0  0  0  0  0  0  0  0  0  0  0
    7.3455    2.1536  -22.8084 H   0  0  0  0  0  0  0  0  0  0  0  0
    3.9092    3.5279  -23.0516 H   0  0  0  0  0  0  0  0  0  0  0  0
    7.7419    4.6373  -21.4094 H   0  0  0  0  0  0  0  0  0  0  0  0
    4.3177    5.0113  -24.9973 H   0  0  0  0  0  0  0  0  0  0  0  0
    8.1557    6.0969  -23.3619 H   0  0  0  0  0  0  0  0  0  0  0  0
    4.5657    0.6149  -19.8781 H   0  0  0  0  0  0  0  0  0  0  0  0
    4.9960   -2.9915  -21.0771 H   0  0  0  0  0  0  0  0  0  0  0  0
    4.2455   -1.2190  -18.6828 H   0  0  0  0  0  0  0  0  0  0  0  0
    4.7969    4.4561  -16.8431 H   0  0  0  0  0  0  0  0  0  0  0  0
    6.0560    3.1752  -16.8609 H   0  0  0  0  0  0  0  0  0  0  0  0
    6.4878    4.8652  -17.2902 H   0  0  0  0  0  0  0  0  0  0  0  0
    1.8782   -2.6927  -16.1256 H   0  0  0  0  0  0  0  0  0  0  0  0
    3.4327   -3.5925  -16.1126 H   0  0  0  0  0  0  0  0  0  0  0  0
    3.3945   -1.8730  -16.6310 H   0  0  0  0  0  0  0  0  0  0  0  0
    3.6072   -4.1040  -19.6094 H   0  0  0  0  0  0  0  0  0  0  0  0
    4.5803   -3.9098  -18.1121 H   0  0  0  0  0  0  0  0  0  0  0  0
    4.5639    7.0593  -25.5662 H   0  0  0  0  0  0  0  0  0  0  0  0
    3.3510    2.8959  -21.0223 H   0  0  0  0  0  0  0  0  0  0  0  0
    2.0430    3.6455  -18.9793 H   0  0  0  0  0  0  0  0  0  0  0  0
    2.9599    4.1938  -17.6159 H   0  0  0  0  0  0  0  0  0  0  0  0
  1  2  2  0
  1  3  1  0
  2  9  1  0
  3 11  2  0
  4  6  2  0
  4 10  1  0
  5  7  1  0
  5 10  2  0
  6 12  1  0
  7 12  2  0
  8  9  2  0
  8 11  1  0
  9 15  1  0
 17 10  1  6
 11 17  1  0
 12 26  1  0
 13 17  1  0
 13 22  1  0
 13 25  2  0
 14 22  1  0
 14 23  2  0
 14 24  1  0
 15 16  2  0
 16 20  1  0
 17 23  1  0
 18 22  1  0
 19 27  1  0
 20 27  1  0
 21 26  1  0
 21 28  1  0
 21 29  1  0
  1 30  1  0
  2 31  1  0
  3 32  1  0
  4 33  1  0
  5 34  1  0
  6 35  1  0
  7 36  1  0
  8 37  1  0
 15 38  1  0
 16 39  1  0
 18 40  1  0
 18 41  1  0
 18 42  1  0
 19 43  1  0
 19 44  1  0
 19 45  1  0
 20 46  1  0
 20 47  1  0
 21 48  1  0
 23 49  1  0
 24 50  1  0
 24 51  1  0
M  CHG  1  23   1
M  END
>  <OMEGA_C>  (3) 
kAPlQEApTDxl3LXBMrDQQJajib+l9LDB9ObaQIL5qD/yvbLBNGWaQGohg0DK3bjBpcDfQGMgl0AB
dbHBHN6hQDXinUBouMHBDkLnQLWesUB+UbrBh3qoQNu15j77eaXB17yyQEk7X7+Ps6jBuvO4QBHP
f0Cdi7DBSq+7QPm6xz8kv6rBtHvIQOijtUADdMLBHbbKQDgvVkA3UJ3Bqj+DQKFmZkDA9ZnBEd6e
QJMHBcDKAaTBuzSLQNWJB8C8LZrBgIKxQLQQQEDCVKfBSoi2QO0Og0C+zIrBR/w1QKDONMCiFoXB
q450QLNWXMDaDZbBN92uQGdG3kAEgNHBmMysQFUwdEDoEZbB3NCEQBdpSEASwqPB8zo7QIJvdUCY
Y5TBHvXwQBZnSkBbqZvBkgHSQLc00UCaysrB3VcnQF1uT8Cs/Y/B/x+5QNQRAkHzINbBsgCoQA+Q
wEBBQdnBoH/8QBcuIb5gDbzBBxLYQN8eBcBPiLPBmA7rQGzUCUCnd7bBdzB6QMPJYUCZabjBiL33
QOdklEBdRqvB1CqKQGxcoEBk+sfBnX0CQe8Zw0AZ5brBGRqSQDdoHT9HBp/Bjt+fQKt0P8DanajB
DtuHQKsGnL9ldpXBJ4CZQJGYjkCvvobBzMrBQOg2S0A144bBCpzPQJevm0BUUorBMGjwP8JULMA0
AYHBmbFbQP/qZcCT5oDB6j5ZQNK/779VDIXBrtxmQN5Tg8AZ4JzB4ZGSQNc6esCE5ZDBLwuSQPnl
4UCRh8zB5nZWQP5VOUC+LajBUMECQI1PaUCC1ZfBaW49QGwzhkBM7YzB1BvkQGCqwDxA6bXBKo3Q
QAxGiL9i2LDBCq/ZQL4bqj/S2bLBBh2bQIjJgkDWILnB3qLfQOCul0BYY7HBzEKjQOIenUDuBcLB
CLznQOzlsUD6RLrBZManQCUT6j5GcaXBbNOyQH0aXr9EhqjBnuW4QCI1gEDOn7DBUqC6QPbTyD9k
0KrBlJvJQKdZtUAakcLBjkfKQNVzVkDgZJ3Bru+CQGLTZUB65pnBUmShQBYRBsBYfqPB0n+HQNnU
CMAAm5rBsOOwQBTuQEDUZqfBGJu2QGWFgkAw0IrBDnhFQNxcOMDWjoTB19lwQIh/X8BefZbBeMCv
QKo84EB+MNHBXI6sQJ89dEC+F5bBHEWEQIuESkCs06PBRQI7QNHhcUCIIZTB4oPwQF4tSkA8yJvB
JlfTQImp0ECm8MrBIRGAQJY/aMDaKovBItuTQO469kBg4crBBhi/QPcL+0AYzdjBLkH7QKArFL48
L7zB7lvYQAtrBMCzWbPBJnvpQHV3CkDVp7bBWch7QPPFYEAKybjBfxv3QCVZlUC8EqvBkUSMQCTo
nkBCdcjB6q8CQfmSw0CUu7rBQiWRQDz4Hj+KC5/B9sWpQAx5QsAHIqfBmwZ8QH0anb92nJbBwr+Z
QEIWjkCYr4bB3L3BQIKkSUBc/4bBkd7PQH/ymkC/TYrBzGRVQJhtQsBkKHjBZ5dKQOS1578ae4bB
Fq8DQM5JTsDRE4bBM9YrQMbwZcB+B5jBkM+JQIopicANwZrB0H2fQMLaxEAn8NTBLSRVQGD8PUAt
VKjBtFwCQNmPZUBLhZfBia49QH5yg0DzlIzBxdrkQAB9m7ttsbXBcjjQQNIii7/SybDBMOraQDIp
pz8hn7LBHGubQEKpgUDpJbnBEmXfQM3kl0CqYbHBR/SiQBtVnEAeBcLBKN7mQLR3skC0PLrBT/en
QBnb5j71aqXB4SuyQJ8jYL9LkajBhDW5QPwzf0Cco7DBWXq7QAQRxz9Os6rB4r/IQHiItUBij8LB
T7/KQAU4VkDIWJ3BJUyDQGcpZkDu+JnBS1SeQD8NBcB2zKPBGo2KQGcMB8As+5nBqYuxQOUOQEAM
XafBfJ22QJzCgkDzzorBTHQyQN04MsAqBYXBvbpzQBfHW8CuwZXBNmqwQKFR30BA89HBJ9qsQCE4
dEAhGJbBMtyEQIdWSUCX06PBO1Q7QJXRc0C4V5TBdvnwQPcrSkCFspvBzZXSQB+E0UB53srBtpkl
QC81T8Be3Y/BmAClQEdBv0BfudjB1cqNQC2M7UAMW8zBxHH8QHegOb7s2LvBQHDXQCsCBsD4VrPB
bmDrQLChCED1U7bBp0F9QHQrXUCV1LjBO/L2QM7vlUDHE6vBC+iLQKmonUAYc8jBKQ8CQUvLxEBM
qrrB0miRQMlCHz9KBJ/BOXafQKvHP8CYWKjB/++GQO5fmr+IV5XBn6OZQGtcjkBmvYbBOrXBQPJQ
SkAS8IbBJNPPQF89m0C3SorBxRnoPzAtKsCqEoHB7JpYQHnFYcBynoDBmodUQF0+6b8UGoXBaGpn
QGeJg8DThZzBoASSQJhteMBdc5DBiPe8QEsQ+kD7u9bB9INWQEGYO0DGTqjB8eACQOuLZ0AsyZfB
uYM9QPT3hEAw14zB

>  <OMEGA_E>  (3) 
YHhEPki9Vj5ABlg+

>  <OMEGA_NBR>  (3) 
     18168

$$$$
