50156416
     RDKit          3D

 85 88  0  0  0  0  0  0  0  0999 V2000
    6.0475    1.7509  -17.2793 C   0  0  0  0  0  0  0  0  0  0  0  0
    7.9856    3.0527  -16.5653 C   0  0  0  0  0  0  0  0  0  0  0  0
    6.6862    0.5692  -16.8491 C   0  0  0  0  0  0  0  0  0  0  0  0
    8.6171    1.8811  -16.1291 C   0  0  0  0  0  0  0  0  0  0  0  0
    6.6950    2.9976  -17.1230 C   0  0  0  0  0  0  0  0  0  0  0  0
    7.9775    0.6360  -16.2590 C   0  0  0  0  0  0  0  0  0  0  0  0
    6.7854    4.6127  -19.8810 C   0  0  0  0  0  0  0  0  0  0  0  0
    4.5442    4.2373  -19.5537 C   0  0  0  0  0  0  0  0  0  0  0  0
    7.0198   -2.4198  -15.3865 C   0  0  0  0  0  0  0  0  0  0  0  0
    5.8282   10.0502  -22.1692 C   0  0  0  0  0  0  0  0  0  0  0  0
    5.9858   -1.1186  -21.3725 C   0  0  0  0  0  0  0  0  0  0  0  0
    7.1895    9.4871  -22.6026 C   0  0  0  0  0  0  0  0  0  0  0  0
    5.2811    9.2590  -20.9634 C   0  0  0  0  0  0  0  0  0  0  0  0
    5.0220   -0.1961  -20.6091 C   0  0  0  0  0  0  0  0  0  0  0  0
    7.4099   -0.5468  -21.3389 C   0  0  0  0  0  0  0  0  0  0  0  0
    7.0944    7.9774  -22.8978 C   0  0  0  0  0  0  0  0  0  0  0  0
    5.1511    7.7476  -21.2782 C   0  0  0  0  0  0  0  0  0  0  0  0
    5.0338    1.2270  -21.1937 C   0  0  0  0  0  0  0  0  0  0  0  0
    7.4386    0.8713  -21.9295 C   0  0  0  0  0  0  0  0  0  0  0  0
    6.5077    7.1464  -21.7116 C   0  0  0  0  0  0  0  0  0  0  0  0
    6.4624    1.8349  -21.2004 C   0  0  0  0  0  0  0  0  0  0  0  0
    6.0781    4.4970  -21.2166 C   0  0  0  0  0  0  0  0  0  0  0  0
    3.5949   -3.3484  -19.0445 C   0  0  0  0  0  0  0  0  0  0  0  0
    6.0050    4.2948  -17.4869 C   0  0  0  0  0  0  0  0  0  0  0  0
    8.6868   -0.5671  -15.6658 C   0  0  0  0  0  0  0  0  0  0  0  0
    6.3821    5.6736  -22.2221 C   0  0  0  0  0  0  0  0  0  0  0  0
    6.5177    3.1924  -21.9678 C   0  0  0  0  0  0  0  0  0  0  0  0
    4.4955   -3.8358  -17.9094 C   0  0  0  0  0  0  0  0  0  0  0  0
    5.9796   -3.5538  -18.2291 C   0  0  0  0  0  0  0  0  0  0  0  0
    6.8749   -4.1815  -17.1484 C   0  0  0  0  0  0  0  0  0  0  0  0
    5.7863    4.4233  -18.9337 N   0  0  0  0  0  0  0  0  0  0  0  0
    4.6552    4.4459  -20.8480 N   0  0  0  0  0  0  0  0  0  0  0  0
    3.3692    3.8730  -18.9080 N   0  0  0  0  0  0  0  0  0  0  0  0
    8.0963   -1.8417  -16.0479 N   0  0  0  0  0  0  0  0  0  0  0  0
    6.5353   -3.6360  -15.8254 N   0  0  0  0  0  0  0  0  0  0  0  0
    7.9947    4.6705  -19.6891 O   0  0  0  0  0  0  0  0  0  0  0  0
    6.4730   -1.8635  -14.4403 O   0  0  0  0  0  0  0  0  0  0  0  0
    5.0659    1.7033  -17.7272 H   0  0  0  0  0  0  0  0  0  0  0  0
    8.4915    4.0024  -16.4733 H   0  0  0  0  0  0  0  0  0  0  0  0
    6.1947   -0.3851  -16.9679 H   0  0  0  0  0  0  0  0  0  0  0  0
    9.6023    1.9346  -15.6898 H   0  0  0  0  0  0  0  0  0  0  0  0
    5.9458   11.1068  -21.8868 H   0  0  0  0  0  0  0  0  0  0  0  0
    5.1195    9.9711  -23.0068 H   0  0  0  0  0  0  0  0  0  0  0  0
    5.9833   -2.1137  -20.9038 H   0  0  0  0  0  0  0  0  0  0  0  0
    5.6541   -1.2048  -22.4177 H   0  0  0  0  0  0  0  0  0  0  0  0
    7.5228   10.0109  -23.5107 H   0  0  0  0  0  0  0  0  0  0  0  0
    7.9196    9.6506  -21.7962 H   0  0  0  0  0  0  0  0  0  0  0  0
    5.9663    9.3878  -20.1125 H   0  0  0  0  0  0  0  0  0  0  0  0
    4.2893    9.6542  -20.6986 H   0  0  0  0  0  0  0  0  0  0  0  0
    4.0031   -0.6045  -20.6795 H   0  0  0  0  0  0  0  0  0  0  0  0
    5.3275   -0.1528  -19.5533 H   0  0  0  0  0  0  0  0  0  0  0  0
    7.7606   -0.5114  -20.2969 H   0  0  0  0  0  0  0  0  0  0  0  0
    8.0742   -1.1967  -21.9274 H   0  0  0  0  0  0  0  0  0  0  0  0
    6.4481    7.8344  -23.7764 H   0  0  0  0  0  0  0  0  0  0  0  0
    8.1041    7.6018  -23.1203 H   0  0  0  0  0  0  0  0  0  0  0  0
    4.7976    7.2231  -20.3783 H   0  0  0  0  0  0  0  0  0  0  0  0
    4.4228    7.6122  -22.0914 H   0  0  0  0  0  0  0  0  0  0  0  0
    4.6572    1.1909  -22.2266 H   0  0  0  0  0  0  0  0  0  0  0  0
    4.3771    1.8671  -20.5862 H   0  0  0  0  0  0  0  0  0  0  0  0
    8.4600    1.2701  -21.8421 H   0  0  0  0  0  0  0  0  0  0  0  0
    7.1554    0.8179  -22.9911 H   0  0  0  0  0  0  0  0  0  0  0  0
    7.2095    7.1777  -20.8651 H   0  0  0  0  0  0  0  0  0  0  0  0
    6.8016    1.9865  -20.1650 H   0  0  0  0  0  0  0  0  0  0  0  0
    2.5443   -3.5591  -18.7959 H   0  0  0  0  0  0  0  0  0  0  0  0
    3.7295   -2.2651  -19.1797 H   0  0  0  0  0  0  0  0  0  0  0  0
    3.8632   -3.8702  -19.9750 H   0  0  0  0  0  0  0  0  0  0  0  0
    5.0310    4.3324  -16.9772 H   0  0  0  0  0  0  0  0  0  0  0  0
    6.6291    5.1347  -17.1476 H   0  0  0  0  0  0  0  0  0  0  0  0
    9.7336   -0.5543  -16.0033 H   0  0  0  0  0  0  0  0  0  0  0  0
    8.6539   -0.4839  -14.5695 H   0  0  0  0  0  0  0  0  0  0  0  0
    5.5732    5.6672  -22.9675 H   0  0  0  0  0  0  0  0  0  0  0  0
    7.3354    5.4289  -22.7135 H   0  0  0  0  0  0  0  0  0  0  0  0
    7.5586    3.3397  -22.2917 H   0  0  0  0  0  0  0  0  0  0  0  0
    5.8696    3.0925  -22.8509 H   0  0  0  0  0  0  0  0  0  0  0  0
    4.2207   -3.3135  -16.9811 H   0  0  0  0  0  0  0  0  0  0  0  0
    4.3544   -4.9186  -17.7764 H   0  0  0  0  0  0  0  0  0  0  0  0
    6.2308   -3.9875  -19.2083 H   0  0  0  0  0  0  0  0  0  0  0  0
    6.1470   -2.4669  -18.2557 H   0  0  0  0  0  0  0  0  0  0  0  0
    6.7255   -5.2712  -17.1411 H   0  0  0  0  0  0  0  0  0  0  0  0
    7.9279   -3.9572  -17.3741 H   0  0  0  0  0  0  0  0  0  0  0  0
    3.8902    4.5533  -21.4830 H   0  0  0  0  0  0  0  0  0  0  0  0
    2.5270    3.7515  -19.4333 H   0  0  0  0  0  0  0  0  0  0  0  0
    3.3656    3.7323  -17.9180 H   0  0  0  0  0  0  0  0  0  0  0  0
    8.4870   -2.3280  -16.8295 H   0  0  0  0  0  0  0  0  0  0  0  0
    5.9343   -4.1629  -15.2244 H   0  0  0  0  0  0  0  0  0  0  0  0
  1  3  2  0
  1  5  1  0
  2  4  1  0
  2  5  2  0
  3  6  1  0
  4  6  2  0
  5 24  1  0
  6 25  1  0
  7 22  1  0
  7 31  1  0
  7 36  2  0
  8 31  1  0
  8 32  2  0
  8 33  1  0
  9 34  1  0
  9 35  1  0
  9 37  2  0
 10 12  1  0
 10 13  1  0
 11 14  1  0
 11 15  1  0
 12 16  1  0
 13 17  1  0
 14 18  1  0
 15 19  1  0
 16 20  1  0
 17 20  1  0
 18 21  1  0
 19 21  1  0
 20 26  1  0
 21 27  1  0
 22 26  1  0
 22 27  1  0
 22 32  1  0
 23 28  1  0
 24 31  1  0
 25 34  1  0
 28 29  1  0
 29 30  1  0
 30 35  1  0
  1 38  1  0
  2 39  1  0
  3 40  1  0
  4 41  1  0
 10 42  1  0
 10 43  1  0
 11 44  1  0
 11 45  1  0
 12 46  1  0
 12 47  1  0
 13 48  1  0
 13 49  1  0
 14 50  1  0
 14 51  1  0
 15 52  1  0
 15 53  1  0
 16 54  1  0
 16 55  1  0
 17 56  1  0
 17 57  1  0
 18 58  1  0
 18 59  1  0
 19 60  1  0
 19 61  1  0
 20 62  1  0
 21 63  1  0
 23 64  1  0
 23 65  1  0
 23 66  1  0
 24 67  1  0
 24 68  1  0
 25 69  1  0
 25 70  1  0
 26 71  1  0
 26 72  1  0
 27 73  1  0
 27 74  1  0
 28 75  1  0
 28 76  1  0
 29 77  1  0
 29 78  1  0
 30 79  1  0
 30 80  1  0
 32 81  1  0
 33 82  1  0
 33 83  1  0
 34 84  1  0
 35 85  1  0
M  CHG  1  32   1
M  END
>  <OMEGA_C>  (1) 
uYTBQLwd4D8GPIrB7In/QOVeQ0DEhYTBL/XVQGK1ET/iyobBnN8JQbrH8D9QCIHBiD3WQPbYP0DO
+4jBykf/QGXQIj9gEoLBLCLZQCObk0AxDJ/B0WmRQJSXh0AKbpzB16HgQPvdGsA9L3bBi4C6QG3N
IEGAWrHBCYy/QJguj7/p+qrBkxDmQC7LF0Eb0rTBI/+oQPMkFEEHtafBe7SgQJbMSL5u36TBRh7t
QMb7C78dtqrBZgXjQPtG/0CoLrfBrNWkQGPs90DMOarB0RShQE8OnT+vjKnBsQjuQHIQXz+sb6/B
Fz/QQAyv5EBpsa3BocvOQPLc6j9WmqnB1H/CQDbnj0Cwu6nBcRNmQGlMVsAMW5jBFSnAQONuiUAx
5YvBBv0KQZIuEb84p3rBaDrMQHqOtUDtxrHBXJHQQBxQTEAGvq/B39qPQMV9dcB7Ro/B6Fi/QPBw
Y8Au1ZHBif/bQHnOhcDuL4nBJSm5QOCLjUA0eJfBAPeUQBlFjkCyyKbBkaBXQPHed0CvQ5fBbYoB
QWS8678lYoDBGSHRQL+0aMCtNH3BWNT/QAt1lUBVg53BGSPPQCiH7r+XC2fBdBuiQI0F2j9G0Y3B
Dt0HQb0TgEBByYPB1DrGQEAxxb4svofB6KIZQRmi9z9mCXvBrUO+QFK1MUEsGK/B/tKjQMGJH0HX
DbjBGHe/QEJHB8DiOqfBCe60QEE3mr+GV7PBfLrwQHksIEHhFbzBXW39QPRoGkGjXq7BCey+QJQ0
FkF75qDBNUKJQK13GkGwlqXBVxmAQFHBGr+ob6XBOXuqQPp2HL4UbZzBnFb4QKvpAr8PYKLBAjAB
QQwvmb9Xa6/BOlfOQKaz+kD9Nb7BS6oBQRJC80BO9rjBG4aZQGgj50CuBqPBVIeNQOmW80Aiu7DB
3weVQJ1vmD8R0LHBiBGMQAH97j95sKTBH1wHQfWToj+cvK7BIPnkQJ9kUT/P7bfB77PmQFyv5UDL
66bBm6bZQBtG/j/2UaHB5dUiQEfIY8D8XZbBk69uQPz2EMDub5nBST53QJawd8C3zJ/BjP2gQN2i
ikBY0YfBWiHUQC5PpEA2LonBBL0bQT/nDb/EBoDBbXYKQbvG976JHGnBTleyQIlZtUBevbfBUrvq
QHO5rUA7tbXBF+DxQIC9VUBfVbLBitO7QBHrRUCkzrbBABCHQH4QVMBa2YfBW1eLQAxlncAkNo7B
smLHQDozf8CGqpnBabTEQNPhHcCaC5LBajfXQPGtqMD6IInBorH9QIJDfcAr/orBdPh4QGm0kUBB
3avB4rkhQMAYcEB9d5vBw2ZXQFjdbkATWI/BzsoHQYv9FMDRoobBYeW9QJU2hcApl3PB7Ge/QDDY
4j9rtYnBFBL9QNmpRUB174PBuh3TQMVJGj/auYXBWkkIQdhJ9z8E7H/BFDHUQDVoQUBrmYjB4o37
QOhoMT83j4DBIkbZQOFmkkAB8p7B4VSRQPXahkALlJzBcAz4QEOcKsC5W4LBnvW8QLkeIEEjY7HB
l5W+QIwAk7/XGqvBSpzoQEvdFkFlnLTBzCeqQBWNE0HM3KfBo1igQCwvV77S86TBnHjsQKkLGr9x
5arB0DjlQKR+/UBm/rbB+tGlQDXE9kBpZarBqHuhQLAOmz8lkKnBxBDuQPELUj9ih6/Br2PRQAMr
40Ddmq3B6HTPQKyu5T+4mKnBokjDQLeLjkD6tKnB6+ZbQHw5VcDLfJjBNcK+QJURikDQ4IvB2eII
QTZO974moHbBcVvNQGchtEDst7HBddvRQDLOSUBBqq/BIyqKQIj5b8DaEY/BD0u4QDoufsDd8ZLB
KxTTQBwvlMAcG4rBury4QKMMjUD1fJfBT5GVQEfojEAL8KbBpdlWQGr2dkA9g5fBKh73QBRp1r/Q
ZnXBJq/aQHIbbMBnaIHBxt//QI5DlEB4Q53BQxgJQRBUKcDAsonB2pSgQJtD2z9Alo3BBb4GQdAs
gUBba4PBd43DQHn1tb6rmYbB8QEYQY37/j9m0HjBt+/AQLT9MEEhFq/BquemQHIHH0FeObjBOwm+
QMcxCcDZW6fBm7+zQFU6nb/9c7PBIR70QMUvH0HDz7vBFHL/QIRXGUGLB67B0Fq/QBqGFUEw6KDB
IVCKQD0GGkGO96XBNAB/QC54Gb9ZgqXB9jmqQKMNNb6pgpzBevv3QADKFL/slKLBa5kAQXcVob/L
sK/BwBDRQOcm+UA/IL7BycMCQSEb8UAPnLjBV7OZQIYZ5kAHQ6PBKBiPQDua8kADCbHBo2iVQNfe
lz+m07HBSdKMQMYG7j9yraTBtXwHQTLEmT9r167B2dLkQMzVRz+dA7jBCjvnQNH/40D8tKbBQoDa
QP9X9z9tUKHB8PIZQDggS8AhrpXBV6N0QCBzGcB79ZvBjohcQNfsg8Acmp7BRkifQDz3i0C094fB
38LSQHIIpUDrO4nBrVEXQYZrOb+97X/BCIENQXxzRb4LSmbBy6WzQAgJtECnurfBw/PrQAI5rEBX
mLXBpGjzQF87U0AvDbLBLcu9QNmyQ0Du2rbBZ8+JQN5TPcBG9YjBBYR7QDfdlcDomYvByvC3QEb6
k8AJB5rBVZvGQLwiQMANEJXB7s7BQEwzsMAf/IbBHPbxQHB0nsBSdY3BsdZ6QAvuj0DVIazBA3oh
QCyebkBfzZvB2qhVQFzvbkDFk4/BtlTjQNay47/v72jBxTrKQC1kcsDmLnXB

>  <OMEGA_E>  (1) 
QE3BPv50ED8=

>  <OMEGA_NBR>  (1) 
     27945

$$$$
50156407
     RDKit          3D

 89 93  0  0  1  0  0  0  0  0999 V2000
    6.0685    1.7768  -17.2836 C   0  0  0  0  0  0  0  0  0  0  0  0
    8.0855    2.9715  -16.6012 C   0  0  0  0  0  0  0  0  0  0  0  0
    6.6739    0.5548  -16.9320 C   0  0  0  0  0  0  0  0  0  0  0  0
    8.6861    1.7559  -16.2445 C   0  0  0  0  0  0  0  0  0  0  0  0
    6.7735    2.9888  -17.1096 C   0  0  0  0  0  0  0  0  0  0  0  0
    7.9896    0.5424  -16.3985 C   0  0  0  0  0  0  0  0  0  0  0  0
    6.7806    4.4541  -19.8854 C   0  0  0  0  0  0  0  0  0  0  0  0
    6.8597   -2.3381  -15.3122 C   0  0  0  0  0  0  0  0  0  0  0  0
    4.5488    4.1841  -19.4210 C   0  0  0  0  0  0  0  0  0  0  0  0
    6.0217   -1.1432  -21.4540 C   0  0  0  0  0  0  0  0  0  0  0  0
    6.8049   10.9728  -22.3789 C   0  0  0  0  0  0  0  0  0  0  0  0
    5.1052   -0.2280  -20.6283 C   0  0  0  0  0  0  0  0  0  0  0  0
    7.4342   -0.5458  -21.5517 C   0  0  0  0  0  0  0  0  0  0  0  0
    5.4219   10.7046  -21.7599 C   0  0  0  0  0  0  0  0  0  0  0  0
    7.2117    9.8358  -23.3330 C   0  0  0  0  0  0  0  0  0  0  0  0
    5.0426    1.1762  -21.2370 C   0  0  0  0  0  0  0  0  0  0  0  0
    7.3901    0.8678  -22.1523 C   0  0  0  0  0  0  0  0  0  0  0  0
    5.4093    9.3597  -21.0247 C   0  0  0  0  0  0  0  0  0  0  0  0
    7.2006    8.4797  -22.6118 C   0  0  0  0  0  0  0  0  0  0  0  0
    7.8569   -2.6840  -17.3822 C   0  0  0  0  0  0  0  0  0  0  0  0
    6.4622    1.8003  -21.3399 C   0  0  0  0  0  0  0  0  0  0  0  0
    5.8157    8.2078  -21.9694 C   0  0  0  0  0  0  0  0  0  0  0  0
    6.9930   -3.8931  -17.0469 C   0  0  2  0  0  0  0  0  0  0  0  0
    5.9915    4.3773  -21.1764 C   0  0  2  0  0  0  0  0  0  0  0  0
    3.7369   -3.4958  -19.1936 C   0  0  0  0  0  0  0  0  0  0  0  0
    6.1345    4.3153  -17.4509 C   0  0  0  0  0  0  0  0  0  0  0  0
    8.6993   -0.7266  -15.9523 C   0  0  0  0  0  0  0  0  0  0  0  0
    6.4451    3.1823  -22.0545 C   0  0  0  0  0  0  0  0  0  0  0  0
    5.8263    6.9232  -21.1377 C   0  0  0  0  0  0  0  0  0  0  0  0
    5.9097   -4.1780  -18.1126 C   0  0  0  0  0  0  0  0  0  0  0  0
    6.1413    5.6770  -21.9941 C   0  0  0  0  0  0  0  0  0  0  0  0
    4.8238   -3.0770  -18.1991 C   0  0  0  0  0  0  0  0  0  0  0  0
    6.3820   -3.5601  -15.7627 N   0  0  0  0  0  0  0  0  0  0  0  0
    5.8271    4.3893  -18.8816 N   0  0  0  0  0  0  0  0  0  0  0  0
    7.9271   -1.9564  -16.1248 N   0  0  0  0  0  0  0  0  0  0  0  0
    4.6004    4.2419  -20.7320 N   0  0  0  0  0  0  0  0  0  0  0  0
    3.3913    3.9477  -18.6947 N   0  0  0  0  0  0  0  0  0  0  0  0
    7.9942    4.5834  -19.7655 O   0  0  0  0  0  0  0  0  0  0  0  0
    6.4510   -1.7499  -14.3184 O   0  0  0  0  0  0  0  0  0  0  0  0
    5.0663    1.7874  -17.6858 H   0  0  0  0  0  0  0  0  0  0  0  0
    8.6308    3.8964  -16.4856 H   0  0  0  0  0  0  0  0  0  0  0  0
    6.1375   -0.3727  -17.0681 H   0  0  0  0  0  0  0  0  0  0  0  0
    9.6909    1.7505  -15.8485 H   0  0  0  0  0  0  0  0  0  0  0  0
    6.0786   -2.1296  -20.9705 H   0  0  0  0  0  0  0  0  0  0  0  0
    5.6051   -1.2544  -22.4660 H   0  0  0  0  0  0  0  0  0  0  0  0
    6.7708   11.9184  -22.9400 H   0  0  0  0  0  0  0  0  0  0  0  0
    7.5504   11.0509  -21.5738 H   0  0  0  0  0  0  0  0  0  0  0  0
    4.0925   -0.6569  -20.6073 H   0  0  0  0  0  0  0  0  0  0  0  0
    5.4955   -0.1587  -19.6022 H   0  0  0  0  0  0  0  0  0  0  0  0
    7.8748   -0.4961  -20.5450 H   0  0  0  0  0  0  0  0  0  0  0  0
    8.0545   -1.1902  -22.1920 H   0  0  0  0  0  0  0  0  0  0  0  0
    5.1832   11.5079  -21.0474 H   0  0  0  0  0  0  0  0  0  0  0  0
    4.6660   10.6865  -22.5589 H   0  0  0  0  0  0  0  0  0  0  0  0
    6.5034    9.8015  -24.1739 H   0  0  0  0  0  0  0  0  0  0  0  0
    8.2246   10.0317  -23.7146 H   0  0  0  0  0  0  0  0  0  0  0  0
    4.6031    1.1132  -22.2434 H   0  0  0  0  0  0  0  0  0  0  0  0
    4.4130    1.8163  -20.6014 H   0  0  0  0  0  0  0  0  0  0  0  0
    8.4068    1.2877  -22.1530 H   0  0  0  0  0  0  0  0  0  0  0  0
    7.0184    0.8056  -23.1857 H   0  0  0  0  0  0  0  0  0  0  0  0
    6.1178    9.4026  -20.1844 H   0  0  0  0  0  0  0  0  0  0  0  0
    4.3962    9.1694  -20.6408 H   0  0  0  0  0  0  0  0  0  0  0  0
    7.4239    7.6837  -23.3374 H   0  0  0  0  0  0  0  0  0  0  0  0
    7.9687    8.4840  -21.8243 H   0  0  0  0  0  0  0  0  0  0  0  0
    8.8588   -2.9962  -17.7120 H   0  0  0  0  0  0  0  0  0  0  0  0
    7.3876   -2.0707  -18.1655 H   0  0  0  0  0  0  0  0  0  0  0  0
    6.8734    1.9254  -20.3274 H   0  0  0  0  0  0  0  0  0  0  0  0
    5.0639    8.1161  -22.7671 H   0  0  0  0  0  0  0  0  0  0  0  0
    7.6347   -4.7805  -16.9425 H   0  0  0  0  0  0  0  0  0  0  0  0
    2.9690   -2.7103  -19.2507 H   0  0  0  0  0  0  0  0  0  0  0  0
    4.1858   -3.6423  -20.1871 H   0  0  0  0  0  0  0  0  0  0  0  0
    3.2752   -4.4360  -18.8576 H   0  0  0  0  0  0  0  0  0  0  0  0
    5.2037    4.4265  -16.8754 H   0  0  0  0  0  0  0  0  0  0  0  0
    6.8275    5.1281  -17.1880 H   0  0  0  0  0  0  0  0  0  0  0  0
    9.6279   -0.8216  -16.5343 H   0  0  0  0  0  0  0  0  0  0  0  0
    8.9444   -0.6239  -14.8849 H   0  0  0  0  0  0  0  0  0  0  0  0
    7.4636    3.3918  -22.4134 H   0  0  0  0  0  0  0  0  0  0  0  0
    5.7610    3.1125  -22.9130 H   0  0  0  0  0  0  0  0  0  0  0  0
    6.5907    7.0159  -20.3522 H   0  0  0  0  0  0  0  0  0  0  0  0
    4.8375    6.7934  -20.6735 H   0  0  0  0  0  0  0  0  0  0  0  0
    6.3999   -4.2614  -19.0938 H   0  0  0  0  0  0  0  0  0  0  0  0
    5.4200   -5.1313  -17.8651 H   0  0  0  0  0  0  0  0  0  0  0  0
    7.1746    5.7494  -22.3643 H   0  0  0  0  0  0  0  0  0  0  0  0
    5.4477    5.6447  -22.8472 H   0  0  0  0  0  0  0  0  0  0  0  0
    5.2838   -2.1363  -18.5359 H   0  0  0  0  0  0  0  0  0  0  0  0
    4.3732   -2.9299  -17.2065 H   0  0  0  0  0  0  0  0  0  0  0  0
    5.7170   -4.1294  -15.2792 H   0  0  0  0  0  0  0  0  0  0  0  0
    3.8067    4.1997  -21.3389 H   0  0  0  0  0  0  0  0  0  0  0  0
    2.5226    3.8080  -19.1700 H   0  0  0  0  0  0  0  0  0  0  0  0
    3.4253    3.9169  -17.6958 H   0  0  0  0  0  0  0  0  0  0  0  0
  1  3  2  0
  1  5  1  0
  2  4  1  0
  2  5  2  0
  3  6  1  0
  4  6  2  0
  5 26  1  0
  6 27  1  0
  7 24  1  0
  7 34  1  0
  7 38  2  0
  8 33  1  0
  8 35  1  0
  8 39  2  0
  9 34  1  0
  9 36  2  0
  9 37  1  0
 10 12  1  0
 10 13  1  0
 11 14  1  0
 11 15  1  0
 12 16  1  0
 13 17  1  0
 14 18  1  0
 15 19  1  0
 16 21  1  0
 17 21  1  0
 18 22  1  0
 19 22  1  0
 20 23  1  0
 20 35  1  0
 21 28  1  0
 22 29  1  0
 23 30  1  0
 23 33  1  0
 24 28  1  6
 24 31  1  0
 24 36  1  0
 25 32  1  0
 26 34  1  0
 27 35  1  0
 29 31  1  0
 30 32  1  0
  1 40  1  0
  2 41  1  0
  3 42  1  0
  4 43  1  0
 10 44  1  0
 10 45  1  0
 11 46  1  0
 11 47  1  0
 12 48  1  0
 12 49  1  0
 13 50  1  0
 13 51  1  0
 14 52  1  0
 14 53  1  0
 15 54  1  0
 15 55  1  0
 16 56  1  0
 16 57  1  0
 17 58  1  0
 17 59  1  0
 18 60  1  0
 18 61  1  0
 19 62  1  0
 19 63  1  0
 20 64  1  0
 20 65  1  0
 21 66  1  0
 22 67  1  0
 23 68  1  1
 25 69  1  0
 25 70  1  0
 25 71  1  0
 26 72  1  0
 26 73  1  0
 27 74  1  0
 27 75  1  0
 28 76  1  0
 28 77  1  0
 29 78  1  0
 29 79  1  0
 30 80  1  0
 30 81  1  0
 31 82  1  0
 31 83  1  0
 32 84  1  0
 32 85  1  0
 33 86  1  0
 36 87  1  0
 37 88  1  0
 37 89  1  0
M  CHG  1  36   1
M  END
>  <OMEGA_C>  (2) 
fzHCQJtt4z+2RIrBDF4BQUksPkBMz4TB25DVQEYFDj+jdIfBTfoKQXTA4D+x9IHBLMDYQM5HP0B3
4IjBpKr/QLvdCj8nMIPBxPrYQJqHjkBCFZ/BUYLbQDWjFcCe/nTBB5CRQDjkhUA0XpvBdLHAQNNT
kr/OoavBCMLZQLKQL0EFCLPB+V2jQGSBab7ZBqXByuTtQGe6C7/OaazBS4CtQAhGK0FcFK7BQMbm
QFxfHUENqrrBolyhQHONlj9L5anB3nvsQHUpXj/hN7HBlBitQFXBFUGvMqjBrmvmQOOsB0Hw5LTB
AWz7QGbHK8CvDovB8snOQKpu5j8quKrBBxq6QCBTA0E8wa/B18bfQA0pecD8X4jB/rm/QM8SjEBX
aanB2ShvQPK6X8CNjJnBEk7EQAAXikCIm4vBLzALQQ0EOr+VPH/Bhz7OQDirS0Csb7DBunC6QAqL
3UAFGqnBEBy9QNOxhcCX5pDBr4XEQAOqtUD886/BZFyaQNfsRMDHl5HBbznMQCLZY8DqM3zB23e6
QMN0jEBzDZfB+ar9QJFs+r+d/4DBNzaTQKO9h0Ax26XB4gpZQGSnfEDNjpXB4ND/QO+qkkCvH57B
vm7OQB77378ZGGXBJx+iQO7J5D+EfI3B9BcKQSJfeUCD4oPBpmbEQMLOvr5qi4jB0Q0bQeYP4D9a
k33BQYTCQMRKCMCGw6fBXV2zQFuRoL9gurPBA6rYQKSxPkEOhbfB8JzxQJfQMEExl6zBkvWCQN8o
KL+u26TB09qvQHl5Ir5g0ZzBJv77QKL6/b4hXKTBJN8AQfJYmL8gibHBv9ylQHcgOEEhYajBLlCV
QBX8KkGfeLTB2hvQQMvSHEE9ZMHBEZgDQQyCIEF1t73BY0yTQLp7jj9x8rHBrDeNQJt96D+sz6TB
a4IGQZ7SpD9NObHBu5bgQD49Tj9SfLnBFMXDQA9xFkG/eaHBbq2MQLK1EkFMIKXB35DtQNjg9UD8
srrBVf/+QIO+B0EvmK7Bp70NQRjCP8A9so3B5WbsQAGHBMDdUpHBvvLbQBJz9j99nqLBYwuiQJTb
AUEII7bBJU/0QM/5mMBQiofBSgM+QOp0LcBjAZrBW/KFQIwbacAof6HB6pxRQIPzjcBk3JbB8ISm
QM6ljUDUAIfB3XraQKAZpEAagYnBtQsaQRxUUr8sRoTBPBwPQSe1H79/KG7B99XuQGkTWUCuTrPB
y1m4QHIzR0DlTbfBaufSQECC4EBf0aLBn8yaQO9j2UBeY6XB8MvMQE1diMAPwJjBRHCtQO0zpMDK
647BmJblQFv7t0AQ6rLBKlOuQJShtEAjx7bB/BSpQG+4CMCbSZTBFvGLQOiDO8DXponBDvK2QDck
hMCud3TBvaBzQCVkhkAPtqrBQHIhQLm2c0AdXJnBKjhbQEuvekD1kI3Bm1PAQBxs4D9moYrBYDQA
QWtnPUDX9oTBOWHUQM5YCD/iJojBqB4KQec03z/vYoLBLVDWQMYJPkAi+YjBgmb+QGDTBj+Y24PB
hAXYQMfcjUA44p7BctfeQFMzF8AQ/3LB4RaQQJNKhkBFtJvBpkG7QCg8jb+x1a3BsxvPQBnHLkES
ubXBA/ueQNacgr6ob6bBknTpQBxSF79/eq3ByQXuQKrJHEHVD7nBU6K+QNBxK0GsParBpEyfQL/l
mj8pGqrBHQLrQDQ4XD/kZbHBiMjYQIe4BkEA6LfBKdSpQFZkFUENAKnBVAX3QIU0M8DQy4rBX5HN
QMOO5D8NvqrBXwnJQPFjA0EHRazBJSzUQNOdcsBmg4fBLxfAQNYGjEDxX6nBxWdtQOerV8BVmZvB
DFfBQHhAiUB1mIvBGPYKQeCzP7+g9IDBas3OQLJsS0BoS7DBokKxQJhT3EBrpKrBl2qnQMJhXMA5
14vBEo3IQJWxtUDhpq/BtWukQIZBa8Dm35fBpSrSQHbUacB583fB2aC4QHcEjECwFpfB6V/7QNN2
+b+wZYHB8fGSQCaWiEBEL6bBBMRUQKAgfkBbI5bBktD+QL0tkUDNpJ3B/9LTQB4y3r/HF2PBdCug
QL5T4T+my43B9rgIQQToeECQ34PB6cvDQBiEzL5ihInBejkaQcTi3j9ggn7BDnG6QGy3CcDyLavB
hByvQEaPhL+XE7bBXvnfQGAzPkHzKbbBVbGzQGryLkHjPbvBOAB8QDNwI7/uq6bBeE2rQJVlor47
NZ7Bwmv1QFoQJL9ONqXBHKD9QNbNm7/RqrLBvG33QBIuH0ECdcHB308FQW5kHUHy8LPBKqjZQKm6
LEFvo6TBUtamQDTfN0ENY6jBvnaQQEUcoz/fELLBequMQJGv5z/mYaTBPw4GQWn2nD+5yLDB/a3g
QFgSZD+czrnBIVm9QL2xBUFKZb3BYCnwQPlj9EC967nBtnWgQNQbE0FFmKDBEzyNQJyZFEH1Ha7B
QZsKQfuBVMBRkYzBLBftQFm0DcBa0ZHBb5HaQLCT8D9gmaLBx+HkQPnOA0Hy46bBOSDdQN3/mcAZ
44nBM4poQGVAYsAZR6TB2z9AQDYNgcACbJfBxNBdQD2aFMBFxJnBKRCjQALti0A2KIfBGczWQAiJ
o0C9QInBmWEYQdovYL/RjobBKzERQQX4JL82iXHBb/XvQNGfV0BT07LBfve5QEh4SECxYLfBKtSt
QAme1kBTAKLBUmCRQKgA30B4T67Bj5CPQJFkgsBBy4fBcqOgQKWjGMDwJYrBkyrrQAYVvEDcra/B
zEi9QLeGsUBv7LfB80OsQDYql8DYsJnBZwy7QDzUQMAaCZzBEkfJQLCGi8C/iW3BxTt0QKgRiEDf
OqvBvckdQOVhdkAUHprBcl5VQDRze0A9JY7BAeLBQC6y8z94+ojBqBECQXw8RUC/t4TBTmDUQA4f
Mj+Lg4XBrlMLQU9O8D8oUIHBGKLZQLGYRkAJb4jBnxj/QPy+LT/8oYHBi8zZQGSyj0AHGZ/BlW/a
QHMAFcCOWXXBvp+SQN51hkDQMZvBfY+6QElJlL8rvavBqvvgQMURKUElKLDBwbKdQK9eer5bAKXB
ptfoQInqJL+AiKvBh2u9QMuHIkGKTKjBt6/3QAIZFUFqlbTBM2meQOHylj9EhKnBYr/qQMLsRz8n
ErDB3GacQKAjFEFD5K3BF3DXQLWIBkFIYbrBLRYGQYXZLMD6SYjBUcHMQETY3z/W8anBd7OwQJwx
AEE8N7PB+T3kQGI6YcBeW4rBfXvAQOdci0B9UKnBEnWUQKzOmcCtj5PBI7vFQEGEjUBZlIvBtvwJ
QX7ZD7891HnBIY3OQMNBR0CF46/Bp0i8QOkJ3kCSwqrB/7bJQKe6N8CTbpPBDx3GQKIhs0Ayf7DB
fQiaQFwHUsD+aZPBCirOQIWdXsDCDoDBeIq7QB4fjkD3AZfBzl7+QBm/5r+tnH/Brd+TQMxBiEB4
sKXBEQJcQOyVfEB1QZXBn1AAQU4hlECoQJ7BKa3HQBtb7L+49mXBWpShQE7w9D9fDIzBuEULQUO1
f0DNfITBRBDCQLGqYL54zoXBzZwbQdpR7z+s2XzBNpW5QAJpC8AMc6jBfPGuQGLblb+YC7TBcNTS
QJcdMkEm07bBOW74QAktM0Hn96vBsHN5QH4DIb8lLqXB0FWpQODua75sspzBjZP0QKaqI7+UPKPB
4hj9QDQlp7/4aLDBI67LQFXDGUF4jaHBAletQGT+MEFHTaXBuVsIQZoTGkGCP7rBSywDQXo1DEFg
7q3Buw+RQDxglT+fqLHBrLWKQGju6T/ZY6TBkeYFQTlckz9OdK/BdRHhQKpsQT97h7jBUOmEQJ2/
DkHw6qfBIxKMQC+THUH3GLTBkVjLQBMFD0HjeMHBdgroQE6270Br5rzBimgTQU6mVcCgoYXB4usK
QSYICcAGeI/BlrvYQICp8D+gvKHBRVOYQFhZ8kCHgbjBCNPsQCSbkcCmjIzBilBkQEG3ocAgi5PB
pnijQMn6psCyzprBBcKjQLq0p8A6cIzBYyioQMBMkkCA9YbBYVvcQM6Fp0A7zInB5JkaQaT+HL8z
lH/BM+oJQV6I8L6BSmjBOMLvQA6uUUApgLLBxJe5QLvPQkDe77bBRZzYQClz6EAKO6bBEjWhQC+m
2UC+PqXBKZXLQI+N47/0jpLBjsrXQBCwSsBDJJvBfG3nQO3+s0CSVLPB+WuwQGwRsECJYrfBy3KK
QKvhNsCdiZrBK7yKQI5VOMAlK4zBFZ65QNVNhcAgr3rBLJR0QJCbh0DnfarBKjEkQL+QckDS9pjB
RAxfQLbVekCJRI3BShK8QGpM8T9sjIjBEV8AQT40PUCGCIXBurLMQIW1KT+b2oTBIbQIQU8A3j+m
Y4HBF8vVQDa8QkD5XYjBiof3QInxFD8gIIHB7pTYQHEEjkDm3p7BfUIGQUuHH8DncInBjgWRQH01
hkAwRpvBGm29QEQxl7+q9qrBPwjhQDlSLkGtaLPBDKieQL2Qf74z7KTBl/TqQGQIGr+d+6rB/n+0
QIM+K0EtYq7BigHsQM2xG0FS+brBCLieQNr8kz/m3qnBJmvrQH8XTT88/K/BXfmxQHbUFUFca6jB
uYnpQBkiBkGZHrXBV2XSQLyGI8BBGHzBgZrMQCck4T9GFarB+e+8QBrxAkHU6q/BPyDEQL16PsD+
E4nBvqm/QIEoi0CfOanBnP51QE8Hb8AdmJjBWWfDQOtRjECceIvB+oYEQav/J79YBnfBZxbOQCtU
SEDv/a/Bq2e7QALh3EAvM6nBwuOpQMqRiMCvc4jBUUHFQPBbtECW46/BxPqaQH05l8CCmpPB6n7s
QEjMTMD4po7BiMS5QJl0jUDU6pbBiMX6QOzt87/qXIDB/P6SQGCDh0DewqXB9I1XQNzsfUD0hJXB
lG3/QHLFkUBs1p3Be8oYQdshGcC7f4zBD6mbQKzp9z/fhIvB2HYKQSFGdUCUR4XBK8S4QGSgYL5F
2oTBeiUZQR3K1j+9in3B4se9QFiQCsBvB6fBNFiyQJShpb9mRLPBmGHhQE1hPUGG9rfBhB/5QLUS
L0H3AK3BpS98QA0IKr8uVKXBqMSoQHRvOb7qgpzBTqv2QGIGCr8Ts6LBaQIAQXGyob8kpK/BgFSu
QBdbOEEruKjBwyycQBZ/K0EwvrTBJy/VQNqeG0F0rMHB6VEGQS3xHUEvE77BBHuSQGM0jD97G7LB
s9GJQBzJ5z/uGqXBuQoGQTSEmj97ia/B5pPhQPzuOT/FabjBzczIQBsIFkGfuKHB0VWRQKKsE0Eo
TqXBN1DvQElM8kDV4brByRgBQTWvBUHJ167BMX67QNWb7b+qxXTBxMzWQFQhW8DzhnHBQM7XQLfS
8j9r0KHBIKSkQKn9AUFfRLbByVSxQIRwC8Ac6IzBvVxiQGIkg8CGh6DByWU9QJqJacDoZ5PBWUGK
QJXsL8BlaZnBtM2lQA/wkUCv64bBN8faQC+JpUAhlonBtxsWQWNKH792onfBlXT+QBOKI79yPmbB
cTnvQN2bU0ComrLBtBe5QAksREBACbfBiivTQJRo30A7vaLBQDubQEav2UB0uKXBcb69QOreocAG
4ITBD6ONQBT5gsCSZIPBv3fmQAAVtkCnxbLBZFOvQH86s0BNxLbBKnyLQJyxtsBQ3pLBngq3QBrj
mcDN35jB7nLwQMY4ccDUJ5XB1nxzQCM2hkAJqqrByjYgQEWgdECuXZnBQC9ZQELGfEDzhY3B2he4
QJ1kAUC0NoXBV+8AQQm6NEDDsIXBXk3GQICaRz8HP4HBUQoIQeyZyj8ouIHBYMrVQKJwQ0BbVYfB
HF/yQL20Dj+P3X7B1NbZQLH/jkAhGJ/BnYgCQW02A8AZgozBwSOTQFaxgkBsBpvBOKXAQBoRl7/3
4qjBbVPeQHLyLUHIMLXBSWeeQK3yT74ft6TBLZTtQJ88C79deKjBTpW0QBO4K0EhtK7BawjkQMj0
GkFE6rzBmgugQAqDjz9G8KrBUgfvQAHpST9aoK7BGJezQHNhFkHsjKjBZ0LjQAyHBUFO3LbBpG/V
QGqWN8C5LX/B/UbNQP3z4T+4EqrBcoO5QGwOA0GlMrDB1efUQMaDc8DTPonBrwfAQFTPikAAXanB
wO0PQW/l2MDmU4DB7o7GQMfkjEC6ZIvBa/8AQS67RL/n1XXBl9LPQA/6R0AQIrDBlwO6QBDw3EAc
ZKnBCFHkQNznp8C/pIbBKNjCQBQktEBBJ7DBY4QJQcYkqsAzfoLBw7XwQCahScBIEpHBoBC8QLt9
i0Ar4pbBrB/3QL4r879u84HBTueTQIwYhUD7iKXBPzRdQAGKc0AzF5XBtDAAQW3AlUCCUp7BA8kP
QYTIrL9dEZHBCmmWQH7cC0BZo4bBtWAMQeB+ZkCee4fBk3evQBWFg7v+LH/B5+gYQegRtT/7aoDB
KGvAQNCOBcBT56PBaiK5QMNmub84NrHB/DTdQGnjPEE51bnBNKH5QH1xLkFkpK/BWCh9QL0UKL86
tKXBdDmkQCPZULthL5zBVDf2QMH6t75lEaDBqWECQRm2nr+uDazBbmeyQI4DOUGG9qjBJSaZQCVW
LEFoNbTBROfJQAAhG0GYz8LBs3EBQZCUHEFZEsHBFrWYQL2QbT/DZ7PBjiyIQPA36D/am6fBm4YH
QVvynT9U0K3B3zvoQElFGj+uIbfBdYvNQNFRFkEkm6LB8JuUQBzdFEFHcaTBITXlQP2z8ECorLzB
r/L+QFjRBEFHcLHBKF62QGlJF8DUYH3B/t/cQEQ8W8DudnDBY2XUQO/N+D/6kqHB8B2eQC5rAkHH
trXBjRO0QIgGd8DOY4zB4YIgQVQA2sCyyHrBxS4FQYin5sBfiHTBtasOQTB268AYx4fB2NGpQL5c
lkCo5YbBVADgQCuppEBLGYrBR3wSQTJwOb8I+3PBBQ/zQI4Abr/dG2bBWFPxQOthU0DhbLLBb/G7
QD6RQ0DWX7fBdyvTQNzn30DQR6PB97eaQP512UAndaXBFR7PQIJktcD9eoDBEQTiQLRAu8D7+I3B
iiHjQI91tkBNnLPBrRWrQF9WskBqobbBktMKQZupl8BwEHbBglAUQUN4nMAgi4jBh5D0QBHdXMD3
o5jBpjx0QIJKg0BQQKrBCGwlQD1vaUCwzZjBw2hgQKjNcEClG43BZJS2QCr+DUD6qIXBd9MAQSbq
N0D98obBBOLCQD1CfT/HLYHB9wMHQY4w0D8FtYLBut/VQDQlS0CUaojB/6fuQJ14LT+Xn3/Bj13d
QHc9kUBWgaDBbSYHQVIhLsCis4bBIHeWQIVzhEAOwpzBdbzCQHtBlr/X3KnBJJvMQFTrJUH/zaTB
E2mgQD0HOr4hB6bBm/bvQCVME79ZoqjB0kWfQHgfHEGybaTBkxfuQPJ6FUHKsqjBXP2jQFFZkT8o
SKzBFsTzQEpaQz/Gua7B67uSQG3FEkH3cK/BFzDhQODTC0EHpLPBF/TFQA5DCsALnIXBN1TRQBob
4j+y3qrBDnmzQBbwAUFvhbPBbOLKQF0PVcAQOo3BY8LEQGMmi0By5KrBiQhbQOOGaMDx/pTBnnfI
QHmekECV6YzBO+P7QNwXLb+y4nbBwvDVQEoMR0A4KbHBOc+wQMLa2kB1kqzBHFitQKpRkMA2E4rB
m2DHQAwItEA29LHBhDF6QGxXhMBZAIrBF9r3QIeobMCLUYzBA+6+QOkFjkB5cZjB9KbxQJSH3r9B
N4PBaHGYQMushECtRafBjm9iQGVieUDdAJfBS/ABQZGrl0BBhJ/Bs4gaQUNRL8BPO4XBJSCVQHio
G0DY/obBUdoMQZGDZkCcFYnBoL6qQDE9jj6ehn3Bj8UXQaTCsj/Dq4HBMo/AQHAJBsA4E6XBiBG9
QCentL9mVrLBJ3bMQHinM0GeTqrBrW7VQGtcK0Flu5zBKIKAQA4LHr8zU6fBavqkQGr/ljxKc53B
Znj2QMuwzb4fGaDBCscDQViHpL+d26vBC5meQHNHD0EQap7BTS2IQMyiKEGwM6LBUKIGQQ19HUHj
gqnBxKDwQOiFCEHZxqLBPVueQAj1bz+P0rTBGb6LQAGl6z/CTqnBQtgJQRyBmD97T63Bb3bvQAdB
FD+zVbfBfl1mQGgYC0Fpva7BxPWQQJzpH0E3R7XBmDHiQDePGEEZtrnBo0b4QPd2/kDhwLXBwPmz
QHj/q7/sbInBMl+1QGheHsDPh3zBa33WQG8N/D9AUaLBkOKqQLdW+0C9yLvBMlrDQGmJQMBmbpXB
D5gWQLZ1WMDxhpTB2Jt/QIY8L8CvSZfBA7BkQAR5jcCTBJvBBq6rQGCgm0BJqYjBlpPiQImyp0BH
q4vBi0UPQUerLL9uzXPByqHqQPZqXr+722fBYwj4QDBuUUDk7LLBRwDEQIKMQUB+s7jBXznAQDso
4UC70aTBq+yOQEPW0kCUSKvBtDeyQIJ5qsA71o/BmVW2QHZAm8CTBILBKDzpQBMNvEA0SbPBUNq3
QKiIrUDYrrnBo8JvQOPsVcBmC4TBzdZUQDPRoMBJxofBlmACQXARkcCqTY/BQJZ+QPX0gEByIazB
uJorQPSpbUBJ3JrB3qhjQBHweUBQAY/B

>  <OMEGA_E>  (2) 
4DcAPWDRzT0oZ48+cNToPjKXMD9sszM/

>  <OMEGA_NBR>  (2) 
      8356

$$$$
50156417
     RDKit          3D

 88 91  0  0  1  0  0  0  0  0999 V2000
    6.0560    1.7882  -17.2490 C   0  0  0  0  0  0  0  0  0  0  0  0
    7.9795    3.0949  -16.5013 C   0  0  0  0  0  0  0  0  0  0  0  0
    6.7040    0.6055  -16.8438 C   0  0  0  0  0  0  0  0  0  0  0  0
    8.6204    1.9203  -16.0884 C   0  0  0  0  0  0  0  0  0  0  0  0
    6.6912    3.0365  -17.0624 C   0  0  0  0  0  0  0  0  0  0  0  0
    7.9913    0.6728  -16.2462 C   0  0  0  0  0  0  0  0  0  0  0  0
    6.7466    4.4392  -19.8446 C   0  0  0  0  0  0  0  0  0  0  0  0
    4.5009    4.1445  -19.4672 C   0  0  0  0  0  0  0  0  0  0  0  0
    7.0290   -2.3842  -15.4221 C   0  0  0  0  0  0  0  0  0  0  0  0
    6.0729   -1.1909  -21.4238 C   0  0  0  0  0  0  0  0  0  0  0  0
    6.3573   10.7122  -22.9829 C   0  0  0  0  0  0  0  0  0  0  0  0
    5.0972   -0.2870  -20.6586 C   0  0  0  0  0  0  0  0  0  0  0  0
    7.4884   -0.5956  -21.4024 C   0  0  0  0  0  0  0  0  0  0  0  0
    5.5946   10.7071  -21.6397 C   0  0  0  0  0  0  0  0  0  0  0  0
    7.6044    9.8167  -22.9200 C   0  0  0  0  0  0  0  0  0  0  0  0
    5.0871    1.1296  -21.2403 C   0  0  0  0  0  0  0  0  0  0  0  0
    7.4900    0.8170  -22.0058 C   0  0  0  0  0  0  0  0  0  0  0  0
    5.5678    9.3225  -20.9628 C   0  0  0  0  0  0  0  0  0  0  0  0
    7.2501    8.3453  -22.6117 C   0  0  0  0  0  0  0  0  0  0  0  0
    6.5109    1.7535  -21.2616 C   0  0  0  0  0  0  0  0  0  0  0  0
    5.8505    8.1742  -21.9548 C   0  0  0  0  0  0  0  0  0  0  0  0
    6.0120    4.3290  -21.1654 C   0  0  2  0  0  0  0  0  0  0  0  0
    3.6065   -3.2470  -19.0777 C   0  0  0  0  0  0  0  0  0  0  0  0
    6.0011    4.3248  -17.4396 C   0  0  0  0  0  0  0  0  0  0  0  0
    8.7058   -0.5360  -15.6738 C   0  0  0  0  0  0  0  0  0  0  0  0
    6.5321    3.1280  -21.9957 C   0  0  0  0  0  0  0  0  0  0  0  0
    5.7645    6.8661  -21.1635 C   0  0  0  0  0  0  0  0  0  0  0  0
    6.1584    5.6231  -21.9969 C   0  0  0  0  0  0  0  0  0  0  0  0
    4.5111   -3.7765  -17.9656 C   0  0  0  0  0  0  0  0  0  0  0  0
    5.9940   -3.4740  -18.2709 C   0  0  0  0  0  0  0  0  0  0  0  0
    6.8880   -4.1236  -17.2026 C   0  0  0  0  0  0  0  0  0  0  0  0
    5.7536    4.3697  -18.8806 N   0  0  0  0  0  0  0  0  0  0  0  0
    4.6075    4.1704  -20.7757 N   0  0  0  0  0  0  0  0  0  0  0  0
    3.3163    3.9176  -18.7828 N   0  0  0  0  0  0  0  0  0  0  0  0
    8.1144   -1.8059  -16.0689 N   0  0  0  0  0  0  0  0  0  0  0  0
    6.5485   -3.5978  -15.8720 N   0  0  0  0  0  0  0  0  0  0  0  0
    7.9497    4.6086  -19.6763 O   0  0  0  0  0  0  0  0  0  0  0  0
    6.4621   -1.8230  -14.4907 O   0  0  0  0  0  0  0  0  0  0  0  0
    5.0764    1.7413  -17.7012 H   0  0  0  0  0  0  0  0  0  0  0  0
    8.4755    4.0476  -16.3886 H   0  0  0  0  0  0  0  0  0  0  0  0
    6.2233   -0.3510  -16.9870 H   0  0  0  0  0  0  0  0  0  0  0  0
    9.6042    1.9730  -15.6460 H   0  0  0  0  0  0  0  0  0  0  0  0
    6.0910   -2.1846  -20.9523 H   0  0  0  0  0  0  0  0  0  0  0  0
    5.7360   -1.2859  -22.4666 H   0  0  0  0  0  0  0  0  0  0  0  0
    5.6900   10.3422  -23.7753 H   0  0  0  0  0  0  0  0  0  0  0  0
    6.6668   11.7418  -23.2153 H   0  0  0  0  0  0  0  0  0  0  0  0
    4.0847   -0.7112  -20.7281 H   0  0  0  0  0  0  0  0  0  0  0  0
    5.4035   -0.2400  -19.6032 H   0  0  0  0  0  0  0  0  0  0  0  0
    7.8436   -0.5450  -20.3625 H   0  0  0  0  0  0  0  0  0  0  0  0
    8.1604   -1.2398  -21.9884 H   0  0  0  0  0  0  0  0  0  0  0  0
    6.0815   11.4202  -20.9583 H   0  0  0  0  0  0  0  0  0  0  0  0
    4.5582   11.0260  -21.8248 H   0  0  0  0  0  0  0  0  0  0  0  0
    8.1217    9.8609  -23.8898 H   0  0  0  0  0  0  0  0  0  0  0  0
    8.2717   10.1934  -22.1309 H   0  0  0  0  0  0  0  0  0  0  0  0
    4.7002    1.0896  -22.2692 H   0  0  0  0  0  0  0  0  0  0  0  0
    4.4300    1.7624  -20.6257 H   0  0  0  0  0  0  0  0  0  0  0  0
    8.5055    1.2340  -21.9363 H   0  0  0  0  0  0  0  0  0  0  0  0
    7.1908    0.7544  -23.0625 H   0  0  0  0  0  0  0  0  0  0  0  0
    6.3321    9.3016  -20.1719 H   0  0  0  0  0  0  0  0  0  0  0  0
    4.5744    9.1669  -20.5169 H   0  0  0  0  0  0  0  0  0  0  0  0
    7.2654    7.7777  -23.5538 H   0  0  0  0  0  0  0  0  0  0  0  0
    8.0092    7.9396  -21.9268 H   0  0  0  0  0  0  0  0  0  0  0  0
    6.8585    1.8931  -20.2273 H   0  0  0  0  0  0  0  0  0  0  0  0
    5.0813    8.1768  -22.7411 H   0  0  0  0  0  0  0  0  0  0  0  0
    2.5575   -3.4745  -18.8372 H   0  0  0  0  0  0  0  0  0  0  0  0
    3.7343   -2.1581  -19.1670 H   0  0  0  0  0  0  0  0  0  0  0  0
    3.8767   -3.7272  -20.0298 H   0  0  0  0  0  0  0  0  0  0  0  0
    5.0420    4.3919  -16.9052 H   0  0  0  0  0  0  0  0  0  0  0  0
    6.6395    5.1743  -17.1553 H   0  0  0  0  0  0  0  0  0  0  0  0
    9.7504   -0.5173  -16.0179 H   0  0  0  0  0  0  0  0  0  0  0  0
    8.6800   -0.4674  -14.5762 H   0  0  0  0  0  0  0  0  0  0  0  0
    7.5709    3.3412  -22.2883 H   0  0  0  0  0  0  0  0  0  0  0  0
    5.9076    3.0417  -22.8971 H   0  0  0  0  0  0  0  0  0  0  0  0
    6.4404    6.9357  -20.2984 H   0  0  0  0  0  0  0  0  0  0  0  0
    4.7303    6.7377  -20.8114 H   0  0  0  0  0  0  0  0  0  0  0  0
    7.2042    5.7250  -22.3224 H   0  0  0  0  0  0  0  0  0  0  0  0
    5.5044    5.5596  -22.8791 H   0  0  0  0  0  0  0  0  0  0  0  0
    4.2336   -3.2956  -17.0160 H   0  0  0  0  0  0  0  0  0  0  0  0
    4.3759   -4.8647  -17.8788 H   0  0  0  0  0  0  0  0  0  0  0  0
    6.2534   -3.8795  -19.2600 H   0  0  0  0  0  0  0  0  0  0  0  0
    6.1530   -2.3856  -18.2677 H   0  0  0  0  0  0  0  0  0  0  0  0
    6.7350   -5.2128  -17.2134 H   0  0  0  0  0  0  0  0  0  0  0  0
    7.9417   -3.8991  -17.4245 H   0  0  0  0  0  0  0  0  0  0  0  0
    3.8416    4.0931  -21.4140 H   0  0  0  0  0  0  0  0  0  0  0  0
    2.4686    3.7596  -19.2892 H   0  0  0  0  0  0  0  0  0  0  0  0
    3.3097    3.9120  -17.7828 H   0  0  0  0  0  0  0  0  0  0  0  0
    8.5113   -2.2891  -16.8493 H   0  0  0  0  0  0  0  0  0  0  0  0
    5.9521   -4.1350  -15.2755 H   0  0  0  0  0  0  0  0  0  0  0  0
  1  3  2  0
  1  5  1  0
  2  4  1  0
  2  5  2  0
  3  6  1  0
  4  6  2  0
  5 24  1  0
  6 25  1  0
  7 22  1  0
  7 32  1  0
  7 37  2  0
  8 32  1  0
  8 33  2  0
  8 34  1  0
  9 35  1  0
  9 36  1  0
  9 38  2  0
 10 12  1  0
 10 13  1  0
 11 14  1  0
 11 15  1  0
 12 16  1  0
 13 17  1  0
 14 18  1  0
 15 19  1  0
 16 20  1  0
 17 20  1  0
 18 21  1  0
 19 21  1  0
 20 26  1  0
 21 27  1  0
 22 26  1  6
 22 28  1  0
 22 33  1  0
 23 29  1  0
 24 32  1  0
 25 35  1  0
 27 28  1  0
 29 30  1  0
 30 31  1  0
 31 36  1  0
  1 39  1  0
  2 40  1  0
  3 41  1  0
  4 42  1  0
 10 43  1  0
 10 44  1  0
 11 45  1  0
 11 46  1  0
 12 47  1  0
 12 48  1  0
 13 49  1  0
 13 50  1  0
 14 51  1  0
 14 52  1  0
 15 53  1  0
 15 54  1  0
 16 55  1  0
 16 56  1  0
 17 57  1  0
 17 58  1  0
 18 59  1  0
 18 60  1  0
 19 61  1  0
 19 62  1  0
 20 63  1  0
 21 64  1  0
 23 65  1  0
 23 66  1  0
 23 67  1  0
 24 68  1  0
 24 69  1  0
 25 70  1  0
 25 71  1  0
 26 72  1  0
 26 73  1  0
 27 74  1  0
 27 75  1  0
 28 76  1  0
 28 77  1  0
 29 78  1  0
 29 79  1  0
 30 80  1  0
 30 81  1  0
 31 82  1  0
 31 83  1  0
 33 84  1  0
 34 85  1  0
 34 86  1  0
 35 87  1  0
 36 88  1  0
M  CHG  1  33   1
M  END
>  <OMEGA_C>  (3) 
IcvBQH7j5D8C/onBHFj/QG0SRkC0AoTBGofWQDAEGz8VwIbBD+0JQTrN9T8ktYDBFh7WQAxWQkDd
f4jBiLj/QPU5LD8o+IHBX+TXQAwOjkCtwZ7BGAeQQKyfhEDRvJvBRu3gQCuXGMAMwXbBz1TCQMZu
mL/jY6vB1m7LQPtkK0EA3bfBhhyjQJ71kr7jRKXBBqHvQJF6GL8JOKvBmwazQC1QK0EvHq3B4Fbz
QCIRHUE7XLfB7smiQIiWkD8M7KnB1q3vQBIpUT/cC7DBjSuyQNEoFUHQs6fBtQDoQHeGBUG35LTB
LVnQQLxz4D+6F6rBXje7QF3JAkFho6/BVmLAQP+GikDKUqnBjNBmQIrPT8Adn5jBTQnAQB5likBl
hIvB8EoLQfs5Cb/cx3rBWgfRQFswSEAy96/B2Ha4QFa320DHTqnB4BHFQD/ws0C4+a/B7FqQQIax
ccCTuY/BAs+/QBNWXsDfKpLBa2rcQDH0g8ACn4nBZR24QNfUi0BkC5fBanCTQLNzhUCmNKbB5D1U
QNG5ekApQ5bBrNQBQW4n578wjYDB84zRQM5CZsCj833BMmT+QJx5k0AWaZ3BecnOQJJZ6b/72WfB
snGiQAvi3j8JnI3B2psHQcSFgUD0G4PBjCXHQAWws75X5YfBwKoZQUiL/D8bVnrBrunCQA7QC8Bn
nqfBfY23QBmYpL+gu7PBtxS2QHp5JUHPM77BkFbVQGfeO0EBubnBtrWCQDERNr8a06XBMemsQPa4
db5M05zBx/76QIaCC79x5qLB+JACQXyynr886K/Bm5vCQCW5NkGgqqfBvtyRQHFqMEE3ma7BYvIB
QUjGHUFKHr/BB1kEQSAYI0EiDLHBF2iWQHN3iz9GJ7LBSMKNQKWW4T97AaXBlBYIQT/znT+bfa/B
CRvmQDsgQT/xf7jBO6DKQGrTFEEVYKHBI2GSQKOrEkGUIqTB533oQPPi+EAnbrzBwyUAQQkR/kAL
aq/BO3nbQJRR8j+c0aHBHpqiQDPUAkHO7bXBYK0jQLddXsCdspbBnv5uQBAfCsDwVZnBdRt4QK+K
bsDxPKDBblihQGaKjEDRPYfBFXfUQNKTpUD3PYnBuwEcQXFsBL+jJIDBPOEKQWJM775KOGnBc0Ty
QAPWVUByTrLBNwu9QNarQkBGLbfBdhfOQO/w3UASY6LBsF6XQHyb10DCfabBD4nmQDczt0A9lLLB
LySwQGDosUBrCLfBUHmHQBzrUsDKIIjBuweMQF6rm8DLB4/BoBvIQHJJeMCNFJrBSOXEQPOsGMA0
JJLB0oTXQFXPpsAQtYnByiL+QDGLecBlZYvBd9x1QKP6gkDoT6vBl/0dQBydcEBaUJrB59JTQNJd
ekA8Q47BXi4IQTaAEsBsy4bBrHe+QBJShMBuaHTBKOfAQEOc4D8naYnBEIL9QNKgSEBL3IPBt5HW
QKRaGj8vzoXBPHoJQStH/z+FPoDBGyvUQNKeQUDhMojBkmz/QOJwOz+o5oDBj4bXQE20jEBFdZ7B
jzaPQOP4g0Au/5vBdOb6QIkMJsBes4LB2ZLBQHU2mr/ohKvBulTdQMkjLkHQ87LB7CmjQKkLk759
RKXBMBLvQATTH79irqvBwh+wQKoVKkHng67B5HPrQNrNG0G8XrrBqiWjQCrOkD9p1KnBeAjvQEpX
Sj/qdrDBE0OuQBmoFEHLkqjBLsnpQA82BkFKh7TBTejQQA3I3T8QMarBNYW8QIcQAkG34q/BtEHB
QNPtiUDIMKnBNH9bQH60T8B07ZjBPBS9QLEniUAKa4vB5fYLQbF/3b6QWHjBVtrRQLBQR0A35q/B
vGy7QJFR20DlIanBVcjHQB9Ss0A9sa/BitKIQPRWcsDzt4/BXBS4QNY0dsDZApPBbmfSQFFPkMDk
GIrB0s22QOVRikAz/5bBCNSTQDShhUAebqbBoFxRQOwzeUClz5bB3K39QNUH0L8kzXXBxHTbQONs
Y8CnloHByN39QHMAkkAg1JzBLZcJQbgsJsDAborB072hQLZh1T+eFI3Bbl4GQQxDg0DGUYPBOzfI
QIGOvr5kw4bB3F0ZQU1nBUDZ2XnBhz/CQLN2DMC0r6fB3e+1QBAQp78UybPBs1XdQKc3PUHofbfB
RvjzQBJfL0H4PazBhYmCQFg1Mr/yuKXBvXitQOsYgL7I25zBznj7QMLgFL/Vc6PBv+EBQUP9or8k
jbDBip6nQBcMN0GU9KjBECuZQO7LKUFSL7XBFf/VQDg5G0EVV8HBRDUGQRDLHkEmEr3BuBeWQLpn
jT/Z/7HBptKOQPh44j/nxaTBid8HQcPzmD8KLrDBZ0DkQIqdPD+g1LjBDZHDQPNfFUHVk6HBazqN
QFvCEUHI5qXBhdbxQKe58kATMrrBWpcAQUVQBkEz9K3BG/DcQKqq7D9c+aHBtailQD2EAEE4iLbB
S+8XQPA7TcA8eZbBxmxxQPTzDsBKB5vB4CZiQDv7ecAw6p/BULqdQM4qikDQbIfBqCfQQNIPpUDI
9ojBs3QZQZ4TLL8+fYHBlhsSQbdKC77kjGjBWivzQAzjVEBNLbLB+gG+QEukQkDWJLfB2w7SQOXK
3kDrcqLB/d+aQJv31kDL9qXB4aPpQMnCtUBTBbLBjLuzQEP0sUDM6rbBUWKFQIwBSMB2vYjBvX57
QGmEmcBdoI3BZDW7QGTljcApaZrBlQbEQLLoNMCqY5TB+jrAQO5eq8C5xobBdcPwQDsGnMDPc43B
Qb93QIUshEDSuKvBfugbQJ83cECSEJvBqz5PQOyOd0Bx0Y7BlRbtQNNV378SQWjBE4jKQDv6ZcDq
nHXBQAy8QDN53j9KT4nBPDb9QFaJOkCO9IPBKFvOQGePBD+lA4bB97UHQXDQ2T+8rYDBsG/TQIE1
PEAhKojB0hD4QEYgAT9KnoHBtHzXQD5oi0CKmZ7BGmePQI3ohEAjbpvB8CH7QP3HOcBfdofBGFC8
QFLhm78rhKvBEHngQJSMLUHvQbPBsoOfQPtOmb7jxqTBWv3pQFT9KL9vDKzBeH6zQFcAKkFLkq7B
qlXtQH/yGkEDqLrB5OmeQFZ8jz/KY6nBQPfpQNwgQj+/tbDBkEqxQNyvFEE6iKjBtC/rQKBzBUE+
ubTB0NzMQACJ2j/QNKrBnBm+QPjbAUH/2q/B3m+/QPVuiUBzHKnBiyVsQLH8UsCmT5rBwiLAQGGg
iEBYSYvBBRAGQVy6Rr9ki3vB0pbNQCJqRUCw+q/Bio28QHoH20D7DKnBWk3GQLyWskDTs6/B7JOf
QF4VYsALCZTBZHaUQN/scsDmNojBhne7QJuAiMBRvIHBku+3QFBGikDkz5bB5GWSQPp0hkDh5qXB
pOpSQAMtfUD95ZXBAKUIQeAa27+otobBpE7aQL2mS8A9S4DBEEX+QPa9jkD1WJ3BmJgCQZGqbMAd
e47BGkOcQL2i4D/hsozBOqEHQXY2dUAiQIPBtp28QAx4zr5r14bBw7cXQVbA1z9X2nrBMBG9QAf8
DcAC3qfBQz6vQLL3pL/eqrPBCqjgQJqJPEG73rfBp7H3QASzLkFIq6zB9H59QKuJM7+bwaTBZ8ar
QJ/kh75PiJzBrJr3QGFQIr+m76PBAqD9QCQIqL/iJ7HBMfSrQIchN0HJBanByvubQBbVKUHIHrXB
qmPXQO96GkFjiMHB4BwHQeiNHUHUgb3Bq4+QQK8TjD8YbLHB9I+LQGwB4j/iJqTBFW0FQdY8kz/N
mbDBvlfeQFe/Nz+RArnBMUPHQNNIFUHTqaHBq2aQQA0sEkH9qKXBb0PyQHjg8EDNYLrB6YgBQcpl
BUFaQq7BPxbaQEec6T8GG6LBAa2mQI+FAEHSY7bBWnZ7QPzmRsA4xKLB3g5DQDH4hcCvsZnB4V5K
QKBLG8C3+JbB1sqhQKIMjUAj94bBBHTWQPFsokCuHYnBotYVQSecDr8Qk3TBPXb3QFS1nb/WTW/B
BoDuQEpOUUBoubLBqR24QJlzQUA877bBEWDUQDmw3UA+m6LBHWicQPLw10CxjKXB1snnQA3Ns0DX
ZbLBdPqwQCbqsUCws7bBXH+wQHHnjMAyW5fBXSe0QB8qKcA7opTBnjSIQOdhN8A7qITBrCh3QAtQ
ksDE1IfBw6mwQB2jk8BKrHPBghLLQGgHo8CsAYbBqCxzQPu2hUBq86rBBgkcQKO1dUAi6JnBQxNT
QOGGe0Ct5o3BhusSQc3ovL9NjIzBCKbXQL3tJsAnjXPBVim4QMkw9j8RkYbBQZcBQe7tJkCOk4bB
7RPEQHF7JD9a8YLBRIoHQZI7qj+R4YLBpJrXQMKtOkCURIjBTYDvQFUfsz705YDBRjzdQB8Tj0Co
np/BhGeWQKrXg0DlepvBz+n/QO6sPsBzgYnBkK+8QI/VkL+X56rBDF7SQFzqMEEKabLB/JCbQAlj
AL5vnabBTI/qQNLdEL/wIqrBjBukQOdmK0FKHq/BRIzlQHQwH0E6grnBPm6fQOajmz9ug6zBi0Hu
QPioTD+I1q/BgU6iQBmmFUGeWanBlwvkQFdZCUFj2LPBgF7NQCCU5j84OKvBi7q1QOmZA0HtWbDB
1QvDQHg6jEDN3anBO78XQaEACMHmUJDBEbnKQC3niUBh5ovBMV/8QEHOgb9rbnnBCinSQIG4S0D/
5bDBRNC0QAlI3UDg26nBBNnFQK9dtkDOWbDBbCgMQSBK68APH5bBcgoRQan0v8D1t5DBt6AFQUV1
m8DZu5bBX7m/QJbcikAnXpfBhg2XQLBnhkBv+6XB6DRjQIxteECdipXB/S0IQfYb5r+6UYXBivkK
QQSCY8AsAZLBdwQCQXwvlECw3Z7Bw1jfQP2wX8D23YXBOeCWQBZpCUDyDIjBELcNQZKcVkAbHojB
tverQCsA7r1PuoHBXjYYQQKojD+/j4HBxsC6QEupA8DuLKbB8GO1QEU7rb8hVLPB1VXSQFoTQEFo
4bbBSRHmQLWnMkFtK6vBTmt2QM4JCL8p0qfBlyShQCAqED2HBZ7ByAjzQI8x4b6yp6HBYG4AQbM6
o7/n5a3BSP+XQMzoN0HGt6nBlvCPQPe0KkGFUrbB3CTTQMc2HkGG/sDB0oQDQYwwI0ExVrvBybmY
QNPfhz9BELXBdBeIQFl29j+sK6nBql0HQQRlmT+Frq7BHCToQAb5KT+nb7jBOni0QPjAFkET1aHB
n7uAQAm9EUEDkqfBsNrvQAru+UB7W7nB7az4QJ/rCUGGuKzBXOPTQETR9z+ko6LB4dyhQNWeAUFM
jLfBogoUQWtBF8HfS5TB3R0pQYI0BcE6jpDBM18SQWarCMFu8YfBgb+uQBVUlEDkPIfB8orlQIL2
n0AvdorB8aYJQRs8ZL9GOWzBMczfQMx1xb8Ll3PBcBP0QDdFVUDT7bLB1fq+QN3MSkC+RrjBdtDI
QN9V4UBSsKLBkpyTQOm51kBccKfBOnrnQAg+vECtfrLB5K2yQJL6skDOrrfBKo0RQckt6sBKfp7B
AZ31QJIb8cB/4ZXBOGULQZbEwMDUYojBkWgiQaJGusAV15DB960KQUTFm8DCKZ/BKHToQH5loMBk
RJbBY2F6QKOihEArrKrBpgYrQF2hcEBPP5nB42lmQJ4+dUC5j43B2+cVQSJcur+LY4jBmlIXQe4s
Q8A4GJXB

>  <OMEGA_E>  (3) 
MEx3PtAz4z4Ahuo+7nFLPw==

>  <OMEGA_NBR>  (3) 
     20310

$$$$
50156415
     RDKit          3D

 69 71  0  0  1  0  0  0  0  0999 V2000
    6.0590    1.7522  -17.2536 C   0  0  0  0  0  0  0  0  0  0  0  0
    8.0095    3.0399  -16.5425 C   0  0  0  0  0  0  0  0  0  0  0  0
    6.6860    0.5675  -16.8162 C   0  0  0  0  0  0  0  0  0  0  0  0
    8.6268    1.8646  -16.0939 C   0  0  0  0  0  0  0  0  0  0  0  0
    6.7189    2.9937  -17.1028 C   0  0  0  0  0  0  0  0  0  0  0  0
    7.9636    0.6291  -16.2051 C   0  0  0  0  0  0  0  0  0  0  0  0
    6.7574    4.5025  -19.9068 C   0  0  0  0  0  0  0  0  0  0  0  0
    4.5280    4.1364  -19.5104 C   0  0  0  0  0  0  0  0  0  0  0  0
    7.0601   -2.4959  -15.2893 C   0  0  0  0  0  0  0  0  0  0  0  0
    6.1542   -1.1618  -21.3949 C   0  0  0  0  0  0  0  0  0  0  0  0
    5.2230   -0.2589  -20.5716 C   0  0  0  0  0  0  0  0  0  0  0  0
    7.5526   -0.5361  -21.4926 C   0  0  0  0  0  0  0  0  0  0  0  0
    5.1349    1.1463  -21.1907 C   0  0  0  0  0  0  0  0  0  0  0  0
    7.4788    0.8677  -22.1196 C   0  0  0  0  0  0  0  0  0  0  0  0
    6.5402    1.8059  -21.3217 C   0  0  0  0  0  0  0  0  0  0  0  0
    6.0100    4.4023  -21.2173 C   0  0  1  0  0  0  0  0  0  0  0  0
    6.1490    5.7242  -22.0088 C   0  0  0  0  0  0  0  0  0  0  0  0
    3.5468   -3.3633  -18.9750 C   0  0  0  0  0  0  0  0  0  0  0  0
    6.0463    4.2919  -17.4910 C   0  0  0  0  0  0  0  0  0  0  0  0
    8.6535   -0.6073  -15.6761 C   0  0  0  0  0  0  0  0  0  0  0  0
    6.4982    3.1883  -22.0658 C   0  0  0  0  0  0  0  0  0  0  0  0
    5.0433   -3.3842  -18.6505 C   0  0  0  0  0  0  0  0  0  0  0  0
    5.2744   -4.1662  -17.3560 C   0  0  0  0  0  0  0  0  0  0  0  0
    6.7748   -4.2589  -17.0418 C   0  0  0  0  0  0  0  0  0  0  0  0
    5.7843    4.3581  -18.9312 N   0  0  0  0  0  0  0  0  0  0  0  0
    4.6105    4.2520  -20.8153 N   0  0  0  0  0  0  0  0  0  0  0  0
    3.3630    3.8233  -18.8259 N   0  0  0  0  0  0  0  0  0  0  0  0
    7.7400   -1.3837  -14.8314 N   0  0  0  0  0  0  0  0  0  0  0  0
    7.3023   -2.9830  -16.5699 N   0  0  0  0  0  0  0  0  0  0  0  0
    7.9695    4.6076  -19.7525 O   0  0  0  0  0  0  0  0  0  0  0  0
    6.2658   -3.0500  -14.5385 O   0  0  0  0  0  0  0  0  0  0  0  0
    5.0776    1.7116  -17.7026 H   0  0  0  0  0  0  0  0  0  0  0  0
    8.5258    3.9847  -16.4582 H   0  0  0  0  0  0  0  0  0  0  0  0
    6.1939   -0.3850  -16.9464 H   0  0  0  0  0  0  0  0  0  0  0  0
    9.6154    1.9076  -15.6611 H   0  0  0  0  0  0  0  0  0  0  0  0
    6.2298   -2.1453  -20.9080 H   0  0  0  0  0  0  0  0  0  0  0  0
    5.7399   -1.2844  -22.4065 H   0  0  0  0  0  0  0  0  0  0  0  0
    4.2180   -0.7053  -20.5464 H   0  0  0  0  0  0  0  0  0  0  0  0
    5.6138   -0.1773  -19.5466 H   0  0  0  0  0  0  0  0  0  0  0  0
    7.9846   -0.4586  -20.4839 H   0  0  0  0  0  0  0  0  0  0  0  0
    8.1921   -1.1772  -22.1171 H   0  0  0  0  0  0  0  0  0  0  0  0
    4.6831    1.0680  -22.1906 H   0  0  0  0  0  0  0  0  0  0  0  0
    4.5022    1.7790  -20.5509 H   0  0  0  0  0  0  0  0  0  0  0  0
    8.4885    1.3039  -22.1356 H   0  0  0  0  0  0  0  0  0  0  0  0
    7.1016    0.7783  -23.1490 H   0  0  0  0  0  0  0  0  0  0  0  0
    6.9572    1.9587  -20.3153 H   0  0  0  0  0  0  0  0  0  0  0  0
    5.6025    5.6418  -22.9599 H   0  0  0  0  0  0  0  0  0  0  0  0
    5.7313    6.5517  -21.4165 H   0  0  0  0  0  0  0  0  0  0  0  0
    7.2121    5.9193  -22.2127 H   0  0  0  0  0  0  0  0  0  0  0  0
    3.3807   -2.8011  -19.9058 H   0  0  0  0  0  0  0  0  0  0  0  0
    3.1844   -4.3944  -19.1000 H   0  0  0  0  0  0  0  0  0  0  0  0
    3.0000   -2.8797  -18.1521 H   0  0  0  0  0  0  0  0  0  0  0  0
    5.0915    4.3738  -16.9511 H   0  0  0  0  0  0  0  0  0  0  0  0
    6.7002    5.1302  -17.2090 H   0  0  0  0  0  0  0  0  0  0  0  0
    8.9808   -1.2292  -16.5223 H   0  0  0  0  0  0  0  0  0  0  0  0
    9.5290   -0.3069  -15.0817 H   0  0  0  0  0  0  0  0  0  0  0  0
    7.5153    3.4116  -22.4201 H   0  0  0  0  0  0  0  0  0  0  0  0
    5.8234    3.0866  -22.9285 H   0  0  0  0  0  0  0  0  0  0  0  0
    5.5901   -3.8678  -19.4734 H   0  0  0  0  0  0  0  0  0  0  0  0
    5.4057   -2.3531  -18.5255 H   0  0  0  0  0  0  0  0  0  0  0  0
    4.7624   -3.6541  -16.5279 H   0  0  0  0  0  0  0  0  0  0  0  0
    4.8651   -5.1810  -17.4686 H   0  0  0  0  0  0  0  0  0  0  0  0
    6.9305   -5.0200  -16.2630 H   0  0  0  0  0  0  0  0  0  0  0  0
    7.3137   -4.5528  -17.9546 H   0  0  0  0  0  0  0  0  0  0  0  0
    3.8318    4.2393  -21.4426 H   0  0  0  0  0  0  0  0  0  0  0  0
    2.5131    3.6694  -19.3298 H   0  0  0  0  0  0  0  0  0  0  0  0
    3.3730    3.7513  -17.8286 H   0  0  0  0  0  0  0  0  0  0  0  0
    7.6033   -1.0958  -13.8835 H   0  0  0  0  0  0  0  0  0  0  0  0
    7.8613   -2.4358  -17.1928 H   0  0  0  0  0  0  0  0  0  0  0  0
  1  3  2  0
  1  5  1  0
  2  4  1  0
  2  5  2  0
  3  6  1  0
  4  6  2  0
  5 19  1  0
  6 20  1  0
  7 16  1  0
  7 25  1  0
  7 30  2  0
  8 25  1  0
  8 26  2  0
  8 27  1  0
  9 28  1  0
  9 29  1  0
  9 31  2  0
 10 11  1  0
 10 12  1  0
 11 13  1  0
 12 14  1  0
 13 15  1  0
 14 15  1  0
 15 21  1  0
 16 17  1  6
 16 21  1  0
 16 26  1  0
 18 22  1  0
 19 25  1  0
 20 28  1  0
 22 23  1  0
 23 24  1  0
 24 29  1  0
  1 32  1  0
  2 33  1  0
  3 34  1  0
  4 35  1  0
 10 36  1  0
 10 37  1  0
 11 38  1  0
 11 39  1  0
 12 40  1  0
 12 41  1  0
 13 42  1  0
 13 43  1  0
 14 44  1  0
 14 45  1  0
 15 46  1  0
 17 47  1  0
 17 48  1  0
 17 49  1  0
 18 50  1  0
 18 51  1  0
 18 52  1  0
 19 53  1  0
 19 54  1  0
 20 55  1  0
 20 56  1  0
 21 57  1  0
 21 58  1  0
 22 59  1  0
 22 60  1  0
 23 61  1  0
 23 62  1  0
 24 63  1  0
 24 64  1  0
 26 65  1  0
 27 66  1  0
 27 67  1  0
 28 68  1  0
 29 69  1  0
M  CHG  1  26   1
M  END
>  <OMEGA_C>  (4) 
ROPBQHZI4D9wB4rBwCYAQeSNQkAgV4TBvvPVQFZFET+Fh4bBeQcKQWms7j82wIDBbgHXQGCZP0B4
0ojB99X+QHIMIT8KpIHBWDzYQIUUkEAJQZ/BnOWQQHZdhEBFFZzBZuzhQAC9H8AQoXTBHe/EQFC3
lL+rKKvBLSOnQFiThL61kqTBFa/xQGw7Cb/A8KvBdFGkQBu7kj+YhqnBWVLvQN4hXj/u9LDBQEnR
QDYn5z/BkqrBI1LAQM3fjEABvanBOsTEQD8st0AAErDBev5iQPRAV8DUzJfBlXvBQONWiUCq7YvB
4HQKQch1G79Y0XrBHfHPQHAMTECohrDB1WKhQNSWWMA5NJXBl8eoQHJRhcAb2YrBX8vYQB9JiMCQ
VYjBBxm5QHB1i0Awc5fB4oiTQIMQiEDThabBzjtXQCywdECLm5bBw633QPgcsb9ZTW3Br6zpQCzp
PsAWj4TBOwb/QDNxk0AlBZ7BbYHIQMwzQ8DinWjBj3uiQCYV2z/0no3Bn2kIQeQFf0BiqoPBQzTG
QF0jxb43kofBoNgZQZ4s9D/Dk3rBs1rHQBJNCcCSQ6fBDK23QJxmpL9rQLPBvPmGQB+NNL8LX6TB
faSzQBuUNb6CX5zBMoL/QH3J6r4P36PB5BIDQXetlr/J77DB0NuVQNSziD9FhrHBrhGQQKO14z9J
aKTBytAHQbXnpj/DFbHBRUDjQJRBRz81MbnBP6HeQC64+j+9haLBbkezQKKJtEDWrbfBlGa3QCSn
0UAJVavB08nmQNtqvUCDs7HBQV1YQPdEM8D+Pp/Bjs1LQN2ejMDSzJjB5/8/QMxNOMCIN5HBpu2i
QF72i0DEm4fBa2jWQKkqpED4q4nBRbEPQRFXnb+6LYTByHYYQRUjnb6RTnHBU33wQNdXWkBwXLPB
FFm6QGWKRUCEbbfBD+KyQO6Jd8CJyZvBPPusQAGaFsA+NJTB7GWYQF3dacAtOYTBsK6bQKTKpcCr
v4vB3sbdQCakoMCqGoLBignqQG+wkcAVo4/BjDt1QDeoh0B4iqvBLdYgQFzXakCEo5rBud9XQMwV
cEDzoI7BIU7zQHxDjL/oIl7BrY/7QFrjG8DzionBAuDBQIA61z86oInB2O3/QHzVQEAnWITBj4PX
QP1UAj8keYbBhqQKQZIJ7T+DIYHBRDLWQLTrO0Clf4jBzqsAQQhQGT92DoLBUWjYQHMwjUAF0Z7B
h3GQQClRhEDg8pvB9c/xQLYzLMCjSILBAli9QGSfmb9uVKvBPo+hQJQqf77PnqTBOv/qQFGaJb++
XqzBAPKgQHCDlD8UgqnBHbjqQHUMRT8wOLHBEN7OQPKZ3z8NlqrBmBDBQCyki0AXZqnBw5jHQBYq
tkCgha/B4mtnQFbDUsB7EprBG9W/QJzrhkAYlYvBjsYNQRVJHb9XA37BVqTPQCpKSUAbT7DBoxie
QFD6X8DbHpTB7f6UQCR+h8DPkYnB9nW+QPh9k8CezYPBwZi4QK0ziUABJpfBu+OTQA+NiEBNXabB
yx5VQGzBdkA9nZbBElUAQTz22r8Y93bBf4LQQFTXXMCDzHzBZjj/QCojj0Dycp3BZvIAQdrsOMAx
HYvBs+2hQPOCzz/o4ozBUcYHQTs6fkDooYPBJF3IQEC06L70aIfB/KUaQeui9T+g1nvB7H++QJ7R
C8A6aqfB/TqvQKsFp78OWbPBBquAQFahI7/kUaTBCaOuQFF/Rr5SdpzBE8/5QGK9G7+fZKTBe779
QIEHqL9rk7HBDziSQKofjj+yfbHBZ9yNQHUb6T+0VqTB2d0FQeo3kz+hdbHBmeLdQG9sNz8UZ7nB
YODcQLto7T8xj6LBW4O2QHPCtEBENbfBA/26QCvT0EC/t6rB3fDpQMonu0Ai/rDBGodzQMIfMcAs
p6HBOwJKQLuoiMBMvZvBYuE7QMVfLMDXF5XBgMugQNhyiEDpcofBB7rTQL49okBQH4nBoRgXQabF
cL8dAIbBNr0YQREtrr5w9nDBAKPwQDZzVUCv+LLBf2y6QKyMRUChULfBpeyzQCE8g8BBEpnBONys
QJKGIcDMbJLBs+uBQHUXZcDUWITBTdaCQI3XpMDbTIvBLKW3QKuNrMACunvB+a7VQOKdn8BIronB
I5R2QPOFiUCaeavBTsYeQMVob0AJvZrBe9hUQJU2cUDzpI7BfYT4QHP+4L/GgmfBLtTDQAT/S8Cx
uW7BWnDBQH8g1j8LqInBVXj/QBd3QEB+eITBBsnVQLOcAz8rsIXBetgJQbXk7T/1iYDBRRPWQHpM
O0Ce1IjB0yL/QMsGHD9k+4DB2vfXQJ1CjkANMJ/BDCeQQLvkg0BHXpzBDm7hQL5IHMBjc3TBmrDA
QFjnl7+BbKvBPxGjQDZugb4GFKXB4fntQHnOF7/XGazBZPGhQPKakz9rD6rB9x7tQGPrUD8AF7HB
I4PPQKpU4z9IyqrBGr3AQE5bjECoxqnBL8/GQPzmtkAL7K/B9PVvQDxFSMDbeJfBk6+/QBydhkAU
AYzBlMMKQV0iDb+z4HbBEujPQOLTSkBjnLDBgzuGQHg1hsC0Z4/B7ka2QB1ikcBdlJDB9KHTQLzR
XsCMw4vBXku4QIzriEBEjZfB0peTQMiWiEBAxabB0nBUQKB0dUApFJfBqcQCQTRY7b+rW33BF9DL
QGpHWMCeMoDB6bf+QDfykEDmyZ3BlJXSQKyUBMA7SWPB5TSiQG8FzT/AT43BWN4HQZRlfUA2J4TB
uPrFQBxS475HOYbB/a4ZQVRn9z8kRXrBnCzCQNV9CsB0ZqfBYuKzQGl3qL8kjrPBlYKCQFbEK7+C
E6XB1MeuQMCANr4bzZzBb477QJaeB799/6PBvQoBQV7Yn7+7ELHBeVeUQM7Tij9/KLLBjaONQJe/
5j/eF6XByuUGQSTVnD87FbHBrHrhQCuLPT9dX7nBuEbcQMzT8z93p6LBmMy1QPU4tUBonbfBmdm5
QKV00UCgI6vBLBrpQLBJvEBkYbHB74MrQCmBOsBIV5bBeKCKQHBoDcDjN5bBIax6QNn5X8A4pp/B
56ygQAI8iEA23IfBRp/TQInzoUDKk4nB++8bQWhfAL9DpXrB7nsIQa4/5L4DgmXBW+HwQISbV0B8
PrPBddm6QIozRkCPo7fBS4aAQPw0dMAYRIfBxndmQDJjo8BtspDBGFa8QC8BsMAxg4zBK8W9QMua
lMDaI5nBVzP1QIXQcMB5KY3BVCDNQOaqIMBDkI/B3wV2QNF2iUBE46vBgigeQJGEbkAZOpvB2ghU
QL4tb0ATHo/BkKUKQZyDFsBmZITB2Mm2QD5sf8D2V3nBnRjAQEID7D96x4fBgfwBQf0dQUCOmoXB
T83TQIACJD+DjYTB/r0LQYCo6T+3RoLBeUvYQLpGQkAMW4jBfsH/QDA7Ij9Kr4HBHGnYQA23i0Cq
Zp/BAdmQQHO/hUBGj5vBb0fuQIFSLsAZl4HB3QnPQPiGk7/nX6fBZdzDQDTBTL8J8rLBQ6G3QICR
Sb7hy5/BTSbRQLoxJj9zabXB+OTEQOzJoD/NBqLBS8e7QH531T80v63BtPm+QDxoiUCSsKnBRVDE
QLT3s0Dn4a/BQDJzQKJiT8CNR5vBgvzDQO4Ni0DCyYvBGa0LQZa9Hr/WhXzBb+bMQAitRUBO2rDB
BHihQCi6XsAtYJTBCauUQIpsicBneorBUsS7QEgrlcC1s4PBhQu6QOLWi0DSTZfB5HGSQPq/hUCt
EabBVO9XQP5gfUBSppXBC1T6QOR8179o+nXBY1XMQNhyX8ByKnzBAnT/QL5ojUATg57BRusAQdgZ
P8C/2onBeIGeQNRc7T9Gz4nBB0YLQctKe0DcDobBCnnBQBZnjL7CQ4TB8X0cQdJV6T8JJ4DBdR/F
QBD0C8BxsKXB78fxQAFch7+oLqbB0t/UQFvEvb/gYLjBISahQJMGaL+aIbTBceiUQK4Zmb4I/aDB
drq/QIPP574Ue5fBExr0QJqxOz92nbTBQcHHQPezYz8IrL3ByOayQPPu9T/ippzBJ13nQORhrj9a
daDBxf2YQNLg0j+0FK/BbuaxQCCDskCgX7fBRX24QMiYzkDS8arBRVrmQOAMuUCWurHBVHSCQJkH
KsD8ZqLBTTtYQA+jhsClxp3BL0JDQBrdK8DJm5bBnyamQBSmj0ARQ4fBCkPaQHFVpUAy+4nBdGQV
QeqEer/fA4XBsTQWQclqvr6a/W7BlhDwQKfJQkDDsbDB+QXCQLYyU0C1DLnBlHi5QGMqgcCvBpnB
BfyuQMLrIMDT25HBM/R8QJe3bMC7lYXB9KuEQMn9psBaFo3BmoSyQKSbrcCTnHvBs+bUQM0NosAl
9IjBaAhyQGOTg0Ar5arBymwgQENFckClYZnB8j9aQGxOfkDgp43Bz33uQBlO1L9MHmfB5CO+QEWU
TsC9dW7B

>  <OMEGA_E>  (4) 
gFwvP6zhHz9E6gE/qkkrPw==

>  <OMEGA_NBR>  (4) 
     24982

$$$$
