28721
     RDKit          3D

 80 82  0  0  1  0  0  0  0  0999 V2000
    7.8661    8.6702  -18.6434 C   0  0  0  0  0  0  0  0  0  0  0  0
    7.0044    8.0565  -17.7137 C   0  0  0  0  0  0  0  0  0  0  0  0
    7.3778    9.0607  -19.9065 C   0  0  0  0  0  0  0  0  0  0  0  0
    6.5065   -0.1040  -16.8049 C   0  0  0  0  0  0  0  0  0  0  0  0
    8.0499    1.4419  -15.7148 C   0  0  0  0  0  0  0  0  0  0  0  0
    7.7434   -0.8097  -14.8255 C   0  0  0  0  0  0  0  0  0  0  0  0
    6.7227    1.3223  -21.4282 C   0  0  0  0  0  0  0  0  0  0  0  0
    5.0305   -0.3554  -20.8916 C   0  0  0  0  0  0  0  0  0  0  0  0
    5.1597    8.2382  -19.3062 C   0  0  0  0  0  0  0  0  0  0  0  0
    7.2275   -1.0447  -21.7019 C   0  0  0  0  0  0  0  0  0  0  0  0
    7.1159    1.1697  -16.7393 C   0  0  0  0  0  0  0  0  0  0  0  0
    6.8324   -1.0987  -15.8608 C   0  0  0  0  0  0  0  0  0  0  0  0
    5.6511    7.8407  -18.0429 C   0  0  0  0  0  0  0  0  0  0  0  0
    8.3431    0.4625  -14.7439 C   0  0  0  0  0  0  0  0  0  0  0  0
    5.4272    0.9951  -20.9693 C   0  0  0  0  0  0  0  0  0  0  0  0
    7.6235    0.3042  -21.7829 C   0  0  0  0  0  0  0  0  0  0  0  0
    5.9279   -1.3727  -21.2681 C   0  0  0  0  0  0  0  0  0  0  0  0
    6.0250    8.8416  -20.2392 C   0  0  0  0  0  0  0  0  0  0  0  0
    6.7681    2.2013  -17.7334 C   0  0  0  0  0  0  0  0  0  0  0  0
    6.1761   -2.4171  -15.9203 C   0  0  0  0  0  0  0  0  0  0  0  0
    9.3478    0.7541  -13.6517 C   0  0  0  0  0  0  0  0  0  0  0  0
    3.6042   -3.2066  -18.7693 C   0  0  0  0  0  0  0  0  0  0  0  0
    9.0685   -4.0391  -16.6021 C   0  0  0  0  0  0  0  0  0  0  0  0
    4.4681    2.0924  -20.5602 C   0  0  0  0  0  0  0  0  0  0  0  0
    4.7272    7.2075  -17.0275 C   0  0  0  0  0  0  0  0  0  0  0  0
    3.7944   -3.8952  -17.4106 C   0  0  0  0  0  0  0  0  0  0  0  0
    8.3370   -4.1486  -17.9511 C   0  0  0  0  0  0  0  0  0  0  0  0
    5.2561   -4.3515  -17.2152 C   0  0  0  0  0  0  0  0  0  0  0  0
    7.2488   -3.0633  -18.1127 C   0  0  0  0  0  0  0  0  0  0  0  0
    4.8804    4.9792  -18.0309 C   0  0  0  0  0  0  0  0  0  0  0  0
    5.1144    2.9860  -19.4826 C   0  0  1  0  0  0  0  0  0  0  0  0
    4.1353    4.0524  -18.9847 C   0  0  2  0  0  0  0  0  0  0  0  0
    5.5321    2.1264  -18.3648 N   0  0  0  0  0  0  0  0  0  0  0  0
    6.1794   -3.1990  -17.0924 N   0  0  0  0  0  0  0  0  0  0  0  0
    3.9987    6.0836  -17.6326 N   0  0  0  0  0  0  0  0  0  0  0  0
    7.5563    3.1057  -17.9912 O   0  0  0  0  0  0  0  0  0  0  0  0
    5.5723   -2.8000  -14.9236 O   0  0  0  0  0  0  0  0  0  0  0  0
    3.6490    4.8230  -20.0846 O   0  0  0  0  0  0  0  0  0  0  0  0
    8.8610    0.6252  -22.2217 F   0  0  0  0  0  0  0  0  0  0  0  0
    5.5366   -2.6649  -21.2358 F   0  0  0  0  0  0  0  0  0  0  0  0
    5.2664    9.4503  -22.1881 I   0  0  0  0  0  0  0  0  0  0  0  0
    8.9014    8.8416  -18.3884 H   0  0  0  0  0  0  0  0  0  0  0  0
    7.3806    7.7512  -16.7485 H   0  0  0  0  0  0  0  0  0  0  0  0
    8.0402    9.5281  -20.6201 H   0  0  0  0  0  0  0  0  0  0  0  0
    5.7875   -0.3162  -17.5824 H   0  0  0  0  0  0  0  0  0  0  0  0
    8.5407    2.4032  -15.6751 H   0  0  0  0  0  0  0  0  0  0  0  0
    7.9826   -1.5658  -14.0924 H   0  0  0  0  0  0  0  0  0  0  0  0
    7.0211    2.3573  -21.5065 H   0  0  0  0  0  0  0  0  0  0  0  0
    4.0400   -0.6091  -20.5439 H   0  0  0  0  0  0  0  0  0  0  0  0
    4.1212    8.0795  -19.5563 H   0  0  0  0  0  0  0  0  0  0  0  0
    7.9202   -1.8280  -21.9723 H   0  0  0  0  0  0  0  0  0  0  0  0
    8.8279    1.1698  -12.7760 H   0  0  0  0  0  0  0  0  0  0  0  0
    9.8595   -0.1769  -13.3663 H   0  0  0  0  0  0  0  0  0  0  0  0
   10.0872    1.4813  -14.0184 H   0  0  0  0  0  0  0  0  0  0  0  0
    2.5554   -2.8937  -18.8788 H   0  0  0  0  0  0  0  0  0  0  0  0
    4.2581   -2.3239  -18.8276 H   0  0  0  0  0  0  0  0  0  0  0  0
    3.8633   -3.9087  -19.5755 H   0  0  0  0  0  0  0  0  0  0  0  0
    9.8308   -4.8290  -16.5326 H   0  0  0  0  0  0  0  0  0  0  0  0
    9.5530   -3.0544  -16.5268 H   0  0  0  0  0  0  0  0  0  0  0  0
    8.3445   -4.1552  -15.7821 H   0  0  0  0  0  0  0  0  0  0  0  0
    4.2194    2.7048  -21.4395 H   0  0  0  0  0  0  0  0  0  0  0  0
    3.5499    1.6412  -20.1561 H   0  0  0  0  0  0  0  0  0  0  0  0
    5.3199    6.8399  -16.1769 H   0  0  0  0  0  0  0  0  0  0  0  0
    4.0061    7.9593  -16.6742 H   0  0  0  0  0  0  0  0  0  0  0  0
    3.5291   -3.1888  -16.6103 H   0  0  0  0  0  0  0  0  0  0  0  0
    3.1343   -4.7735  -17.3582 H   0  0  0  0  0  0  0  0  0  0  0  0
    9.0712   -4.0381  -18.7627 H   0  0  0  0  0  0  0  0  0  0  0  0
    7.8628   -5.1389  -18.0180 H   0  0  0  0  0  0  0  0  0  0  0  0
    5.3204   -4.9587  -16.3002 H   0  0  0  0  0  0  0  0  0  0  0  0
    5.5583   -4.9595  -18.0807 H   0  0  0  0  0  0  0  0  0  0  0  0
    7.7158   -2.0727  -18.0095 H   0  0  0  0  0  0  0  0  0  0  0  0
    6.8003   -3.1549  -19.1129 H   0  0  0  0  0  0  0  0  0  0  0  0
    5.1883    4.4155  -17.1379 H   0  0  0  0  0  0  0  0  0  0  0  0
    5.7709    5.3841  -18.5341 H   0  0  0  0  0  0  0  0  0  0  0  0
    5.9939    3.4842  -19.9166 H   0  0  0  0  0  0  0  0  0  0  0  0
    3.3059    3.5659  -18.4504 H   0  0  0  0  0  0  0  0  0  0  0  0
    4.8822    1.4410  -18.0364 H   0  0  0  0  0  0  0  0  0  0  0  0
    3.3354    5.7388  -16.9685 H   0  0  0  0  0  0  0  0  0  0  0  0
    3.5168    6.4155  -18.4435 H   0  0  0  0  0  0  0  0  0  0  0  0
    3.1820    4.2561  -20.6872 H   0  0  0  0  0  0  0  0  0  0  0  0
  1  2  2  0
  1  3  1  0
  2 13  1  0
  3 18  2  0
  4 11  2  0
  4 12  1  0
  5 11  1  0
  5 14  2  0
  6 12  2  0
  6 14  1  0
  7 15  2  0
  7 16  1  0
  8 15  1  0
  8 17  2  0
  9 13  2  0
  9 18  1  0
 10 16  2  0
 10 17  1  0
 11 19  1  0
 12 20  1  0
 13 25  1  0
 14 21  1  0
 15 24  1  0
 16 39  1  0
 17 40  1  0
 18 41  1  0
 19 33  1  0
 19 36  2  0
 20 34  1  0
 20 37  2  0
 22 26  1  0
 23 27  1  0
 24 31  1  0
 25 35  1  0
 26 28  1  0
 27 29  1  0
 28 34  1  0
 29 34  1  0
 30 32  1  0
 30 35  1  0
 31 32  1  0
 31 33  1  0
 32 38  1  0
  1 42  1  0
  2 43  1  0
  3 44  1  0
  4 45  1  0
  5 46  1  0
  6 47  1  0
  7 48  1  0
  8 49  1  0
  9 50  1  0
 10 51  1  0
 21 52  1  0
 21 53  1  0
 21 54  1  0
 22 55  1  0
 22 56  1  0
 22 57  1  0
 23 58  1  0
 23 59  1  0
 23 60  1  0
 24 61  1  0
 24 62  1  0
 25 63  1  0
 25 64  1  0
 26 65  1  0
 26 66  1  0
 27 67  1  0
 27 68  1  0
 28 69  1  0
 28 70  1  0
 29 71  1  0
 29 72  1  0
 30 73  1  0
 30 74  1  0
 31 75  1  6
 32 76  1  1
 33 77  1  0
 35 78  1  0
 35 79  1  0
 38 80  1  0
M  CHG  1  35   1
M  END
>  <OMEGA_C>  (1) 
urb7QAK5CkG/JZXB3yPgQE3nAEGztY3BQhfsQKn4EEGFQJ/BPDXQQCoP1b1+cIbBZswAQW+RuD+f
b3vBtsn3QItLT79lNW3BACDXQOdAqT/wbKvBnvmgQO7xtb4CIqfBqhylQL7PA0EAc5rB3UfnQP25
hb+Gna3Bt7XjQIe3lT8C6oXB0qLaQHyijL/SxX3BJ9a0QFvn+kDvV5DBb30FQdLM7D4Q52vB/aut
QHW9fj8jwafBa/PzQPq+mz55Q67BbrG9QI21r78lJarB38zAQCN3DUHT6aHBK5TYQJ3hDEAU3o3B
AaPFQP2xGsCvuX7BjJAVQU8KQT9TbVrBBqxmQOk4TcCQJ5bBgxgRQTVAgcAk0YTBzvqOQBjqBUBj
e6TB3USXQJKj5kBAOIjBONdyQI5KecD+SIvBMmQFQTvBhMDgm4/BvDGoQOM/i8CwuInBW/bnQIIN
RMDC5pDBPSycQEpVn0BeP5DB0KijQBwbP0Bz3JvBUVSEQKKtgUCx4JfB3waxQB4XCEAn65LB2r3F
QL28TMAsvYjB6up/QDitwkCcD43Bc83xQPrCRkAB7o/BqFCyQHIzM8Apx27BkohpQEJWmkBcraDB
y8YNQf8KID8UxrHBAyyxQKGNKsAF46nBdYaoQHI0F0EzgbHBK2wOQRt3DUFZG5PBBy7sQKwJ+EDw
/IXBiKQAQRxzGEEG9qTBfDO5QJfiob7IqIzBqqYIQXrNGUBlzXrB13H/QHxryL9EemHBPq3gQIHd
FkA+DazBSkeBQBjtG7/qWaTBq+CDQLVFAUFTc5zBgXL9QHr66b9ax6/B/z4NQWu9lT+HakzBYMAd
QeAqNb5T3FXBIGUhQeKZvT9eS2DBsosjQJ4xOcDAB5fBYEKIQH+7FMDtnpbBlEB3QB4oesCjmpzB
JUsdQUGHmsDcQoTBH9kYQbZ7Q8DTNoTBRoMFQZ73hMB9g3zBWQWHQNoaLUAxhKvBSDJjQCsS0j+p
P6HB2TyqQG3g2kA7aoHB4zGAQMyy/kDWZIXBZ9xhQAYVTMDM4YTBOphIQNPAmMCC3YrB0CMRQfY3
gcDwGZbB8Jv7QLlxpMDaJJDB5ECqQLCtnsDFZoLBPd2xQGe0nsAwpZDB0+f2QImnBMBvE5DBZJzZ
QIXpScBA55jBtwamQAFMjUBxGonB4qq4QENKrEDFRZTBrs2/QAn9XkAtVZ/BSJRTQGc4ZEB3mpPB
LjucQEFxuD+mSpDBR3dVQOajt0B2v4fBpBJhQLxLzUBijJPB/6VLQOAxiEBSf6XBeJXBQGC8DUEb
AqLBa3GlQIxEBEEjmJrBoczsQF8AEUFVQJ/B9K3QQNJT2r0nd4bBCpABQd3ztT+51nvBe074QHJw
Ub8HT23BFGHXQAOkqz8oSqvBDAaiQHAxub4LAafB+93fQNILAUHltY3B2h7oQHkFgr/v2K3Bz8Tk
QGZYlD9gBIbB5sraQDnUjL/8wH3BIKi0QL7B+0D0b5DBMyMGQcpK4z6EQWzBH0OuQBxVfj/CgKfB
FFf0QCUcrT7vXK7BWd++QGGdrr+qP6rB1tj7QPavCkGXGJXBUoTZQJWTDED/5I3BcvzEQFgOGsBo
dH7BPIcWQTHvOT8tClvBZDxmQMzJTcBVMJbBu8gQQTMtgsAzzYTB4jKPQJrPBEAGJKTBQMqWQGKR
50B6ZYjBPGFwQNwleMBbLYvBLYwEQU1jhsAZbY/BpaOmQE4ui8BGWYnBd8XmQNZNRsDevJDBRcyc
QLiNoECAfpDB5e+jQERBP0DAqZvBX7CEQEnzgUDK0JfBKlqxQPFsCUDooZLBM77EQKFUTcCxgIjB
SxeAQDJ4w0AqUI3BMgDzQNCpRUCRGZDBKUWxQNHLMMBId27BlgZpQNhbmUAowaDB6s8NQZ/OLT+O
+bHBFM+yQO1PKsDFE6rBurgeQc3rD0HOzJDBJw22QAh9EkFzzKnBwTuEQEfjAUE2q5zBizIBQUxW
GEGW6aTBgHm5QAhGoL7NpozBjrAJQcryF0AyZHvBVaT/QIIfyb+2emHBpY/gQOVRGECA0qvBbJOC
QPdtIb9oI6TBiorrQKUt+EAd94XBAGD+QJDK5L8cNrDBeoUOQZdJlD92+UzBb4IeQXtsWL56dVbB
uXsiQX/ytz/qKWHBBIYjQKD7OMBGQZfBNHiIQPf6FcBfuJbB3P92QJINfMBne5zBXcgcQbPSm8D+
N4TBB9YYQbLMRcCkf4TBsHsFQfbIhMB7LHzB0VqGQC1SK0DyKqvBFK1kQJYEzj+/v6DB92apQBYG
3EDcgYHB3s5+QB+J/0Ayr4XBIjtfQC2dScBs7oTBl0pFQOTXl8B0sYrBFQMQQWn0g8BJE5bBfVH5
QAXXpcDiqY/BuvunQI3ZncBc5YHBRGSwQKCDn8AJG5DByDr2QE9SB8CUA5DBpyLYQCROTMCttJjB
7MKnQC9Hj0BgVYnBApe4QN7GrUC/w5TBaA3AQN+hXkBYOJ/Bs/ZUQMN7ZUBFVpPBZiCcQG1dvz98
so/BH7lVQMgRuECWDIjBh2xhQBEHzkAu0JPBX9FKQP6EhkAwX6XB

>  <OMEGA_E>  (1) 
gEGiPKijOD4=

>  <OMEGA_NBR>  (1) 
      2826

$$$$
28720
     RDKit          3D

 80 82  0  0  1  0  0  0  0  0999 V2000
    7.2976    9.1196  -19.8001 C   0  0  0  0  0  0  0  0  0  0  0  0
    7.7654    8.7128  -18.5337 C   0  0  0  0  0  0  0  0  0  0  0  0
    5.9561    8.8880  -20.1661 C   0  0  0  0  0  0  0  0  0  0  0  0
    6.8937    8.0691  -17.6339 C   0  0  0  0  0  0  0  0  0  0  0  0
    5.0806    8.2542  -19.2635 C   0  0  0  0  0  0  0  0  0  0  0  0
    6.5994   -0.0920  -16.8787 C   0  0  0  0  0  0  0  0  0  0  0  0
    8.0988    1.4765  -15.7531 C   0  0  0  0  0  0  0  0  0  0  0  0
    7.7899   -0.7705  -14.8619 C   0  0  0  0  0  0  0  0  0  0  0  0
    6.8284    1.3238  -21.4281 C   0  0  0  0  0  0  0  0  0  0  0  0
    5.1325   -0.3561  -20.9078 C   0  0  0  0  0  0  0  0  0  0  0  0
    7.3490   -1.0444  -21.6635 C   0  0  0  0  0  0  0  0  0  0  0  0
    7.1878    1.1923  -16.7953 C   0  0  0  0  0  0  0  0  0  0  0  0
    6.8992   -1.0722  -15.9125 C   0  0  0  0  0  0  0  0  0  0  0  0
    5.5512    7.8398  -17.9967 C   0  0  0  0  0  0  0  0  0  0  0  0
    8.3832    0.5029  -14.7756 C   0  0  0  0  0  0  0  0  0  0  0  0
    5.5237    0.9953  -20.9981 C   0  0  0  0  0  0  0  0  0  0  0  0
    7.7412    0.3061  -21.7511 C   0  0  0  0  0  0  0  0  0  0  0  0
    6.0433   -1.3741  -21.2466 C   0  0  0  0  0  0  0  0  0  0  0  0
    6.8157    2.2362  -17.7669 C   0  0  0  0  0  0  0  0  0  0  0  0
    6.1823   -2.3596  -15.9048 C   0  0  0  0  0  0  0  0  0  0  0  0
    9.3509    0.8109  -13.6545 C   0  0  0  0  0  0  0  0  0  0  0  0
    3.6251   -3.0290  -18.5104 C   0  0  0  0  0  0  0  0  0  0  0  0
    8.9657   -4.4174  -16.7309 C   0  0  0  0  0  0  0  0  0  0  0  0
    4.5527    2.0921  -20.6193 C   0  0  0  0  0  0  0  0  0  0  0  0
    4.6181    7.1654  -17.0171 C   0  0  0  0  0  0  0  0  0  0  0  0
    4.3625   -4.3672  -18.3305 C   0  0  0  0  0  0  0  0  0  0  0  0
    8.6791   -3.2010  -17.6262 C   0  0  0  0  0  0  0  0  0  0  0  0
    5.2351   -4.3909  -17.0521 C   0  0  0  0  0  0  0  0  0  0  0  0
    7.2039   -3.1407  -18.0918 C   0  0  0  0  0  0  0  0  0  0  0  0
    4.8584    4.9624  -18.0577 C   0  0  0  0  0  0  0  0  0  0  0  0
    5.1681    2.9933  -19.5304 C   0  0  1  0  0  0  0  0  0  0  0  0
    4.1597    4.0370  -19.0464 C   0  0  2  0  0  0  0  0  0  0  0  0
    5.5879    2.1387  -18.4100 N   0  0  0  0  0  0  0  0  0  0  0  0
    6.2035   -3.2586  -16.9935 N   0  0  0  0  0  0  0  0  0  0  0  0
    3.9374    6.0356  -17.6639 N   0  0  0  0  0  0  0  0  0  0  0  0
    7.5674    3.1821  -17.9812 O   0  0  0  0  0  0  0  0  0  0  0  0
    5.5485   -2.6295  -14.8905 O   0  0  0  0  0  0  0  0  0  0  0  0
    3.6938    4.8133  -20.1514 O   0  0  0  0  0  0  0  0  0  0  0  0
    8.9903    0.6293  -22.1550 F   0  0  0  0  0  0  0  0  0  0  0  0
    5.6653   -2.6692  -21.1686 F   0  0  0  0  0  0  0  0  0  0  0  0
    7.9681    9.6094  -20.4908 H   0  0  0  0  0  0  0  0  0  0  0  0
    8.7924    8.8948  -18.2536 H   0  0  0  0  0  0  0  0  0  0  0  0
    5.6001    9.1964  -21.1379 H   0  0  0  0  0  0  0  0  0  0  0  0
    7.2538    7.7514  -16.6665 H   0  0  0  0  0  0  0  0  0  0  0  0
    4.0502    8.0847  -19.5390 H   0  0  0  0  0  0  0  0  0  0  0  0
    5.9186   -0.3211  -17.6852 H   0  0  0  0  0  0  0  0  0  0  0  0
    8.5784    2.4430  -15.7058 H   0  0  0  0  0  0  0  0  0  0  0  0
    8.0181   -1.5207  -14.1193 H   0  0  0  0  0  0  0  0  0  0  0  0
    7.1246    2.3592  -21.5087 H   0  0  0  0  0  0  0  0  0  0  0  0
    4.1354   -0.6097  -20.5792 H   0  0  0  0  0  0  0  0  0  0  0  0
    8.0490   -1.8272  -21.9159 H   0  0  0  0  0  0  0  0  0  0  0  0
    8.8000    1.2257  -12.7975 H   0  0  0  0  0  0  0  0  0  0  0  0
    9.8634   -0.1130  -13.3484 H   0  0  0  0  0  0  0  0  0  0  0  0
   10.0935    1.5441  -14.0024 H   0  0  0  0  0  0  0  0  0  0  0  0
    3.0214   -3.0630  -19.4293 H   0  0  0  0  0  0  0  0  0  0  0  0
    2.9676   -2.8538  -17.6461 H   0  0  0  0  0  0  0  0  0  0  0  0
    4.3591   -2.2130  -18.5840 H   0  0  0  0  0  0  0  0  0  0  0  0
   10.0237   -4.4108  -16.4302 H   0  0  0  0  0  0  0  0  0  0  0  0
    8.3296   -4.3709  -15.8347 H   0  0  0  0  0  0  0  0  0  0  0  0
    8.7484   -5.3412  -17.2872 H   0  0  0  0  0  0  0  0  0  0  0  0
    4.3252    2.6992  -21.5080 H   0  0  0  0  0  0  0  0  0  0  0  0
    3.6255    1.6407  -20.2365 H   0  0  0  0  0  0  0  0  0  0  0  0
    5.1973    6.7973  -16.1575 H   0  0  0  0  0  0  0  0  0  0  0  0
    3.8682    7.8915  -16.6701 H   0  0  0  0  0  0  0  0  0  0  0  0
    3.6186   -5.1749  -18.2659 H   0  0  0  0  0  0  0  0  0  0  0  0
    5.0102   -4.5342  -19.2038 H   0  0  0  0  0  0  0  0  0  0  0  0
    8.9080   -2.2855  -17.0610 H   0  0  0  0  0  0  0  0  0  0  0  0
    9.3269   -3.2558  -18.5134 H   0  0  0  0  0  0  0  0  0  0  0  0
    4.5744   -4.3343  -16.1744 H   0  0  0  0  0  0  0  0  0  0  0  0
    5.7972   -5.3360  -17.0275 H   0  0  0  0  0  0  0  0  0  0  0  0
    7.0434   -2.1789  -18.6009 H   0  0  0  0  0  0  0  0  0  0  0  0
    7.0338   -3.9639  -18.8013 H   0  0  0  0  0  0  0  0  0  0  0  0
    5.1581    4.3901  -17.1674 H   0  0  0  0  0  0  0  0  0  0  0  0
    5.7507    5.3989  -18.5304 H   0  0  0  0  0  0  0  0  0  0  0  0
    6.0430    3.5104  -19.9513 H   0  0  0  0  0  0  0  0  0  0  0  0
    3.3225    3.5300  -18.5445 H   0  0  0  0  0  0  0  0  0  0  0  0
    4.9472    1.4409  -18.0896 H   0  0  0  0  0  0  0  0  0  0  0  0
    3.2650    5.6606  -17.0257 H   0  0  0  0  0  0  0  0  0  0  0  0
    3.4699    6.3708  -18.4818 H   0  0  0  0  0  0  0  0  0  0  0  0
    3.2559    4.2461  -20.7751 H   0  0  0  0  0  0  0  0  0  0  0  0
  1  2  2  0
  1  3  1  0
  2  4  1  0
  3  5  2  0
  4 14  2  0
  5 14  1  0
  6 12  2  0
  6 13  1  0
  7 12  1  0
  7 15  2  0
  8 13  2  0
  8 15  1  0
  9 16  2  0
  9 17  1  0
 10 16  1  0
 10 18  2  0
 11 17  2  0
 11 18  1  0
 12 19  1  0
 13 20  1  0
 14 25  1  0
 15 21  1  0
 16 24  1  0
 17 39  1  0
 18 40  1  0
 19 33  1  0
 19 36  2  0
 20 34  1  0
 20 37  2  0
 22 26  1  0
 23 27  1  0
 24 31  1  0
 25 35  1  0
 26 28  1  0
 27 29  1  0
 28 34  1  0
 29 34  1  0
 30 32  1  0
 30 35  1  0
 31 32  1  0
 31 33  1  0
 32 38  1  0
  1 41  1  0
  2 42  1  0
  3 43  1  0
  4 44  1  0
  5 45  1  0
  6 46  1  0
  7 47  1  0
  8 48  1  0
  9 49  1  0
 10 50  1  0
 11 51  1  0
 21 52  1  0
 21 53  1  0
 21 54  1  0
 22 55  1  0
 22 56  1  0
 22 57  1  0
 23 58  1  0
 23 59  1  0
 23 60  1  0
 24 61  1  0
 24 62  1  0
 25 63  1  0
 25 64  1  0
 26 65  1  0
 26 66  1  0
 27 67  1  0
 27 68  1  0
 28 69  1  0
 28 70  1  0
 29 71  1  0
 29 72  1  0
 30 73  1  0
 30 74  1  0
 31 75  1  6
 32 76  1  1
 33 77  1  0
 35 78  1  0
 35 79  1  0
 38 80  1  0
M  CHG  1  35   1
M  END
>  <OMEGA_C>  (2) 
K4bpQNzpEUGmZp7B4H34QIBnC0EURZTBdZi+QA41DkEYVKHBJZncQP0aAUEtEo3BaJSiQAkRBEGi
G5rBCi7TQJ5gvL2ZB4fB0JQBQXf9vD+NDHzBvkb5QAM9Rb9iym3B6IHaQNFxqT+5bKvBJT2kQNlR
tr4qQ6fBMivrQOKthb/sTq3B1wLmQIycmD/GXIbB68XcQMY+ib/ImX7BBqOxQMDf+kAr+Y/BqyEG
QZe9AD/OaGzBesKwQA7Lfj8T/KfBMLj3QDO8nD4/Aq7BdWLBQOrjr78P+anBVxraQH4dD0CTIo7B
jdXFQPkDF8A1en7BeZ0VQfyZTz+/eFrBwwFoQD/bQcBBFZTBVnMPQS1bjcDl2IXBf6+RQGzlBUBY
9KTBfMeTQPJK5UAXI4jBkJmLQPC/i8DcpJLBdN0KQaXcTMBfAo3Bj4WnQOeBjMCaaojBtobmQCgB
ScAMvJDBanibQDbMnkBCdpDBHGGlQI2SP0BPPpzBjhyFQGUvgUASX5jB5c+yQDTgCEC8R5PBIIPG
QPCMUMCm8ofB1/57QJEjwUCtT43BDyjyQHOnS0B22Y/BeY2xQFtJKMBSP27BX2dsQDMGmkAFNqHB
I9gPQVQbIT92PbHBX0q1QI/TKsBjWanBivr+QATAGUEb7aPBqa0MQQFRDkFaB5LB+zOzQEokE0F+
GqnBPR/oQJIL+EADVYXBK5uBQBZbAUHwT5zBa2W9QP5spL5be43BQ0EJQRpaHEAKS3vBKkoAQeOk
wr+B6GHBBv3jQG79FkDSEazBblWEQHYWHL8koqTBg8gAQU/h6b/IU6/B8cwMQQ7jnD9gwkzBhdAd
Qcpx573/klXBKn8hQRClxT+zCWDBL19BQNIIRMA2b5vBZOw9QFekNsBIK43B8H2LQIGiDcAarJTB
MmEgQVQljcD8cIPB7EUFQSLei8DUWn3BnvkLQefqqsAbTIrBu2eKQMO/LEBMEKzBVQhoQC0C0j9G
5KHBeVCmQImD2UCDQoHB15B3QGWH/EBwXIXBIpdnQPGYpcCIIJLBTlOgQAYYkcBaoZnBXIcOQURF
EsDZfIjBDjsVQc5eUMCKG5TBp2GSQDiyisASZYHB64K5QMTAqsBMOIjB7WPhQJByC8CSzpTBwRTh
QNCwfcAMaZbB3w6lQOB7jEDaVonBbAW4QPDDrEBSPpTBZGDBQP2qYEA4nJ/BHKNUQLbrYUA2W5TB
TU+eQNtwuD+Ht5DBifZQQM0jtUCkNIjBgBJeQJrdy0DT2pPBomBQQPTfh0BxM6bBgnHrQJnZEEFg
X5/BrSrAQHMhDUE39aHBU2v7QDDcCkEBQpXB+s+kQFd+A0GzaZrBiS3gQCATAUEJu43B45bQQECi
x71NrIbBTwQBQdZWuT9m7HvBSvn3QMDcTL8gmm3B1Q/XQOrrpj+vn6vBCg2hQHCbvL4kG6fB9Wrn
QDtqiL95f63B3RzkQEKNlj8PJobBg8TaQB9Mi7+yJH7Be+G0QNq9+kAHS5DBuLYFQcjc7z7yZWzB
vaWtQO5Vez9C5qfBd/vzQCywkD7kUK7Bj9W9QNrhsb+bAKrBWezYQKlWDUDcFY7BuSLFQLBeGcC4
2H7Bdf0VQbdBQT/WGFvBwGllQHu7TMDGFpbBSRsRQUA0gcDaXITB1g6PQPZwBUBaq6TBwdeXQCn3
5UB/IIjBwwpxQFz+d8DRKYvBWQ0FQUG+hsBDAI/B6CinQGrxisBKi4nBJAjoQCsMR8DXtJDB62ed
QAlcn0BzipDBoBCkQN7hPkCpHpzBXRKFQKC2gUAqE5jBW4GxQOQDCEBNLpPB7CvFQB2+TMC0rojB
u9SAQFnQwUDz+YzBv+vxQCrCR0DaFJDBuRSxQNjGL8BG727BEStqQB9cmkAU06DBK8oNQVSBGT/V
2bHBBV+xQMykK8C4n6nB8TEAQV5MGEHsJaXBHQC0QGOrEUFIuKnB0UYOQZLGDUHsR5PB05ODQPrH
AEEbW5zB1XXsQKHS+ECi/4XB6cO5QJTMn77x7YzB8eAIQawrGkAzTHvBynj/QN3uxr+Rz2HBeYPg
QAynFUA8Z6zBSWOBQO5wHr9KSKTB4aj9QEb/7L/fjK/ButsNQWGClj8eBE3BVB4eQQNoN77FlVbB
ftchQer2vD+GGmHBbXoiQMwvOMBnAZfBreGHQK2nFMBqnpbB7K51QK9XesD1eZzB1AMdQc3kmsCY
gIPBpj8ZQTn/Q8D8SoTB96wFQZG/gsB4XXvBowyHQDpKLEDTuqvBdlxjQFnp0T8wYaHBXy6rQNNM
2kCDYIHBOpGAQJet/UDgOIXBB2FgQJAcSsCE0oTBmkxGQEnml8AOrorB5KUQQcJehcCynJXBaSb6
QLUepsBxAI/BFQCpQGr9ncBzKILBYaCwQCLhnsBLZpDBsX33QJQICMAxB5DB/DnaQKYsTsCQwJjB
SqmoQH8ajUAWkInBFQW5QHE0rUCNwpTBMS/AQNBoXkBrp5/BcG1VQGWSZEAXs5PBT9ecQJiNtz8L
lpDBZvtYQK7jtUBIkYfB2NZgQP+PzEDxS5PBCalLQAw7iEAflqXBxDnvQOUgE0GUnZ3BOQbEQEaZ
EEGdi6DBfj7+QMGXCkFX35PBX/KnQLNoBUE+x5nBz1fiQEwO/kCtKo3B7pfUQAdCXr6L2IXBMB8E
Qe5roj+5lXrBkOz6QM+FdL+28GvByh3UQIehvD/jRavBt4udQP1+M767nKbBNYbiQFj2Zr/6uq3B
lwTqQNIhgz/Wa4XBzITdQCqwm7/MjHzBhle3QBcC+ECBNJDBpA8IQRNwlD7t6GrBRvSqQPojlj83
SKfBOPPvQLDt4D4bX67B1Ta5QM3Emr/i9KnBg4ffQMraA0D7QY3B8bfGQKdcIMD+t33B+ZIYQT/C
DD+Wv1nB6kdjQDNSS8A/h5XBtuIQQR/dg8DYb4XBlziPQAefEkCsvqLBuQeaQNuo3UDNI4nBPIVv
QAZ/eMCjuYrBczsEQdVDh8B19o/BqyamQPpHjMB0WYnBctzlQApaSMDK45DBXpCKQPO4qUAXoZfB
WL+nQMkxP0AZeJnB1xeNQC4afED8fJLBpHO4QM+i+z+qXpLB/t7EQAC1UMC4ZIjB8NVxQGwLyEDJ
rI/BQZ/3QCWlQEAwz47BOBizQOcAOMAdyW3BTHJFQGQqXUAy8ZDBoNILQTKrPD9i8bHB3DSsQCzT
H8ChnKnBwnICQYyeG0GI1qLBjHu4QO4+F0H0+qfBZ5kPQYXsDEGHi5HBuYuGQJb4A0Gb4JvBoOXt
QAn78EBwtYXBHjC9QOmXzL5mCIzByqwMQcU+DUDNJ3rBAZ4AQY/S2r/h+1/BlkLeQI0rIECv8qvB
ZU18QHqp074Ii6PBXOf3QFkR2b/pIbDBUMkQQRmSgD+/vUvBxRggQfDbzL60ClXBFN4kQYL9nT8n
+F/B06ggQL9QNcBxQJbBbVaHQDcGFMCmBJbB+8JxQP1CeMBADpzBoPwcQWZkncBlH4XBHtkYQfkG
ScCaCIXBst0FQYI+h8BGQX3BHTSIQAGPQUCDEKnB9SZiQFBa7z/wsZ/BnAqtQEZnxUBV44TBMF+K
QKvO8kB5S4PBuJxgQG8+S8AlP4TB2LJDQJu9l8C/SIrBfGoPQZMPhMDUtZbBId74QJnKpsDdTZDB
BwOoQOQBoMByE4LBoduuQGbJn8AKWJDBkD31QGRICcC6LZDBbkDWQAumTcDYv5jBwraqQGwktEDr
FprBBQZrQNlsqECrrJ7BS3PCQJeoY0CQ8pzBJC+dQHFLgUAhtIrB5bamQMMIkz80G5HBaflKQP7m
t0CXw4rB2k5QQIpp3kDBkZPB+HxHQMEtJkCRtY3B

>  <OMEGA_E>  (2) 
cG40PhCj5D1Yo+g+

>  <OMEGA_NBR>  (2) 
      6863

$$$$
50139675
     RDKit          3D

 58 60  0  0  1  0  0  0  0  0999 V2000
    6.8976   -1.1783  -15.9796 C   0  0  0  0  0  0  0  0  0  0  0  0
    7.8193    8.7602  -18.6605 C   0  0  0  0  0  0  0  0  0  0  0  0
    6.5511   -0.1644  -16.8940 C   0  0  0  0  0  0  0  0  0  0  0  0
    7.8087   -0.9066  -14.9390 C   0  0  0  0  0  0  0  0  0  0  0  0
    6.9659    8.1510  -17.7208 C   0  0  0  0  0  0  0  0  0  0  0  0
    7.3229    9.1349  -19.9251 C   0  0  0  0  0  0  0  0  0  0  0  0
    8.0666    1.3785  -15.7555 C   0  0  0  0  0  0  0  0  0  0  0  0
    6.7285    1.3333  -21.4242 C   0  0  0  0  0  0  0  0  0  0  0  0
    5.0443   -0.3170  -20.7834 C   0  0  0  0  0  0  0  0  0  0  0  0
    5.1129    8.3044  -19.3071 C   0  0  0  0  0  0  0  0  0  0  0  0
    7.2224   -1.0457  -21.6095 C   0  0  0  0  0  0  0  0  0  0  0  0
    7.1394    1.1201  -16.7876 C   0  0  0  0  0  0  0  0  0  0  0  0
    8.3779    0.3802  -14.8133 C   0  0  0  0  0  0  0  0  0  0  0  0
    5.6129    7.9238  -18.0419 C   0  0  0  0  0  0  0  0  0  0  0  0
    5.4384    1.0279  -20.9373 C   0  0  0  0  0  0  0  0  0  0  0  0
    7.6214    0.2984  -21.7510 C   0  0  0  0  0  0  0  0  0  0  0  0
    5.9352   -1.3524  -21.1221 C   0  0  0  0  0  0  0  0  0  0  0  0
    5.9706    8.9026  -20.2503 C   0  0  0  0  0  0  0  0  0  0  0  0
    6.7883    2.1847  -17.7446 C   0  0  0  0  0  0  0  0  0  0  0  0
    9.3729    0.6776  -13.7119 C   0  0  0  0  0  0  0  0  0  0  0  0
    4.4935    2.1430  -20.5474 C   0  0  0  0  0  0  0  0  0  0  0  0
    4.7041    7.2739  -17.0246 C   0  0  0  0  0  0  0  0  0  0  0  0
    4.9175    5.0569  -18.0500 C   0  0  0  0  0  0  0  0  0  0  0  0
    5.1400    3.0291  -19.4637 C   0  0  1  0  0  0  0  0  0  0  0  0
    4.1686    4.1074  -18.9776 C   0  0  2  0  0  0  0  0  0  0  0  0
    5.5354    2.1630  -18.3417 N   0  0  0  0  0  0  0  0  0  0  0  0
    4.0068    6.1308  -17.6295 N   0  0  0  0  0  0  0  0  0  0  0  0
    7.5909    3.0785  -17.9957 O   0  0  0  0  0  0  0  0  0  0  0  0
    3.6695    4.8512  -20.0899 O   0  0  0  0  0  0  0  0  0  0  0  0
    8.8624    0.5977  -22.1966 F   0  0  0  0  0  0  0  0  0  0  0  0
    5.5605   -2.6411  -20.9607 F   0  0  0  0  0  0  0  0  0  0  0  0
    5.2054    9.4720  -22.2083 I   0  0  0  0  0  0  0  0  0  0  0  0
    6.4654   -2.1634  -16.0758 H   0  0  0  0  0  0  0  0  0  0  0  0
    8.8548    8.9405  -18.4121 H   0  0  0  0  0  0  0  0  0  0  0  0
    5.8358   -0.3665  -17.6775 H   0  0  0  0  0  0  0  0  0  0  0  0
    8.0722   -1.6835  -14.2366 H   0  0  0  0  0  0  0  0  0  0  0  0
    7.3483    7.8579  -16.7542 H   0  0  0  0  0  0  0  0  0  0  0  0
    7.9788    9.6004  -20.6459 H   0  0  0  0  0  0  0  0  0  0  0  0
    8.5397    2.3470  -15.6884 H   0  0  0  0  0  0  0  0  0  0  0  0
    7.0293    2.3635  -21.5454 H   0  0  0  0  0  0  0  0  0  0  0  0
    4.0601   -0.5523  -20.4061 H   0  0  0  0  0  0  0  0  0  0  0  0
    4.0742    8.1369  -19.5507 H   0  0  0  0  0  0  0  0  0  0  0  0
    7.9029   -1.8414  -21.8744 H   0  0  0  0  0  0  0  0  0  0  0  0
   10.3889    0.4415  -14.0614 H   0  0  0  0  0  0  0  0  0  0  0  0
    9.3158    1.7430  -13.4442 H   0  0  0  0  0  0  0  0  0  0  0  0
    9.1371    0.0646  -12.8295 H   0  0  0  0  0  0  0  0  0  0  0  0
    4.2689    2.7561  -21.4327 H   0  0  0  0  0  0  0  0  0  0  0  0
    3.5614    1.7099  -20.1553 H   0  0  0  0  0  0  0  0  0  0  0  0
    5.3039    6.9244  -16.1714 H   0  0  0  0  0  0  0  0  0  0  0  0
    3.9637    8.0089  -16.6758 H   0  0  0  0  0  0  0  0  0  0  0  0
    5.2717    4.5062  -17.1660 H   0  0  0  0  0  0  0  0  0  0  0  0
    5.7779    5.4897  -18.5814 H   0  0  0  0  0  0  0  0  0  0  0  0
    6.0302    3.5159  -19.8886 H   0  0  0  0  0  0  0  0  0  0  0  0
    3.3445    3.6320  -18.4255 H   0  0  0  0  0  0  0  0  0  0  0  0
    4.8586    1.5179  -17.9869 H   0  0  0  0  0  0  0  0  0  0  0  0
    3.3643    5.7590  -16.9593 H   0  0  0  0  0  0  0  0  0  0  0  0
    3.5031    6.4530  -18.4310 H   0  0  0  0  0  0  0  0  0  0  0  0
    3.2002    4.2690  -20.6758 H   0  0  0  0  0  0  0  0  0  0  0  0
  1  3  2  0
  1  4  1  0
  2  5  2  0
  2  6  1  0
  3 12  1  0
  4 13  2  0
  5 14  1  0
  6 18  2  0
  7 12  2  0
  7 13  1  0
  8 15  2  0
  8 16  1  0
  9 15  1  0
  9 17  2  0
 10 14  2  0
 10 18  1  0
 11 16  2  0
 11 17  1  0
 12 19  1  0
 13 20  1  0
 14 22  1  0
 15 21  1  0
 16 30  1  0
 17 31  1  0
 18 32  1  0
 19 26  1  0
 19 28  2  0
 21 24  1  0
 22 27  1  0
 23 25  1  0
 23 27  1  0
 24 25  1  0
 24 26  1  0
 25 29  1  0
  1 33  1  0
  2 34  1  0
  3 35  1  0
  4 36  1  0
  5 37  1  0
  6 38  1  0
  7 39  1  0
  8 40  1  0
  9 41  1  0
 10 42  1  0
 11 43  1  0
 20 44  1  0
 20 45  1  0
 20 46  1  0
 21 47  1  0
 21 48  1  0
 22 49  1  0
 22 50  1  0
 23 51  1  0
 23 52  1  0
 24 53  1  6
 25 54  1  1
 26 55  1  0
 27 56  1  0
 27 57  1  0
 29 58  1  0
M  CHG  1  27   1
M  END
>  <OMEGA_C>  (3) 
UrncQF3Tlr+OrH/BGTj6QO8pDEHNSJXB3aLRQHpTKL72JofBL+H5QB4UaL9WBm/BpujeQFVqAkEq
xI3BIFXqQKMoEkGqZp/B7BABQZVxsD+4FnzBNFDXQEiqqj+yZKvBIGuhQHROor5uRKbBEp2jQOne
BEHndJrB2h3nQI3ahb9B4KzBAHbkQB9ejz8XTYbB0gsGQcOrwj5CA23BlZyzQLSP/UDHVZDBegeu
QIaSgz+Nf6fBReLzQNrNmD4eAq7BC+29QJsbrb8j+qjB0g6/QAlxDkGiAKLBzTnZQNrRC0Dh9I3B
lfcVQbh5LT8OZFvBXsqPQLkmCUAqYaTB94eWQLPD6EB5MojB6ludQM7RoUBWZpDBA3ukQLPcQUCQ
tZvBVGWFQJpvg0AZ0pfB9SGxQAduCkC3u5LBUDeAQCIvxEAeCY3B1ujyQJYGRUA+94/BcNlqQNM8
m0AvuKDBPswNQQoCGT+LkrHBvu+xQJkIKcBrr6fBwJKmQHONF0GvqrHBsuTOQPF0CsBCm4DBVK0N
QTQMD0EDTJPB8766QA6ju76Ra43BpycBQXR8179EyWPB6yTrQJ9z+0CWCIbBJVL/QGmbGUHLKqXB
yKIIQTg1FkCQA3vBIfDgQElDF0AOXazBceyBQORjDb+4P6PBs1+CQJMwAkHJZ5zBZeT8QBW067/f
/q7B6TgmQccR4j5Y+2DBXg0VQUYb3z9UG1fBrTESQRhfhD3HRU3Bz5qIQG5jMEA0dqvBHu5jQB7f
2j8bPqHByrmpQKyU3UD+XoHBo619QEUkAEEaaIXBabGoQM0ykEAOVInBLOS4QKCrr0CnppTBqvfA
QC8EYUDLG5/BzwtWQPtyaEBkZ5PB2nmbQGFKwj8j5Y/BqFBXQABKuECwrIfBXzJgQAB/zkCrcpPB
qdBMQEObiEAgaKXBarUEQY4e5z2R8mzB79r5QK/BDEFlzJXBnND9QEjAmz8ntHnBctn8QCo8mL9j
73LBo3feQLwuA0GYPo7B2wHqQG6lEkED75/Bo97WQLyGjr7D34jBMHzXQPiBrz/jTqvBYK6hQJib
lb6IY6bB9TijQN55BUE89ZrBJAjnQGZggL/GVa3BKu3jQBakgz/NAYbBsjHkQGAbsr+lzYLBTSmz
QBAi/0DNzZDBI3KuQLz+hj/2VKfBdcvzQHY4sD5UQa7BSPu9QAb5qL8dZKnBqLe+QAzyDkEgh6LB
8RjYQM7eCkCB5YzB71XcQBTqMsAsAYfBFnCQQO9BCkC8+6PBmgSWQM3a6kD5mojBAridQL4Eo0Bm
Q5DBCCylQKq4QUAGKpvBNf2FQEStg0Dfc5fB6emwQJwYCUCWL5LByziAQAGixUCsQY3BTVnxQAgH
RkDLPY7BL1RrQISemkDqd6DBfZYNQfeZJz8Y+7HBHuOxQJAlJ8DYXajBiUSmQDIFGEFEM7LBnvoN
Qcojhz4DkV7BwIINQYeWD0El05PB9FkEQbtGDUAcfnXB8gwDQRMyAsDPN2nBOafqQNw4/UBAfYbB
IQn/QGsAGkFuuKXBuYvCQLE02b6Yw4/BCyHhQBHWGUDjFazBpz6CQLnZCL88XqPBBwKCQNK8AkHd
6ZzBFLT8QHx65b/jpq/Bm+u9QOdPS8C+yoPB38LaQJVxMcA6y4/ByqT2QLUSXcDxeITBTSuJQJuz
MkAJ9KrBIktlQJQT3D+H5aDBYRepQB+G4EDArIHBcQd8QG40AUG9AYbBie+oQA5okkCIB4nBeU65
QAJqsEAqlZTBtxDCQLJMYECcbZ7BvYZXQEWJaUAR65LBPi+bQHfbvD8wuo/BSstWQGhBukC144fB
suRgQAkdz0AIzZPBtXlNQD95h0D1CqXBdtXbQBZHlL9gQX/BMQi+QAgQDkGRi6LB7zzRQIyLHL7C
DofBRxv5QEiUYr9Yqm7BmcOiQEzPBEFC3ZrBeGHpQEi9EUFOEKDBvwYBQezQsT/RF3zB02XXQEJh
qj+BYavBTH6hQIoJob4KKqbBblLeQCywAkEtP47B0ibnQEJVhr8wwazBx1jkQI5gkD8kSYbBP0MG
Qag9xj5xLG3Bgv6yQKka/kDptZDBfByuQKHBgz9ZeKfB4fTzQGtelj5D8a3BQ/W9QHwirb+x1qjB
h3X5QMIMDEGR6pXBU1LZQOPvC0Bp/43BH1AVQaaLNT8d6lrBGOyPQAB0CUAXZKTBu0aWQOOc6UDX
dIjBf6mdQBFBokDkdpDB25ykQLktQkAEuJvBMZ6FQGqeg0Da0JfB3SyxQPDeCkAmvJLB2EeAQLR8
xEAgH43BKEzzQARZRECMHpDBatJqQMUum0ADuaDBOdoNQZjrFj/2f7HBleqxQEf7KMDHgKfBKNId
QaJREUFYLZLBQ4rNQIjZCMAISYDBpbmxQBpWEkG2VKrBtYG6QAugt76mWo3BWFoAQcUt078XEmPB
QnSBQMscAkEVu5zBg0v+QCDqGEGt7qXBt2kIQSI4F0BU7HrBHgnhQJoPF0CAZ6zBCQaCQD0FDL+J
HaPBRLrqQK2b/EB7fIbBnOb8QKxt7L9F2K7Bf9YlQUcC9D6OsV/BgREUQWeQ4z9P71bBBvgQQRWb
2z2o1kzBnN2IQKKeMEDEfKvBOA1kQDrl2z91RKHBZK+pQN0Y30ATmoHB+MV8QBqKAEGZvoXBFj+p
QO3ZkEB1YonB7wW5QOwtsEDqxJTBFyHBQO8/YUBRHZ/BZr1WQBzqaECdV5PBm22bQHbgwz9M3I/B
BTRYQMycuEAbq4fBwYZfQFFGzkCMhZPB8rFMQP5piEC+XaXBW5IFQfI3OD7qLm3BIWq+QC/CDkFs
66LBqS7/QDqzoj9aI3rBTwD+QIYskL/PnnLB6fSiQFh4BUH9SZvBl77pQOpZEkG0YaDBqq7WQBzy
eL7Sm4jB+tPWQFKtqz/GOqvBSuWgQAhfn74PK6bBlUfeQDUlA0GAnY7BJDnmQHiwhL99CK3BXFnk
QGaQiD9dCIbBpFvkQNYerL+wdILBOPiyQONE/0AtIJHB9b2tQBRGhD8TPKfBvBnzQMC7nT7qD67B
gCS9QLowrL80EanBRZr5QIGIDEHpOpbBNUfYQHNWDEA9D43BOqXbQB1pMMBaYobBtM6PQHtRCUCO
+KPBFPuVQFE060BK34jBNY+dQJBJo0BrfJDBXL+kQBW5QUDeRpvB8rCFQILig0BSoZfBq8ywQL0q
CkAZN5LB7R2AQJDqxUAQdo3BoaTxQJfkRkCYqI7BpANrQHGsmkCsr6DBiFINQYAjHD+uubHB8wSx
QAqaKMA146fBvM4dQeTKEUHWWpLBpjIPQSYIsD4RE1/BqUSyQG8fE0FitarBukEFQcrjEEDCX3bB
ycgDQR0h+7/bxWjBqK2BQKbOAkHWM53Bs83+QMGOGUFONabBcZzBQOD5zL4sV4/By4jgQGTNF0Ds
G6zBKW+BQAwfDL/HIaPBXInqQDpJ/UBb24bBfNT7QJxl6r+ISK/B53a9QMC1R8CK6oLB3SjZQGFF
MMCGKY/BNgP2QIiuWsCy64PBWGeIQGn9MEBFAKvBzyVkQOn22j/gy6DBjCmpQM0A4UDG8oHBAA98
QA9pAUFRR4bB9OuoQGC8kkD2QYnBLw+5QAqnsECb2JTBkorBQMH2X0CvpJ7BtcVWQDdpakDiE5PB
qhqbQKYVwD/OmI/BL9xWQJyWukDtDYjBA1tgQAJOz0Aw/ZPByf5MQPl7h0BtO6XB

>  <OMEGA_E>  (3) 
WM3iPhjZ7z5gvhU/HFEZPw==

>  <OMEGA_NBR>  (3) 
     14911

$$$$
50154283
     RDKit          3D

 90 92  0  0  1  0  0  0  0  0999 V2000
    7.8924    8.3261  -18.1107 C   0  0  0  0  0  0  0  0  0  0  0  0
    6.8610    7.7713  -17.3332 C   0  0  0  0  0  0  0  0  0  0  0  0
    7.6159    8.8231  -19.3989 C   0  0  0  0  0  0  0  0  0  0  0  0
    6.3888   -0.3070  -16.9235 C   0  0  0  0  0  0  0  0  0  0  0  0
    7.9417    1.2049  -15.7972 C   0  0  0  0  0  0  0  0  0  0  0  0
    7.6210   -1.0578  -14.9611 C   0  0  0  0  0  0  0  0  0  0  0  0
    5.2668    8.2220  -19.1312 C   0  0  0  0  0  0  0  0  0  0  0  0
    6.6257    1.1327  -21.3350 C   0  0  0  0  0  0  0  0  0  0  0  0
    4.8937   -0.5148  -20.8356 C   0  0  0  0  0  0  0  0  0  0  0  0
    7.1130   -1.2440  -21.5461 C   0  0  0  0  0  0  0  0  0  0  0  0
    6.9992    0.9657  -16.8206 C   0  0  0  0  0  0  0  0  0  0  0  0
    6.7051   -1.3208  -15.9939 C   0  0  0  0  0  0  0  0  0  0  0  0
    5.5501    7.7157  -17.8423 C   0  0  0  0  0  0  0  0  0  0  0  0
    8.2430    0.1970  -14.8500 C   0  0  0  0  0  0  0  0  0  0  0  0
    5.3109    0.8297  -20.9160 C   0  0  0  0  0  0  0  0  0  0  0  0
    6.3073    8.7767  -19.9251 C   0  0  0  0  0  0  0  0  0  0  0  0
    7.5281    0.0981  -21.6340 C   0  0  0  0  0  0  0  0  0  0  0  0
    5.7916   -1.5480  -21.1648 C   0  0  0  0  0  0  0  0  0  0  0  0
    6.6123    2.0571  -17.7375 C   0  0  0  0  0  0  0  0  0  0  0  0
    5.9887   -2.6094  -15.9936 C   0  0  0  0  0  0  0  0  0  0  0  0
    3.1449   -2.7359  -18.3304 C   0  0  0  0  0  0  0  0  0  0  0  0
    8.5420   -4.7478  -17.0647 C   0  0  0  0  0  0  0  0  0  0  0  0
    9.7479    1.8505  -13.5794 C   0  0  0  0  0  0  0  0  0  0  0  0
    4.7839    9.2186  -21.7615 C   0  0  0  0  0  0  0  0  0  0  0  0
    4.3527    1.9477  -20.5565 C   0  0  0  0  0  0  0  0  0  0  0  0
    4.4544    7.0996  -17.0022 C   0  0  0  0  0  0  0  0  0  0  0  0
    3.7942   -4.1296  -18.4152 C   0  0  0  0  0  0  0  0  0  0  0  0
    8.2973   -3.4716  -17.8876 C   0  0  0  0  0  0  0  0  0  0  0  0
    4.7611   -4.4065  -17.2395 C   0  0  0  0  0  0  0  0  0  0  0  0
    6.8094   -3.2909  -18.2808 C   0  0  0  0  0  0  0  0  0  0  0  0
    4.6704    4.8772  -18.0345 C   0  0  0  0  0  0  0  0  0  0  0  0
    9.1005    0.4563  -13.6143 C   0  0  2  0  0  0  0  0  0  0  0  0
    4.9768    2.8644  -19.4818 C   0  0  1  0  0  0  0  0  0  0  0  0
    3.9967    3.9645  -19.0583 C   0  0  2  0  0  0  0  0  0  0  0  0
    5.3586    2.0231  -18.3360 N   0  0  0  0  0  0  0  0  0  0  0  0
    5.8544   -3.4018  -17.1466 N   0  0  0  0  0  0  0  0  0  0  0  0
   10.1699   -0.5585  -13.5252 N   0  0  0  0  0  0  0  0  0  0  0  0
    3.7867    6.0197  -17.7462 N   0  0  0  0  0  0  0  0  0  0  0  0
    7.3767    2.9957  -17.9405 O   0  0  0  0  0  0  0  0  0  0  0  0
    5.5166   -2.9924  -14.9280 O   0  0  0  0  0  0  0  0  0  0  0  0
    3.6450    4.7471  -20.2012 O   0  0  0  0  0  0  0  0  0  0  0  0
    6.1198    9.2806  -21.2082 O   0  0  0  0  0  0  0  0  0  0  0  0
    8.7894    0.3964  -22.0175 F   0  0  0  0  0  0  0  0  0  0  0  0
    5.3880   -2.8347  -21.1171 F   0  0  0  0  0  0  0  0  0  0  0  0
    8.8981    8.3712  -17.7196 H   0  0  0  0  0  0  0  0  0  0  0  0
    7.0744    7.3881  -16.3463 H   0  0  0  0  0  0  0  0  0  0  0  0
    8.4146    9.2446  -19.9912 H   0  0  0  0  0  0  0  0  0  0  0  0
    5.6799   -0.5027  -17.7145 H   0  0  0  0  0  0  0  0  0  0  0  0
    8.4361    2.1632  -15.7365 H   0  0  0  0  0  0  0  0  0  0  0  0
    7.8499   -1.8310  -14.2427 H   0  0  0  0  0  0  0  0  0  0  0  0
    4.2574    8.1874  -19.5138 H   0  0  0  0  0  0  0  0  0  0  0  0
    6.9380    2.1625  -21.4258 H   0  0  0  0  0  0  0  0  0  0  0  0
    3.8876   -0.7515  -20.5222 H   0  0  0  0  0  0  0  0  0  0  0  0
    7.8072   -2.0401  -21.7710 H   0  0  0  0  0  0  0  0  0  0  0  0
    2.4700   -2.5925  -19.1871 H   0  0  0  0  0  0  0  0  0  0  0  0
    2.5719   -2.6548  -17.3949 H   0  0  0  0  0  0  0  0  0  0  0  0
    3.9289   -1.9646  -18.3483 H   0  0  0  0  0  0  0  0  0  0  0  0
    9.6105   -4.8242  -16.8147 H   0  0  0  0  0  0  0  0  0  0  0  0
    7.9509   -4.7054  -16.1380 H   0  0  0  0  0  0  0  0  0  0  0  0
    8.2394   -5.6267  -17.6528 H   0  0  0  0  0  0  0  0  0  0  0  0
   10.3451    1.9551  -12.6616 H   0  0  0  0  0  0  0  0  0  0  0  0
   10.3995    1.9740  -14.4569 H   0  0  0  0  0  0  0  0  0  0  0  0
    8.9620    2.6200  -13.5950 H   0  0  0  0  0  0  0  0  0  0  0  0
    4.7854    9.6493  -22.7737 H   0  0  0  0  0  0  0  0  0  0  0  0
    4.4555    8.1699  -21.8099 H   0  0  0  0  0  0  0  0  0  0  0  0
    4.0952    9.7894  -21.1213 H   0  0  0  0  0  0  0  0  0  0  0  0
    4.1333    2.5409  -21.4564 H   0  0  0  0  0  0  0  0  0  0  0  0
    3.4198    1.5145  -20.1665 H   0  0  0  0  0  0  0  0  0  0  0  0
    4.8916    6.6886  -16.0803 H   0  0  0  0  0  0  0  0  0  0  0  0
    3.7161    7.8732  -16.7447 H   0  0  0  0  0  0  0  0  0  0  0  0
    2.9994   -4.8900  -18.4047 H   0  0  0  0  0  0  0  0  0  0  0  0
    4.3564   -4.1998  -19.3581 H   0  0  0  0  0  0  0  0  0  0  0  0
    8.6119   -2.6024  -17.2913 H   0  0  0  0  0  0  0  0  0  0  0  0
    8.9004   -3.5238  -18.8060 H   0  0  0  0  0  0  0  0  0  0  0  0
    4.1876   -4.3905  -16.3010 H   0  0  0  0  0  0  0  0  0  0  0  0
    5.2086   -5.4017  -17.3789 H   0  0  0  0  0  0  0  0  0  0  0  0
    6.6920   -2.2949  -18.7328 H   0  0  0  0  0  0  0  0  0  0  0  0
    6.5538   -4.0624  -19.0220 H   0  0  0  0  0  0  0  0  0  0  0  0
    4.8582    4.3148  -17.1080 H   0  0  0  0  0  0  0  0  0  0  0  0
    5.6247    5.2439  -18.4407 H   0  0  0  0  0  0  0  0  0  0  0  0
    8.4549    0.3631  -12.7285 H   0  0  0  0  0  0  0  0  0  0  0  0
    5.8753    3.3372  -19.9049 H   0  0  0  0  0  0  0  0  0  0  0  0
    3.1043    3.5051  -18.6083 H   0  0  0  0  0  0  0  0  0  0  0  0
    4.6770    1.3911  -17.9672 H   0  0  0  0  0  0  0  0  0  0  0  0
   10.7286   -0.3843  -12.7143 H   0  0  0  0  0  0  0  0  0  0  0  0
    9.7610   -1.4686  -13.4589 H   0  0  0  0  0  0  0  0  0  0  0  0
   10.7443   -0.5098  -14.3423 H   0  0  0  0  0  0  0  0  0  0  0  0
    3.0123    5.6930  -17.2045 H   0  0  0  0  0  0  0  0  0  0  0  0
    3.4542    6.3904  -18.6134 H   0  0  0  0  0  0  0  0  0  0  0  0
    3.2243    4.1927  -20.8479 H   0  0  0  0  0  0  0  0  0  0  0  0
  1  2  2  0
  1  3  1  0
  2 13  1  0
  3 16  2  0
  4 11  2  0
  4 12  1  0
  5 11  1  0
  5 14  2  0
  6 12  2  0
  6 14  1  0
  7 13  2  0
  7 16  1  0
  8 15  2  0
  8 17  1  0
  9 15  1  0
  9 18  2  0
 10 17  2  0
 10 18  1  0
 11 19  1  0
 12 20  1  0
 13 26  1  0
 14 32  1  0
 15 25  1  0
 16 42  1  0
 17 43  1  0
 18 44  1  0
 19 35  1  0
 19 39  2  0
 20 36  1  0
 20 40  2  0
 21 27  1  0
 22 28  1  0
 23 32  1  0
 24 42  1  0
 25 33  1  0
 26 38  1  0
 27 29  1  0
 28 30  1  0
 29 36  1  0
 30 36  1  0
 31 34  1  0
 31 38  1  0
 32 37  1  0
 33 34  1  0
 33 35  1  0
 34 41  1  0
  1 45  1  0
  2 46  1  0
  3 47  1  0
  4 48  1  0
  5 49  1  0
  6 50  1  0
  7 51  1  0
  8 52  1  0
  9 53  1  0
 10 54  1  0
 21 55  1  0
 21 56  1  0
 21 57  1  0
 22 58  1  0
 22 59  1  0
 22 60  1  0
 23 61  1  0
 23 62  1  0
 23 63  1  0
 24 64  1  0
 24 65  1  0
 24 66  1  0
 25 67  1  0
 25 68  1  0
 26 69  1  0
 26 70  1  0
 27 71  1  0
 27 72  1  0
 28 73  1  0
 28 74  1  0
 29 75  1  0
 29 76  1  0
 30 77  1  0
 30 78  1  0
 31 79  1  0
 31 80  1  0
 32 81  1  1
 33 82  1  6
 34 83  1  1
 35 84  1  0
 37 85  1  0
 37 86  1  0
 37 87  1  0
 38 88  1  0
 38 89  1  0
 41 90  1  0
M  CHG  2  37   1  38   1
M  END
>  <OMEGA_C>  (4) 
2Y78QLY3BUHL4pDBlI3bQFKu+EBrqorBfbXzQFsrDUELMZvBwnDMQAAqnb5hY4fBXCL+QDs5mj8w
wXzBOt/zQEhmh7+tYG/BbomoQGWNA0HEDJnBcAXUQHv7kD8orqrB85icQHbLA79Kr6bBlJ3jQMg6
n797XqzBIfnfQI41dz+dkIbBOpDWQKkQqb8Q53/BnJqxQLHm9kDvvI7BauMDQUa4ST7NmW3BpfKp
QLdpVD8MVKfBXdXJQHhtDEGcZp/B5eXwQP7fyD19Eq3BFFW5QDolxr92UanBSJjTQP6mA0B75o3B
BqO/QHYAJ8Cc5X/BSEVJQLIZL8CqpJLBNKwIQcntl8CEhIjBNPcbQaHb7D8FRVnBERaZQHt/E0GY
F67B/UiLQC1N+T+pc6TB2YqOQL8v40CKBIjBm9NyQFslhMBVUpPBwcEEQaAuXsDBGY/Bm1qYQGAC
jcCS6onB7+bZQLqdUsAnP5LBDXSVQOkRnECtRpDBe5sRQVCd6T4A1FnBvUGfQJhRN0C82pvBtsp/
QKC5fUBSd5jBp3mrQIx6AUAnsJLB8Fa7QLC2WcAjLInB7rciQfv3Dr8xZ1jBBFpyQGyhwEA4+I3B
xA3sQBi6P0AWho/B4oewQASEP8A+2W7BQUdpQAjol0D8m6HBRdXDQDV9FEFRqqnBT6EMQb3uyj7S
I7DBTmqsQFJsNcDO76jBsF4OQZzwBUHLwY3BaWHiQGhr7EAoxYLBT6IGQQ7qE0Hs7Z/BtsG1QBmu
AL9Bt43BLfoGQQ5xCkCByHvBljL7QMxf6r8g4mPBjTyIQHD/AkE4HJzBMgTeQOpmCkD+Z6vBuc54
QBlkQL9rLaTB/dT5QG2RAsDyKq7BPBQeQEHsJcBAf5nBXZokQKPoKcDAKIvBp3J7QIF3+79CyZLB
vMQZQQ1gmsCRhIbB/W3+QE2SlsCfGoHBhNQDQU4OtMDbOI3Bo4UlQeA/+j/MlUrBi2QmQTet/D9M
T2fBWGQPQeytJ0D5hFnBVyKZQK9jGkGDMLbBpJOOQPW3AkG7eq7BtAuDQEKhHEF5+KjB/UOEQLie
IkDDpqvBw91aQFnawT/3VKHBMIicQB8J1kBkpIDBq9RtQInx+0Aw9YXBj/Y/QOp6nMDPPJPBbWeL
QHlkhsBR3ZrBdsoJQWWOJsCFVIrB/GcOQWaGYcDBcpbBywCGQCt/jMBpaILBfqymQK/arMDtB4vB
1yTWQDbgEsDa3JXBYbjRQCX/gcAkLZjBjHabQJcSikAw3YjBMf2zQLHNp0CEhpPBSkcHQbnmuT7r
p0vBagK8QHmVVUBLPZ/BmaxGQBlTYEDF3ZTBIKqVQOcPsj/PvI/BZKgrQZbGxL7XbUvB6SwcQcf7
u7+jV1fBnugrQVeEAr8wemXBvshAQCottkDToonBOBJdQBR+zEA96JTBs1tOQHcqhkBuyKbB

>  <OMEGA_E>  (4) 
0LBPPg==

>  <OMEGA_NBR>  (4) 
      1783

$$$$
50141643
     RDKit          3D

 85 87  0  0  1  0  0  0  0  0999 V2000
    7.9572    8.2053  -18.0921 C   0  0  0  0  0  0  0  0  0  0  0  0
    6.9139    7.6739  -17.3141 C   0  0  0  0  0  0  0  0  0  0  0  0
    7.6888    8.7210  -19.3748 C   0  0  0  0  0  0  0  0  0  0  0  0
    7.9616    1.3163  -15.8059 C   0  0  0  0  0  0  0  0  0  0  0  0
    7.7197   -0.9509  -14.9368 C   0  0  0  0  0  0  0  0  0  0  0  0
    6.3605   -0.2147  -16.8222 C   0  0  0  0  0  0  0  0  0  0  0  0
    5.3244    8.1875  -19.0997 C   0  0  0  0  0  0  0  0  0  0  0  0
    6.5244    1.0527  -21.3609 C   0  0  0  0  0  0  0  0  0  0  0  0
    4.7161   -0.5320  -20.9371 C   0  0  0  0  0  0  0  0  0  0  0  0
    6.8940   -1.3322  -21.6952 C   0  0  0  0  0  0  0  0  0  0  0  0
    8.3305    0.3219  -14.8739 C   0  0  0  0  0  0  0  0  0  0  0  0
    6.9768    1.0546  -16.7801 C   0  0  0  0  0  0  0  0  0  0  0  0
    6.7387   -1.2232  -15.9115 C   0  0  0  0  0  0  0  0  0  0  0  0
    5.5990    7.6637  -17.8160 C   0  0  0  0  0  0  0  0  0  0  0  0
    5.1979    0.7927  -20.9487 C   0  0  0  0  0  0  0  0  0  0  0  0
    6.3772    8.7151  -19.8955 C   0  0  0  0  0  0  0  0  0  0  0  0
    7.3751   -0.0088  -21.7140 C   0  0  0  0  0  0  0  0  0  0  0  0
    5.5575   -1.5895  -21.3299 C   0  0  0  0  0  0  0  0  0  0  0  0
    9.3424    0.6162  -13.8353 C   0  0  0  0  0  0  0  0  0  0  0  0
    6.5878    2.0992  -17.7450 C   0  0  0  0  0  0  0  0  0  0  0  0
    6.0576   -2.5344  -15.9370 C   0  0  0  0  0  0  0  0  0  0  0  0
    3.0076   -2.8591  -18.5452 C   0  0  0  0  0  0  0  0  0  0  0  0
    8.5095   -4.4724  -17.1054 C   0  0  0  0  0  0  0  0  0  0  0  0
    4.8614    9.2038  -21.7262 C   0  0  0  0  0  0  0  0  0  0  0  0
    4.2789    1.9349  -20.5622 C   0  0  0  0  0  0  0  0  0  0  0  0
    4.4903    7.0671  -16.9794 C   0  0  0  0  0  0  0  0  0  0  0  0
    3.7953   -4.1773  -18.4410 C   0  0  0  0  0  0  0  0  0  0  0  0
    7.6281   -4.3328  -18.3583 C   0  0  0  0  0  0  0  0  0  0  0  0
    4.6786   -4.2175  -17.1729 C   0  0  0  0  0  0  0  0  0  0  0  0
    6.7065   -3.0988  -18.2811 C   0  0  0  0  0  0  0  0  0  0  0  0
    4.6788    4.8550  -18.0412 C   0  0  0  0  0  0  0  0  0  0  0  0
    4.9441    2.8470  -19.5092 C   0  0  1  0  0  0  0  0  0  0  0  0
    3.9795    3.9489  -19.0543 C   0  0  2  0  0  0  0  0  0  0  0  0
    9.9810   -0.4126  -13.1661 N   0  0  0  0  0  0  0  0  0  0  0  0
    5.3516    2.0088  -18.3723 N   0  0  0  0  0  0  0  0  0  0  0  0
    5.7396   -3.1696  -17.1501 N   0  0  0  0  0  0  0  0  0  0  0  0
    3.8063    5.9997  -17.7274 N   0  0  0  0  0  0  0  0  0  0  0  0
    9.6313    1.7737  -13.5540 O   0  0  0  0  0  0  0  0  0  0  0  0
    7.3499    3.0294  -17.9900 O   0  0  0  0  0  0  0  0  0  0  0  0
    5.7048   -3.0257  -14.8697 O   0  0  0  0  0  0  0  0  0  0  0  0
    3.5981    4.7369  -20.1834 O   0  0  0  0  0  0  0  0  0  0  0  0
    6.1996    9.2289  -21.1758 O   0  0  0  0  0  0  0  0  0  0  0  0
    8.6480    0.2475  -22.0904 F   0  0  0  0  0  0  0  0  0  0  0  0
    5.0779   -2.8525  -21.3711 F   0  0  0  0  0  0  0  0  0  0  0  0
    8.9656    8.2181  -17.7057 H   0  0  0  0  0  0  0  0  0  0  0  0
    7.1211    7.2740  -16.3325 H   0  0  0  0  0  0  0  0  0  0  0  0
    8.4963    9.1257  -19.9669 H   0  0  0  0  0  0  0  0  0  0  0  0
    8.4377    2.2851  -15.7721 H   0  0  0  0  0  0  0  0  0  0  0  0
    8.0063   -1.7193  -14.2341 H   0  0  0  0  0  0  0  0  0  0  0  0
    5.5943   -0.4149  -17.5565 H   0  0  0  0  0  0  0  0  0  0  0  0
    4.3124    8.1868  -19.4767 H   0  0  0  0  0  0  0  0  0  0  0  0
    6.8852    2.0697  -21.4047 H   0  0  0  0  0  0  0  0  0  0  0  0
    3.7017   -0.7353  -20.6270 H   0  0  0  0  0  0  0  0  0  0  0  0
    7.5486   -2.1491  -21.9605 H   0  0  0  0  0  0  0  0  0  0  0  0
    2.3934   -2.8695  -19.4577 H   0  0  0  0  0  0  0  0  0  0  0  0
    2.3557   -2.7511  -17.6658 H   0  0  0  0  0  0  0  0  0  0  0  0
    3.7108   -2.0142  -18.5863 H   0  0  0  0  0  0  0  0  0  0  0  0
    9.1483   -5.3625  -17.2033 H   0  0  0  0  0  0  0  0  0  0  0  0
    9.1409   -3.5779  -16.9999 H   0  0  0  0  0  0  0  0  0  0  0  0
    7.8695   -4.5765  -16.2168 H   0  0  0  0  0  0  0  0  0  0  0  0
    4.8717    9.6386  -22.7365 H   0  0  0  0  0  0  0  0  0  0  0  0
    4.5059    8.1641  -21.7782 H   0  0  0  0  0  0  0  0  0  0  0  0
    4.1891    9.7894  -21.0819 H   0  0  0  0  0  0  0  0  0  0  0  0
    4.0472    2.5293  -21.4583 H   0  0  0  0  0  0  0  0  0  0  0  0
    3.3483    1.5226  -20.1449 H   0  0  0  0  0  0  0  0  0  0  0  0
    4.9173    6.6477  -16.0565 H   0  0  0  0  0  0  0  0  0  0  0  0
    3.7650    7.8535  -16.7235 H   0  0  0  0  0  0  0  0  0  0  0  0
    3.0840   -5.0157  -18.4066 H   0  0  0  0  0  0  0  0  0  0  0  0
    4.4391   -4.2788  -19.3272 H   0  0  0  0  0  0  0  0  0  0  0  0
    8.2778   -4.2362  -19.2407 H   0  0  0  0  0  0  0  0  0  0  0  0
    7.0065   -5.2348  -18.4576 H   0  0  0  0  0  0  0  0  0  0  0  0
    4.0320   -4.0767  -16.2942 H   0  0  0  0  0  0  0  0  0  0  0  0
    5.1628   -5.2036  -17.1176 H   0  0  0  0  0  0  0  0  0  0  0  0
    7.3303   -2.2017  -18.1544 H   0  0  0  0  0  0  0  0  0  0  0  0
    6.1416   -3.0227  -19.2220 H   0  0  0  0  0  0  0  0  0  0  0  0
    4.8851    4.2874  -17.1218 H   0  0  0  0  0  0  0  0  0  0  0  0
    5.6251    5.2202  -18.4668 H   0  0  0  0  0  0  0  0  0  0  0  0
    5.8313    3.3161  -19.9596 H   0  0  0  0  0  0  0  0  0  0  0  0
    3.0979    3.4888  -18.5842 H   0  0  0  0  0  0  0  0  0  0  0  0
   10.6651   -0.2055  -12.4667 H   0  0  0  0  0  0  0  0  0  0  0  0
    9.7586   -1.3634  -13.3818 H   0  0  0  0  0  0  0  0  0  0  0  0
    4.6993    1.3327  -18.0296 H   0  0  0  0  0  0  0  0  0  0  0  0
    3.0371    5.6712  -17.1794 H   0  0  0  0  0  0  0  0  0  0  0  0
    3.4646    6.3826  -18.5857 H   0  0  0  0  0  0  0  0  0  0  0  0
    3.1616    4.1855  -20.8221 H   0  0  0  0  0  0  0  0  0  0  0  0
  1  2  2  0
  1  3  1  0
  2 14  1  0
  3 16  2  0
  4 11  2  0
  4 12  1  0
  5 11  1  0
  5 13  2  0
  6 12  2  0
  6 13  1  0
  7 14  2  0
  7 16  1  0
  8 15  2  0
  8 17  1  0
  9 15  1  0
  9 18  2  0
 10 17  2  0
 10 18  1  0
 11 19  1  0
 12 20  1  0
 13 21  1  0
 14 26  1  0
 15 25  1  0
 16 42  1  0
 17 43  1  0
 18 44  1  0
 19 34  1  0
 19 38  2  0
 20 35  1  0
 20 39  2  0
 21 36  1  0
 21 40  2  0
 22 27  1  0
 23 28  1  0
 24 42  1  0
 25 32  1  0
 26 37  1  0
 27 29  1  0
 28 30  1  0
 29 36  1  0
 30 36  1  0
 31 33  1  0
 31 37  1  0
 32 33  1  0
 32 35  1  0
 33 41  1  0
  1 45  1  0
  2 46  1  0
  3 47  1  0
  4 48  1  0
  5 49  1  0
  6 50  1  0
  7 51  1  0
  8 52  1  0
  9 53  1  0
 10 54  1  0
 22 55  1  0
 22 56  1  0
 22 57  1  0
 23 58  1  0
 23 59  1  0
 23 60  1  0
 24 61  1  0
 24 62  1  0
 24 63  1  0
 25 64  1  0
 25 65  1  0
 26 66  1  0
 26 67  1  0
 27 68  1  0
 27 69  1  0
 28 70  1  0
 28 71  1  0
 29 72  1  0
 29 73  1  0
 30 74  1  0
 30 75  1  0
 31 76  1  0
 31 77  1  0
 32 78  1  6
 33 79  1  1
 34 80  1  0
 34 81  1  0
 35 82  1  0
 37 83  1  0
 37 84  1  0
 41 85  1  0
M  CHG  1  37   1
M  END
>  <OMEGA_C>  (5) 
I6H+QABJA0GovJDBgz7dQKeQ9UBNg4rBrAr2QBCJC0GE/5rBvcX+QCV8qD/V5HzBGgj3QDBuc79B
/W7BEYnLQCXQW77Xk4bBdGGqQOP/AkErzJjBlcfQQJe+hj8o46rB5emWQMQyCL8qf6fBRZvcQJmE
qr+6j63BskkFQTzOpD6S+23BzkHfQDv+hj+oPYbBhKPXQKiQnL+MlX7B1yqzQAU99UA6h47BbFWm
QM3sSj/blqfBXxLMQARxC0HlKZ/BHgHsQFC7D7xbtq3BH9exQFJ0y7+Oo6rBXHoVQRrBHT9OXV3B
E8/SQItZBkCt9Y3Bh9fBQDU0IsDc/X7BzXxAQF77NsCdXJTBziYIQToej8Dq14jBk5CbQNVCE0E0
z63BmeyIQIyp9z90f6TB3bCPQLMl4kDf1YfBqOVyQGGshcBEh5PBnRn0QPOlisDO3ZLBNreVQI31
hsAYYonBbZvWQIVSRsC5P5LBrLiVQP1bm0BuVJDBaDaeQHk0NkDOEpzBfa9+QJK7fEAyb5jBRbIf
QbhD0746qFLBIkCrQNaQAEBh+pLB9qq3QCXaSsBxM4nBlZpzQC39v0DF0Y3B8RkaQYkI4z813VjB
RDLrQF/hQUB364/B0422QL6lQcBs6m3BEUdmQOOUl0CWd6HB5WLGQL6pE0EaaKnBPF4KQUN9fT4S
ubDBNn6iQCSPNsDu96rBHHMPQYp9A0FUpY3BqN/jQHfE6ED8qILBpvAHQb0CEkE8vJ/B/AAHQQc/
EkC5WnzByRkAQb4S3L/rvmPBdwSzQEtr1L7Kc4zBzf6JQBr9AkFg0JvBzlPcQIx1BEDmPKvBmOhs
QGE8PL8SBKXBVI7xQHOLCcAHr6/BWy0ZQLClN8BgqZvBdsQWQJ0SMMCJU43B331tQL7oAMDNsJTB
jV8SQf6Zq8BMoInBA0ESQWn8ZMC1/4fB8NL7QH5yksAQvIHBu+SbQNs3GkFr5LXBfTCQQE+gAkGx
Oa7B1wyGQHKhHEHNp6jBSIKBQMTfIUCiqqvB/EpWQK/lwj/VKKHBP1qdQMq51ECxc4DBzPVwQNBP
+0DUyYXBL2BFQIaAoMDNQJPBzAyOQJfriMARnprB93EEQQ6Ph8Dl7JnB1zTgQFiDp8BAqZPBKgaB
QO5zgsCUWoLBYjWlQEiEpsDR8IjB55HqQI3oDMBBPJHBV4jEQHR0QcCRxpnB0FKcQKkyiUB3+YjB
zQC0QLcLp0APvJPBI5q6QEo6VEA7rZ/BUkNGQARIX0BjrJTBFqQqQTFnUr5td0fBKCMcQQ+Err/c
G1bB9WCWQBKVqj+5PJDBEV9CQJJ6tUBZb4nBy7xdQKs+zEB0r5TBa1dKQJDvhUCRk6bB

>  <OMEGA_E>  (5) 
oLpsPQ==

>  <OMEGA_NBR>  (5) 
      6890

$$$$
50141634
     RDKit          3D

 87 89  0  0  1  0  0  0  0  0999 V2000
    7.7016    8.3635  -18.5797 C   0  0  0  0  0  0  0  0  0  0  0  0
    7.1196    8.8200  -19.7840 C   0  0  0  0  0  0  0  0  0  0  0  0
    6.9011    7.7509  -17.5937 C   0  0  0  0  0  0  0  0  0  0  0  0
    7.9771    1.3374  -15.8595 C   0  0  0  0  0  0  0  0  0  0  0  0
    7.7130   -0.9168  -14.9720 C   0  0  0  0  0  0  0  0  0  0  0  0
    6.4139   -0.2155  -16.9111 C   0  0  0  0  0  0  0  0  0  0  0  0
    4.9362    8.0855  -19.0001 C   0  0  0  0  0  0  0  0  0  0  0  0
    6.6335    1.0880  -21.4276 C   0  0  0  0  0  0  0  0  0  0  0  0
    4.8493   -0.5032  -20.9292 C   0  0  0  0  0  0  0  0  0  0  0  0
    7.0568   -1.3053  -21.5964 C   0  0  0  0  0  0  0  0  0  0  0  0
    8.3237    0.3560  -14.9077 C   0  0  0  0  0  0  0  0  0  0  0  0
    7.0226    1.0588  -16.8591 C   0  0  0  0  0  0  0  0  0  0  0  0
    6.7596   -1.2071  -15.9717 C   0  0  0  0  0  0  0  0  0  0  0  0
    5.7249    8.6663  -20.0024 C   0  0  0  0  0  0  0  0  0  0  0  0
    5.5160    7.6093  -17.8123 C   0  0  0  0  0  0  0  0  0  0  0  0
    5.3032    0.8282  -21.0273 C   0  0  0  0  0  0  0  0  0  0  0  0
    7.5110    0.0236  -21.6975 C   0  0  0  0  0  0  0  0  0  0  0  0
    5.7228   -1.5668  -21.2259 C   0  0  0  0  0  0  0  0  0  0  0  0
    9.2987    0.6683  -13.8377 C   0  0  0  0  0  0  0  0  0  0  0  0
    6.6516    2.0969  -17.8338 C   0  0  0  0  0  0  0  0  0  0  0  0
    6.0449   -2.5027  -15.9542 C   0  0  0  0  0  0  0  0  0  0  0  0
    5.9221    9.4954  -22.4279 C   0  0  0  0  0  0  0  0  0  0  0  0
    3.0504   -2.7238  -18.4706 C   0  0  0  0  0  0  0  0  0  0  0  0
    8.3750   -4.7822  -17.1186 C   0  0  0  0  0  0  0  0  0  0  0  0
    5.0008    9.1521  -21.2533 C   0  0  0  0  0  0  0  0  0  0  0  0
    4.3743    1.9768  -20.6788 C   0  0  0  0  0  0  0  0  0  0  0  0
    4.6402    6.8925  -16.8167 C   0  0  0  0  0  0  0  0  0  0  0  0
    3.7330   -4.0999  -18.3826 C   0  0  0  0  0  0  0  0  0  0  0  0
    8.1961   -3.4760  -17.9114 C   0  0  0  0  0  0  0  0  0  0  0  0
    4.6595   -4.2254  -17.1451 C   0  0  0  0  0  0  0  0  0  0  0  0
    6.7168   -3.1993  -18.2814 C   0  0  0  0  0  0  0  0  0  0  0  0
    4.7790    4.7825  -18.0488 C   0  0  0  0  0  0  0  0  0  0  0  0
    5.0194    2.8674  -19.5980 C   0  0  1  0  0  0  0  0  0  0  0  0
    4.0567    3.9530  -19.1070 C   0  0  2  0  0  0  0  0  0  0  0  0
    9.9055   -0.3484  -13.1218 N   0  0  0  0  0  0  0  0  0  0  0  0
    5.4233    2.0068  -18.4754 N   0  0  0  0  0  0  0  0  0  0  0  0
    5.7763   -3.2370  -17.1267 N   0  0  0  0  0  0  0  0  0  0  0  0
    3.8977    5.8325  -17.5256 N   0  0  0  0  0  0  0  0  0  0  0  0
    9.5755    1.8303  -13.5625 O   0  0  0  0  0  0  0  0  0  0  0  0
    7.4172    3.0278  -18.0662 O   0  0  0  0  0  0  0  0  0  0  0  0
    5.6553   -2.9226  -14.8695 O   0  0  0  0  0  0  0  0  0  0  0  0
    3.6893    4.8048  -20.1928 O   0  0  0  0  0  0  0  0  0  0  0  0
    8.7877    0.2801  -22.0604 F   0  0  0  0  0  0  0  0  0  0  0  0
    5.2835   -2.8414  -21.1513 F   0  0  0  0  0  0  0  0  0  0  0  0
    8.7620    8.4840  -18.4142 H   0  0  0  0  0  0  0  0  0  0  0  0
    7.7359    9.2861  -20.5385 H   0  0  0  0  0  0  0  0  0  0  0  0
    7.3463    7.3927  -16.6773 H   0  0  0  0  0  0  0  0  0  0  0  0
    8.4462    2.3095  -15.8223 H   0  0  0  0  0  0  0  0  0  0  0  0
    7.9783   -1.6745  -14.2495 H   0  0  0  0  0  0  0  0  0  0  0  0
    5.6805   -0.4303  -17.6743 H   0  0  0  0  0  0  0  0  0  0  0  0
    3.8688    8.0029  -19.1427 H   0  0  0  0  0  0  0  0  0  0  0  0
    6.9768    2.1072  -21.5264 H   0  0  0  0  0  0  0  0  0  0  0  0
    3.8327   -0.7068  -20.6269 H   0  0  0  0  0  0  0  0  0  0  0  0
    7.7306   -2.1238  -21.8026 H   0  0  0  0  0  0  0  0  0  0  0  0
    5.3175    9.8348  -23.2818 H   0  0  0  0  0  0  0  0  0  0  0  0
    6.6152   10.2954  -22.1285 H   0  0  0  0  0  0  0  0  0  0  0  0
    6.4958    8.6024  -22.7169 H   0  0  0  0  0  0  0  0  0  0  0  0
    2.4077   -2.6891  -19.3627 H   0  0  0  0  0  0  0  0  0  0  0  0
    2.4384   -2.5601  -17.5714 H   0  0  0  0  0  0  0  0  0  0  0  0
    3.8171   -1.9382  -18.5404 H   0  0  0  0  0  0  0  0  0  0  0  0
    9.4400   -4.9266  -16.8844 H   0  0  0  0  0  0  0  0  0  0  0  0
    7.7984   -4.7254  -16.1835 H   0  0  0  0  0  0  0  0  0  0  0  0
    8.0141   -5.6289  -17.7210 H   0  0  0  0  0  0  0  0  0  0  0  0
    4.3093    8.3611  -21.5790 H   0  0  0  0  0  0  0  0  0  0  0  0
    4.4286   10.0541  -20.9906 H   0  0  0  0  0  0  0  0  0  0  0  0
    4.1841    2.5779  -21.5802 H   0  0  0  0  0  0  0  0  0  0  0  0
    3.4236    1.5742  -20.2992 H   0  0  0  0  0  0  0  0  0  0  0  0
    5.2636    6.4454  -16.0283 H   0  0  0  0  0  0  0  0  0  0  0  0
    3.9324    7.6034  -16.3655 H   0  0  0  0  0  0  0  0  0  0  0  0
    2.9558   -4.8760  -18.3216 H   0  0  0  0  0  0  0  0  0  0  0  0
    4.3345   -4.2540  -19.2906 H   0  0  0  0  0  0  0  0  0  0  0  0
    8.5685   -2.6400  -17.3011 H   0  0  0  0  0  0  0  0  0  0  0  0
    8.7841   -3.5436  -18.8385 H   0  0  0  0  0  0  0  0  0  0  0  0
    4.0514   -4.0785  -16.2402 H   0  0  0  0  0  0  0  0  0  0  0  0
    5.0914   -5.2370  -17.1363 H   0  0  0  0  0  0  0  0  0  0  0  0
    6.6579   -2.2015  -18.7407 H   0  0  0  0  0  0  0  0  0  0  0  0
    6.3969   -3.9581  -19.0107 H   0  0  0  0  0  0  0  0  0  0  0  0
    5.0878    4.1250  -17.2228 H   0  0  0  0  0  0  0  0  0  0  0  0
    5.6682    5.2479  -18.4990 H   0  0  0  0  0  0  0  0  0  0  0  0
    5.9084    3.3521  -20.0278 H   0  0  0  0  0  0  0  0  0  0  0  0
    3.1691    3.4806  -18.6608 H   0  0  0  0  0  0  0  0  0  0  0  0
   10.5565   -0.1287  -12.3952 H   0  0  0  0  0  0  0  0  0  0  0  0
    9.6930   -1.3029  -13.3310 H   0  0  0  0  0  0  0  0  0  0  0  0
    4.7750    1.3160  -18.1553 H   0  0  0  0  0  0  0  0  0  0  0  0
    3.2464    5.4174  -16.8903 H   0  0  0  0  0  0  0  0  0  0  0  0
    3.4014    6.2447  -18.2897 H   0  0  0  0  0  0  0  0  0  0  0  0
    3.2388    4.2960  -20.8566 H   0  0  0  0  0  0  0  0  0  0  0  0
  1  2  2  0
  1  3  1  0
  2 14  1  0
  3 15  2  0
  4 11  2  0
  4 12  1  0
  5 11  1  0
  5 13  2  0
  6 12  2  0
  6 13  1  0
  7 14  2  0
  7 15  1  0
  8 16  2  0
  8 17  1  0
  9 16  1  0
  9 18  2  0
 10 17  2  0
 10 18  1  0
 11 19  1  0
 12 20  1  0
 13 21  1  0
 14 25  1  0
 15 27  1  0
 16 26  1  0
 17 43  1  0
 18 44  1  0
 19 35  1  0
 19 39  2  0
 20 36  1  0
 20 40  2  0
 21 37  1  0
 21 41  2  0
 22 25  1  0
 23 28  1  0
 24 29  1  0
 26 33  1  0
 27 38  1  0
 28 30  1  0
 29 31  1  0
 30 37  1  0
 31 37  1  0
 32 34  1  0
 32 38  1  0
 33 34  1  0
 33 36  1  0
 34 42  1  0
  1 45  1  0
  2 46  1  0
  3 47  1  0
  4 48  1  0
  5 49  1  0
  6 50  1  0
  7 51  1  0
  8 52  1  0
  9 53  1  0
 10 54  1  0
 22 55  1  0
 22 56  1  0
 22 57  1  0
 23 58  1  0
 23 59  1  0
 23 60  1  0
 24 61  1  0
 24 62  1  0
 24 63  1  0
 25 64  1  0
 25 65  1  0
 26 66  1  0
 26 67  1  0
 27 68  1  0
 27 69  1  0
 28 70  1  0
 28 71  1  0
 29 72  1  0
 29 73  1  0
 30 74  1  0
 30 75  1  0
 31 76  1  0
 31 77  1  0
 32 78  1  0
 32 79  1  0
 33 80  1  6
 34 81  1  1
 35 82  1  0
 35 83  1  0
 36 84  1  0
 38 85  1  0
 38 86  1  0
 42 87  1  0
M  CHG  1  38   1
M  END
>  <OMEGA_C>  (6) 
onP2QLzQBUE8o5TBGdTjQOgeDUGnRZ7B9NXcQKcH+EDsv4zBMUT/QN0wqz92wH3BEdH2QOS1ar81
jW/Baz7NQJq3XL71SYfBafWdQDleAUFKAJjBd0XUQP1Ciz++a6vBii2bQNLRAL8Zb6fBDNHhQIgU
p79UxazBsC0FQRo/tj4Xhm7BUbngQNGHhz9u34bBkk7YQKaCmr/8i3/BgDK3QPeoCkH2BKDBWYOw
QIB/80CUf47BE7SpQMAEVD/eN6jBxVnwQPAgwTyVlK3B/iC3QByNyL+szqnBg8cUQa4UKz8zZ13B
SNrUQPAzBkCyq47B0G/BQAstIMA0RH/B+IG9QB3tF0FUbLPBRjlDQEVTLsDXw5PB4P8FQe8HmcDq
8ojB2wagQPpuEkHXBqrBJfqLQEQJ/T8ibqXB6HyUQDqP3ECFiIbBOuluQLwyg8CmD5PBCiMDQYB2
XsB2So/BPRqVQJA2h8ARKYnBRfDWQBnBTMBXQJLBb+2YQPkJmUDcY5DBAZ+gQJGDN0CfyJzBjdCB
QBz+fEAg25jB33weQSVesr7r8lHBgYutQI1vAECmzZPBD9e4QDYqT8CSA4nBlHN5QHKjukB4NIzB
azUZQTZH6j8kAFnBbVntQLLGQUCih5DBlvi0QIwLO8CE6W3BrB1sQNPAmUDqiqHBPZoMQcBujz6r
e7DBLRKpQOHYNcDUNanBTDEMQYa+B0FiUJPB5Yz3QAaUFEHwTqTBLBXrQGCR7EAIa4XBxyMHQbPO
E0AdKH3B203/QOlW1r/8/WPBcca1QLJQ3L7nZI3BH5t3QPYLAEEtJJnB9EHfQBPcBkAUNqzBvUp1
QBf0NL/qA6XB42D3QLPrB8Cra67BkiiqQG9bHUEkQbrBYa/TQAC6JEEZB7HBj93PQJWjCUE5vLXB
xxcaQFsaLMDH5prBXw4cQIHYI8AtkozB7Up0QFIV+L/JUpTBNwoXQQmnncA0E4fB44z5QDw2l8Da
d4HBmTkAQREgtMCSxI3BneWJQADHBUHIoazBb7eNQGrdIEGn7KfBMOSFQFD8JEBApKzBDhxbQFd/
yT/XZKLBEG+oQGVAzkDjOYDBaax7QNFO80By7ILBjis9QAMInMCdkpLBDrSKQBchiMA6U5rBkhgJ
QUr2KMCOaIrBuosMQfTJYsBHtZbB4aSBQDiDgsAI7IHB8OyiQI2Vp8AcF4nBzg3VQIHlDMAE7ZXB
S7PMQKlRfcDeFZjBnM+iQJz/g0A1yInBfWG1QO7up0AB/pPBhxG9QGuJVkDnOKDB/NJKQN3CXkBc
SZXBWecoQVu+A77RUkbBuxYbQXPFpr+qS1XBZ8yYQI9yqD8iPpHBesVPQDdbrUBmH4fBJbFZQJTU
x0BGUZLBDUhPQIh4iUBZ2qbB

>  <OMEGA_E>  (6) 
kOprPg==

>  <OMEGA_NBR>  (6) 
      8619

$$$$
50141639
     RDKit          3D

 76 78  0  0  1  0  0  0  0  0999 V2000
    6.9103   -1.3495  -21.5170 C   0  0  0  0  0  0  0  0  0  0  0  0
    7.3671   -0.0263  -21.6697 C   0  0  0  0  0  0  0  0  0  0  0  0
    5.5948   -1.5952  -21.0772 C   0  0  0  0  0  0  0  0  0  0  0  0
    7.9645    8.2516  -18.1135 C   0  0  0  0  0  0  0  0  0  0  0  0
    6.5090    1.0507  -21.3813 C   0  0  0  0  0  0  0  0  0  0  0  0
    4.7372   -0.5197  -20.7759 C   0  0  0  0  0  0  0  0  0  0  0  0
    6.9231    7.7240  -17.3307 C   0  0  0  0  0  0  0  0  0  0  0  0
    7.6935    8.7604  -19.3980 C   0  0  0  0  0  0  0  0  0  0  0  0
    7.7000   -0.9276  -14.9497 C   0  0  0  0  0  0  0  0  0  0  0  0
    7.9088    1.3477  -15.7976 C   0  0  0  0  0  0  0  0  0  0  0  0
    6.3859   -0.2219  -16.8803 C   0  0  0  0  0  0  0  0  0  0  0  0
    5.3294    8.2264  -19.1158 C   0  0  0  0  0  0  0  0  0  0  0  0
    8.2865    0.3547  -14.8692 C   0  0  0  0  0  0  0  0  0  0  0  0
    6.7529   -1.2208  -15.9530 C   0  0  0  0  0  0  0  0  0  0  0  0
    6.9567    1.0682  -16.7990 C   0  0  0  0  0  0  0  0  0  0  0  0
    5.1929    0.8076  -20.9245 C   0  0  0  0  0  0  0  0  0  0  0  0
    5.6077    7.7071  -17.8307 C   0  0  0  0  0  0  0  0  0  0  0  0
    6.3806    8.7537  -19.9148 C   0  0  0  0  0  0  0  0  0  0  0  0
    9.2814    0.6592  -13.8155 C   0  0  0  0  0  0  0  0  0  0  0  0
    6.1012   -2.5423  -15.9893 C   0  0  0  0  0  0  0  0  0  0  0  0
    6.5670    2.1175  -17.7569 C   0  0  0  0  0  0  0  0  0  0  0  0
    2.9305   -2.9074  -18.4736 C   0  0  0  0  0  0  0  0  0  0  0  0
    4.8588    9.2633  -21.7334 C   0  0  0  0  0  0  0  0  0  0  0  0
    4.2777    1.9688  -20.5812 C   0  0  0  0  0  0  0  0  0  0  0  0
    4.5039    7.1079  -16.9888 C   0  0  0  0  0  0  0  0  0  0  0  0
    3.8900   -4.1108  -18.5520 C   0  0  0  0  0  0  0  0  0  0  0  0
    4.7718   -4.2246  -17.2973 C   0  0  0  0  0  0  0  0  0  0  0  0
    4.7003    4.9051  -18.0740 C   0  0  0  0  0  0  0  0  0  0  0  0
    4.9380    2.8795  -19.5237 C   0  0  1  0  0  0  0  0  0  0  0  0
    3.9856    3.9953  -19.0739 C   0  0  2  0  0  0  0  0  0  0  0  0
    9.8885   -0.3621  -13.1062 N   0  0  0  0  0  0  0  0  0  0  0  0
    5.6683   -3.0660  -17.2013 N   0  0  0  0  0  0  0  0  0  0  0  0
    5.3283    2.0412  -18.3794 N   0  0  0  0  0  0  0  0  0  0  0  0
    3.8189    6.0347  -17.7293 N   0  0  0  0  0  0  0  0  0  0  0  0
    9.5868    1.8180  -13.5584 O   0  0  0  0  0  0  0  0  0  0  0  0
    5.8545   -3.1220  -14.9369 O   0  0  0  0  0  0  0  0  0  0  0  0
    7.3351    3.0429  -18.0010 O   0  0  0  0  0  0  0  0  0  0  0  0
    3.6011    4.7789  -20.2042 O   0  0  0  0  0  0  0  0  0  0  0  0
    6.2014    9.2657  -21.1953 O   0  0  0  0  0  0  0  0  0  0  0  0
    7.5690   -2.1766  -21.7371 H   0  0  0  0  0  0  0  0  0  0  0  0
    8.3754    0.1617  -22.0080 H   0  0  0  0  0  0  0  0  0  0  0  0
    5.2431   -2.6108  -20.9708 H   0  0  0  0  0  0  0  0  0  0  0  0
    8.9738    8.2666  -17.7293 H   0  0  0  0  0  0  0  0  0  0  0  0
    6.8562    2.0654  -21.5091 H   0  0  0  0  0  0  0  0  0  0  0  0
    3.7315   -0.7104  -20.4314 H   0  0  0  0  0  0  0  0  0  0  0  0
    7.1322    7.3320  -16.3463 H   0  0  0  0  0  0  0  0  0  0  0  0
    8.4999    9.1604  -19.9947 H   0  0  0  0  0  0  0  0  0  0  0  0
    7.9790   -1.6899  -14.2374 H   0  0  0  0  0  0  0  0  0  0  0  0
    8.3529    2.3306  -15.7406 H   0  0  0  0  0  0  0  0  0  0  0  0
    5.6666   -0.4444  -17.6546 H   0  0  0  0  0  0  0  0  0  0  0  0
    4.3168    8.2225  -19.4913 H   0  0  0  0  0  0  0  0  0  0  0  0
    2.3207   -2.8638  -19.3881 H   0  0  0  0  0  0  0  0  0  0  0  0
    2.2724   -3.0197  -17.5993 H   0  0  0  0  0  0  0  0  0  0  0  0
    3.5133   -1.9796  -18.3770 H   0  0  0  0  0  0  0  0  0  0  0  0
    4.8680    9.6938  -22.7456 H   0  0  0  0  0  0  0  0  0  0  0  0
    4.4836    8.2302  -21.7780 H   0  0  0  0  0  0  0  0  0  0  0  0
    4.2032    9.8638  -21.0856 H   0  0  0  0  0  0  0  0  0  0  0  0
    4.0786    2.5546  -21.4907 H   0  0  0  0  0  0  0  0  0  0  0  0
    3.3301    1.5778  -20.1821 H   0  0  0  0  0  0  0  0  0  0  0  0
    4.9362    6.6930  -16.0663 H   0  0  0  0  0  0  0  0  0  0  0  0
    3.7768    7.8925  -16.7324 H   0  0  0  0  0  0  0  0  0  0  0  0
    3.2975   -5.0318  -18.6549 H   0  0  0  0  0  0  0  0  0  0  0  0
    4.5384   -3.9916  -19.4326 H   0  0  0  0  0  0  0  0  0  0  0  0
    4.1303   -4.2627  -16.4045 H   0  0  0  0  0  0  0  0  0  0  0  0
    5.3719   -5.1445  -17.3571 H   0  0  0  0  0  0  0  0  0  0  0  0
    4.9403    4.3350  -17.1644 H   0  0  0  0  0  0  0  0  0  0  0  0
    5.6290    5.2870  -18.5230 H   0  0  0  0  0  0  0  0  0  0  0  0
    5.8344    3.3381  -19.9665 H   0  0  0  0  0  0  0  0  0  0  0  0
    3.1038    3.5472  -18.5924 H   0  0  0  0  0  0  0  0  0  0  0  0
   10.5624   -0.1478  -12.3991 H   0  0  0  0  0  0  0  0  0  0  0  0
    9.6534   -1.3144  -13.3006 H   0  0  0  0  0  0  0  0  0  0  0  0
    5.9817   -2.6339  -18.0469 H   0  0  0  0  0  0  0  0  0  0  0  0
    4.6645    1.3796  -18.0306 H   0  0  0  0  0  0  0  0  0  0  0  0
    3.0682    5.6902  -17.1656 H   0  0  0  0  0  0  0  0  0  0  0  0
    3.4508    6.4191  -18.5759 H   0  0  0  0  0  0  0  0  0  0  0  0
    3.1549    4.2270  -20.8358 H   0  0  0  0  0  0  0  0  0  0  0  0
  1  2  2  0
  1  3  1  0
  2  5  1  0
  3  6  2  0
  4  7  2  0
  4  8  1  0
  5 16  2  0
  6 16  1  0
  7 17  1  0
  8 18  2  0
  9 13  2  0
  9 14  1  0
 10 13  1  0
 10 15  2  0
 11 14  2  0
 11 15  1  0
 12 17  2  0
 12 18  1  0
 13 19  1  0
 14 20  1  0
 15 21  1  0
 16 24  1  0
 17 25  1  0
 18 39  1  0
 19 31  1  0
 19 35  2  0
 20 32  1  0
 20 36  2  0
 21 33  1  0
 21 37  2  0
 22 26  1  0
 23 39  1  0
 24 29  1  0
 25 34  1  0
 26 27  1  0
 27 32  1  0
 28 30  1  0
 28 34  1  0
 29 30  1  0
 29 33  1  0
 30 38  1  0
  1 40  1  0
  2 41  1  0
  3 42  1  0
  4 43  1  0
  5 44  1  0
  6 45  1  0
  7 46  1  0
  8 47  1  0
  9 48  1  0
 10 49  1  0
 11 50  1  0
 12 51  1  0
 22 52  1  0
 22 53  1  0
 22 54  1  0
 23 55  1  0
 23 56  1  0
 23 57  1  0
 24 58  1  0
 24 59  1  0
 25 60  1  0
 25 61  1  0
 26 62  1  0
 26 63  1  0
 27 64  1  0
 27 65  1  0
 28 66  1  0
 28 67  1  0
 29 68  1  6
 30 69  1  1
 31 70  1  0
 31 71  1  0
 32 72  1  0
 33 73  1  0
 34 74  1  0
 34 75  1  0
 38 76  1  0
M  CHG  1  34   1
M  END
>  <OMEGA_C>  (7) 
GyHdQL29rL+5IqzBcb/rQKBY17yeW63BegizQAkvzL8PnqjBcN3+QHQGBEGC6JDBxUnQQDR9hj/s
DKvBv5aXQOQIBb8INabB8YndQDMr90A0pYrBIDH2QGUqDEELL5vBT2b2QCJ5bb8iMm/BoBT9QKOC
rD8Sw3zBh1nMQFY8Y77vCofBs4qqQDmfA0Ey7ZjBa5UEQaaetT5F6G3BexfYQHNCnL9qP3/BZJ3e
QP+5iD9yZIbBkCymQEi9Tj9mZafB6nGzQPCg9kBcpY7BMy7MQC4PDEFuUZ/BroAUQdzAKD9xDF3B
4zzDQNC0IsA31H/BDiXSQD2FB0AwDo7BpIw7QKATOsDwyZPBGHubQEo2FEH63a3BEOOIQCkA/D9F
pqTBlB+QQLxz40AK6YfB8PV4QH2Lg8CCapTBe7KYQNsvh8DTYIrB7miWQFb2nECNl5DB9AOeQPtI
OEBwMJzBUBN/QG+yf0BMl5jBdzceQYVgub7yslHBcmK1QCU5RMBDnInBlIGqQICiAkAPCZPBVmh0
QCkcwUCU1Y3BiGMZQRC06D8N71jBZli7QOLOR8Bg/W7BHrnqQCm/QkAVApDBOXhmQADtmEBBoqHB
DnLGQDpAFEEPkKnBBzXyQNlNC8CY5a3BmgEGQXeRJT55ELDBmMenQOIWJ8A7xKfBgJQPQStEBEGW
1Y3BtGXbQAEvBECLEqzB1NBuQHndNb+Ec6PBpzrkQKCf6kA0xYLBrv8HQfeQEkET9Z/B8lP/QP5O
2L88zGPBVqUFQccnFUCP2XvBflS1QDCG476LPI3BPSOKQD+PA0Eg7pvB8oYUQMpIN8DcGpvB6W4R
QJBDQcBxy4zB6NlgQEVi/b8wBJPBAcebQO0ZG0Hv9rXB5nmPQL6uA0FAOa7B1ICGQAPSHUFNr6jB
KoSCQMZ+I0Dd7KvBEyFVQJr0yT8EdaHB9PSdQMws1kDNh4DBbbdxQJ6P/EDw24XBNApTQMwEocAp
PZXBmTqRQCt3f8DodZvBZiuEQOtniMBuPIPB7OarQMufpMBK24rBmhaeQBa4ikClUInB8CC0QDUv
qUAiL5TBfbO6QNuiVUBYu5/BZqVGQKUFY0AuvZTBvf8oQVVWF77GYkbBVnQaQY49qL9hz1TBEmq/
QA+SKMAYYJDB60OVQJaVsD+oPpDB71xEQMIVtkAhU4nBZdlcQP1ozUBym5TBoOpJQMtDh0Csr6bB

>  <OMEGA_E>  (7) 
0IxzPg==

>  <OMEGA_NBR>  (7) 
     10172

$$$$
28722
     RDKit          3D

 84 86  0  0  1  0  0  0  0  0999 V2000
    8.1318    8.3151  -18.4345 C   0  0  0  0  0  0  0  0  0  0  0  0
    7.1685    7.8141  -17.5407 C   0  0  0  0  0  0  0  0  0  0  0  0
    7.7593    8.6752  -19.7441 C   0  0  0  0  0  0  0  0  0  0  0  0
    6.7533   -0.0554  -16.7679 C   0  0  0  0  0  0  0  0  0  0  0  0
    8.3759    1.5559  -15.9113 C   0  0  0  0  0  0  0  0  0  0  0  0
    8.1972   -0.6478  -14.8907 C   0  0  0  0  0  0  0  0  0  0  0  0
    5.4501    8.0534  -19.2607 C   0  0  0  0  0  0  0  0  0  0  0  0
    6.6762    1.0970  -21.4631 C   0  0  0  0  0  0  0  0  0  0  0  0
    4.9112   -0.4422  -20.7648 C   0  0  0  0  0  0  0  0  0  0  0  0
    7.0593   -1.3098  -21.5284 C   0  0  0  0  0  0  0  0  0  0  0  0
    7.3511    1.2243  -16.8267 C   0  0  0  0  0  0  0  0  0  0  0  0
    7.1894   -0.9933  -15.8095 C   0  0  0  0  0  0  0  0  0  0  0  0
    5.8305    7.6744  -17.9546 C   0  0  0  0  0  0  0  0  0  0  0  0
    8.7787    0.6315  -14.9287 C   0  0  0  0  0  0  0  0  0  0  0  0
    5.3713    0.8736  -20.9705 C   0  0  0  0  0  0  0  0  0  0  0  0
    6.4198    8.5522  -20.1705 C   0  0  0  0  0  0  0  0  0  0  0  0
    7.5222    0.0059  -21.7315 C   0  0  0  0  0  0  0  0  0  0  0  0
    5.7506   -1.5319  -21.0533 C   0  0  0  0  0  0  0  0  0  0  0  0
    6.9111    2.2054  -17.8349 C   0  0  0  0  0  0  0  0  0  0  0  0
    6.5883   -2.3309  -15.7441 C   0  0  0  0  0  0  0  0  0  0  0  0
    9.8770    0.9896  -13.9547 C   0  0  0  0  0  0  0  0  0  0  0  0
    3.9490   -3.4166  -17.7020 C   0  0  0  0  0  0  0  0  0  0  0  0
    9.5418   -4.2471  -17.1813 C   0  0  0  0  0  0  0  0  0  0  0  0
    4.7299    9.0417  -21.8323 C   0  0  0  0  0  0  0  0  0  0  0  0
    4.4877    2.0420  -20.5981 C   0  0  0  0  0  0  0  0  0  0  0  0
    4.8092    7.1076  -16.9923 C   0  0  0  0  0  0  0  0  0  0  0  0
    4.8955   -4.6293  -17.7924 C   0  0  0  0  0  0  0  0  0  0  0  0
    8.5642   -4.0382  -18.3509 C   0  0  0  0  0  0  0  0  0  0  0  0
    6.0093   -4.5667  -16.7314 C   0  0  0  0  0  0  0  0  0  0  0  0
    7.5287   -2.9523  -18.0129 C   0  0  0  0  0  0  0  0  0  0  0  0
    4.9457    4.8625  -17.9886 C   0  0  0  0  0  0  0  0  0  0  0  0
    5.1772    2.9128  -19.5281 C   0  0  1  0  0  0  0  0  0  0  0  0
    4.2037    3.9559  -18.9684 C   0  0  2  0  0  0  0  0  0  0  0  0
    5.6696    2.0495  -18.4405 N   0  0  0  0  0  0  0  0  0  0  0  0
    6.7424   -3.2711  -16.7843 N   0  0  0  0  0  0  0  0  0  0  0  0
    4.0774    5.9901  -17.6125 N   0  0  0  0  0  0  0  0  0  0  0  0
    7.6324    3.1556  -18.1227 O   0  0  0  0  0  0  0  0  0  0  0  0
    5.9947   -2.6258  -14.7124 O   0  0  0  0  0  0  0  0  0  0  0  0
    3.6945    4.7517  -20.0394 O   0  0  0  0  0  0  0  0  0  0  0  0
    6.1275    8.9170  -21.4785 O   0  0  0  0  0  0  0  0  0  0  0  0
    8.7785    0.2227  -22.1822 F   0  0  0  0  0  0  0  0  0  0  0  0
    5.2993   -2.7922  -20.8680 F   0  0  0  0  0  0  0  0  0  0  0  0
    9.1582    8.4237  -18.1164 H   0  0  0  0  0  0  0  0  0  0  0  0
    7.4553    7.5367  -16.5371 H   0  0  0  0  0  0  0  0  0  0  0  0
    8.5062    9.0493  -20.4287 H   0  0  0  0  0  0  0  0  0  0  0  0
    5.9630   -0.3146  -17.4568 H   0  0  0  0  0  0  0  0  0  0  0  0
    8.8525    2.5235  -15.9660 H   0  0  0  0  0  0  0  0  0  0  0  0
    8.5249   -1.3670  -14.1546 H   0  0  0  0  0  0  0  0  0  0  0  0
    4.4188    7.9637  -19.5685 H   0  0  0  0  0  0  0  0  0  0  0  0
    7.0241    2.1051  -21.6336 H   0  0  0  0  0  0  0  0  0  0  0  0
    3.9144   -0.6132  -20.3857 H   0  0  0  0  0  0  0  0  0  0  0  0
    7.7074   -2.1483  -21.7367 H   0  0  0  0  0  0  0  0  0  0  0  0
    9.4361    1.4415  -13.0540 H   0  0  0  0  0  0  0  0  0  0  0  0
   10.4301    0.0807  -13.6756 H   0  0  0  0  0  0  0  0  0  0  0  0
   10.5649    1.7073  -14.4256 H   0  0  0  0  0  0  0  0  0  0  0  0
    3.1705   -3.5000  -18.4747 H   0  0  0  0  0  0  0  0  0  0  0  0
    3.4779   -3.3926  -16.7082 H   0  0  0  0  0  0  0  0  0  0  0  0
    4.5228   -2.4912  -17.8582 H   0  0  0  0  0  0  0  0  0  0  0  0
   10.2709   -5.0268  -17.4468 H   0  0  0  0  0  0  0  0  0  0  0  0
   10.0713   -3.3056  -16.9735 H   0  0  0  0  0  0  0  0  0  0  0  0
    8.9821   -4.5581  -16.2868 H   0  0  0  0  0  0  0  0  0  0  0  0
    4.6434    9.3336  -22.8893 H   0  0  0  0  0  0  0  0  0  0  0  0
    4.2247    8.0772  -21.6758 H   0  0  0  0  0  0  0  0  0  0  0  0
    4.2589    9.8091  -21.2004 H   0  0  0  0  0  0  0  0  0  0  0  0
    4.2950    2.6514  -21.4934 H   0  0  0  0  0  0  0  0  0  0  0  0
    3.5346    1.6640  -20.1998 H   0  0  0  0  0  0  0  0  0  0  0  0
    5.3243    6.7461  -16.0901 H   0  0  0  0  0  0  0  0  0  0  0  0
    4.0957    7.8977  -16.7155 H   0  0  0  0  0  0  0  0  0  0  0  0
    4.3112   -5.5489  -17.6412 H   0  0  0  0  0  0  0  0  0  0  0  0
    5.3561   -4.6475  -18.7912 H   0  0  0  0  0  0  0  0  0  0  0  0
    9.1300   -3.7312  -19.2429 H   0  0  0  0  0  0  0  0  0  0  0  0
    8.0408   -4.9837  -18.5562 H   0  0  0  0  0  0  0  0  0  0  0  0
    5.5596   -4.6823  -15.7341 H   0  0  0  0  0  0  0  0  0  0  0  0
    6.7199   -5.3870  -16.9105 H   0  0  0  0  0  0  0  0  0  0  0  0
    8.0557   -1.9996  -17.8565 H   0  0  0  0  0  0  0  0  0  0  0  0
    6.8339   -2.8523  -18.8598 H   0  0  0  0  0  0  0  0  0  0  0  0
    5.2132    4.2892  -17.0887 H   0  0  0  0  0  0  0  0  0  0  0  0
    5.8603    5.2463  -18.4642 H   0  0  0  0  0  0  0  0  0  0  0  0
    6.0251    3.4357  -19.9944 H   0  0  0  0  0  0  0  0  0  0  0  0
    3.3857    3.4428  -18.4416 H   0  0  0  0  0  0  0  0  0  0  0  0
    5.0777    1.3099  -18.1201 H   0  0  0  0  0  0  0  0  0  0  0  0
    3.3923    5.6602  -16.9631 H   0  0  0  0  0  0  0  0  0  0  0  0
    3.6211    6.3276  -18.4358 H   0  0  0  0  0  0  0  0  0  0  0  0
    3.2308    4.1959  -20.6547 H   0  0  0  0  0  0  0  0  0  0  0  0
  1  2  2  0
  1  3  1  0
  2 13  1  0
  3 16  2  0
  4 11  2  0
  4 12  1  0
  5 11  1  0
  5 14  2  0
  6 12  2  0
  6 14  1  0
  7 13  2  0
  7 16  1  0
  8 15  2  0
  8 17  1  0
  9 15  1  0
  9 18  2  0
 10 17  2  0
 10 18  1  0
 11 19  1  0
 12 20  1  0
 13 26  1  0
 14 21  1  0
 15 25  1  0
 16 40  1  0
 17 41  1  0
 18 42  1  0
 19 34  1  0
 19 37  2  0
 20 35  1  0
 20 38  2  0
 22 27  1  0
 23 28  1  0
 24 40  1  0
 25 32  1  0
 26 36  1  0
 27 29  1  0
 28 30  1  0
 29 35  1  0
 30 35  1  0
 31 33  1  0
 31 36  1  0
 32 33  1  0
 32 34  1  0
 33 39  1  0
  1 43  1  0
  2 44  1  0
  3 45  1  0
  4 46  1  0
  5 47  1  0
  6 48  1  0
  7 49  1  0
  8 50  1  0
  9 51  1  0
 10 52  1  0
 21 53  1  0
 21 54  1  0
 21 55  1  0
 22 56  1  0
 22 57  1  0
 22 58  1  0
 23 59  1  0
 23 60  1  0
 23 61  1  0
 24 62  1  0
 24 63  1  0
 24 64  1  0
 25 65  1  0
 25 66  1  0
 26 67  1  0
 26 68  1  0
 27 69  1  0
 27 70  1  0
 28 71  1  0
 28 72  1  0
 29 73  1  0
 29 74  1  0
 30 75  1  0
 30 76  1  0
 31 77  1  0
 31 78  1  0
 32 79  1  6
 33 80  1  1
 34 81  1  0
 36 82  1  0
 36 83  1  0
 39 84  1  0
M  CHG  1  36   1
M  END
>  <OMEGA_C>  (8) 
2hsCQXcKBUHyeZPBU2TlQAwN+kBTU4zBQEz4QKnNCkHl853BbhvYQCzjYr2tJIbBuwMGQbMmxz+x
lH7BxScDQRDWJb9/QG7Bi2euQLnaAEHdFZrBeKPVQFZpjD97tKvBKCidQOlm4r46HqbBveXhQMKo
p78cOqzBCzzrQLG2nD8KnYbByw/mQLJGfr/U83zBEZO6QM2U9UAco4/Bc3UMQbCqIT8T3G7B2uGr
QLCmXz+fw6fB4G7NQJ7VCEE3XaHB0LXwQKA4wTs22q3BhQS4QCsWxL8QbajB2yfdQDYlDUDzrY7B
C9PSQNUtFcDD53vBOAgeQUpWfT+eRl/BALx8QKqpWsChnY3BJqsYQXHoh8A8c4nBUVuXQOSqEEGL
qK7BFZuPQOuvAkD9yKTBVeWZQClx40BF8IfBVKicQN0ilMDTVo7B7AYJQSM5gcC9zpLB3kvAQIQi
ksDX2YXBauvwQC3zPMBnGpDBYkOeQLmZm0CZ6I/BOqulQLVrOkB4OZzBxISGQAcufUBhv5fBZm21
QGYqA0A9hpPB3cHXQK9ZUcBFRobBXHqCQK2uv0Bk5ozBQDz0QKj0SUA/+5DBnNS/QOUNKMABZmvB
b3JsQKQNmECiUKDBShTEQPurDkHo06vBr3QMQcYLZD44dbHBMJSpQDyzMsCh8abBy4cSQVfHBkFt
7pDBo5HuQIcs8UD2S4TBSRkIQb3JEEH3baPB6dC+QIoWob5/p4vB6KMNQZeAIUCUdH/Bz2UIQej4
rr9yeWLBJ2eNQJjW/kBdjJzBqcXgQKG5BkCPEa3BmYV6QOb4HL/8FaPBEqP2QPF8CcDV5K3BFPoW
QZyBuD8R3VDBseEmQTospT1jz1rBtAkpQc6I2j9vz2bBJ+pKQAoAYMAmzJPBI5ZeQMcgWcBxqoXB
97qQQHFwH8B+3Y7BclUkQajboMAjk4vBGSQhQS2PU8DHyYfBgbYPQavbkcBsS4LBfZaUQHZWFUFY
HbfBrTCHQDw8AUEhaK3B3kiIQBHyHEFtmqnBzXCJQNWwKUB38qvBHjZiQDn91D88maHBsWCqQLnf
10B9uIDBWRCDQLq5/EBGuYXBmvWJQHyQscA8IY3BgGWrQFG4lMBJVJbBkBQSQYDMbsB58ZnB96YA
QVV6n8Aec5TBeuixQMrVlcALv3vBmgnXQEpirMC8SIfBUuQAQV7x/78c2o7BRK/aQHSMNsDL4JbB
6dKmQHdBiUCjtYjB04e7QMDhp0CktpPBBs7AQOniW0CK9J/B3K5YQIVXXEBriJPBIXyiQHSrpz8F
9pDBvBpZQPcftUB7tIfBacBnQIx7ykCPfJPBgsVOQOdEhkDXPKXB

>  <OMEGA_E>  (8) 
wAUSPQ==

>  <OMEGA_NBR>  (8) 
      3279

$$$$
50139666
     RDKit          3D

 81 83  0  0  1  0  0  0  0  0999 V2000
    7.0750   -1.3792  -21.5285 C   0  0  0  0  0  0  0  0  0  0  0  0
    7.5340   -0.0701  -21.7803 C   0  0  0  0  0  0  0  0  0  0  0  0
    5.7943   -1.5867  -20.9781 C   0  0  0  0  0  0  0  0  0  0  0  0
    8.8153    0.7010  -14.7841 C   0  0  0  0  0  0  0  0  0  0  0  0
    8.1157    8.3115  -18.4395 C   0  0  0  0  0  0  0  0  0  0  0  0
    8.4327    1.6198  -15.7825 C   0  0  0  0  0  0  0  0  0  0  0  0
    8.2153   -0.5724  -14.7294 C   0  0  0  0  0  0  0  0  0  0  0  0
    6.7132    1.0332  -21.4795 C   0  0  0  0  0  0  0  0  0  0  0  0
    4.9737   -0.4857  -20.6738 C   0  0  0  0  0  0  0  0  0  0  0  0
    7.1321    7.8047  -17.5713 C   0  0  0  0  0  0  0  0  0  0  0  0
    7.7671    8.7117  -19.7441 C   0  0  0  0  0  0  0  0  0  0  0  0
    6.8331   -0.0015  -16.6570 C   0  0  0  0  0  0  0  0  0  0  0  0
    5.4447    8.0985  -19.3126 C   0  0  0  0  0  0  0  0  0  0  0  0
    7.4320    1.2748  -16.7236 C   0  0  0  0  0  0  0  0  0  0  0  0
    7.2342   -0.9320  -15.6788 C   0  0  0  0  0  0  0  0  0  0  0  0
    5.4321    0.8254  -20.9223 C   0  0  0  0  0  0  0  0  0  0  0  0
    5.7986    7.6922  -18.0079 C   0  0  0  0  0  0  0  0  0  0  0  0
    6.4323    8.6164  -20.1934 C   0  0  0  0  0  0  0  0  0  0  0  0
    6.9957    2.2333  -17.7628 C   0  0  0  0  0  0  0  0  0  0  0  0
    6.5868   -2.2574  -15.6228 C   0  0  0  0  0  0  0  0  0  0  0  0
    3.9060   -3.4111  -17.7874 C   0  0  0  0  0  0  0  0  0  0  0  0
    9.3469   -4.7214  -18.1416 C   0  0  0  0  0  0  0  0  0  0  0  0
    4.7726    9.0535  -21.9030 C   0  0  0  0  0  0  0  0  0  0  0  0
    4.5624    2.0026  -20.5500 C   0  0  0  0  0  0  0  0  0  0  0  0
    4.7499    7.1428  -17.0647 C   0  0  0  0  0  0  0  0  0  0  0  0
    4.8908   -4.5948  -17.7909 C   0  0  0  0  0  0  0  0  0  0  0  0
    8.9917   -3.4319  -17.3960 C   0  0  0  0  0  0  0  0  0  0  0  0
    5.9320   -4.4606  -16.6632 C   0  0  0  0  0  0  0  0  0  0  0  0
    7.5951   -2.9390  -17.8176 C   0  0  0  0  0  0  0  0  0  0  0  0
    4.9320    4.8651  -17.9766 C   0  0  0  0  0  0  0  0  0  0  0  0
    5.2429    2.8878  -19.4813 C   0  0  1  0  0  0  0  0  0  0  0  0
    4.2265    3.9008  -18.9275 C   0  0  2  0  0  0  0  0  0  0  0  0
    5.7640    2.0418  -18.3893 N   0  0  0  0  0  0  0  0  0  0  0  0
    6.6293   -3.1489  -16.7170 N   0  0  0  0  0  0  0  0  0  0  0  0
    4.0451    6.0030  -17.6744 N   0  0  0  0  0  0  0  0  0  0  0  0
    7.7034    3.1924  -18.0533 O   0  0  0  0  0  0  0  0  0  0  0  0
    5.9989   -2.5581  -14.5899 O   0  0  0  0  0  0  0  0  0  0  0  0
    3.6597    4.6452  -20.0083 O   0  0  0  0  0  0  0  0  0  0  0  0
    6.1588    9.0481  -21.4859 O   0  0  0  0  0  0  0  0  0  0  0  0
    7.7062   -2.2249  -21.7579 H   0  0  0  0  0  0  0  0  0  0  0  0
    8.5152    0.0862  -22.2039 H   0  0  0  0  0  0  0  0  0  0  0  0
    5.4432   -2.5906  -20.7900 H   0  0  0  0  0  0  0  0  0  0  0  0
    9.5692    0.9737  -14.0605 H   0  0  0  0  0  0  0  0  0  0  0  0
    9.1394    8.3940  -18.1054 H   0  0  0  0  0  0  0  0  0  0  0  0
    8.9044    2.5902  -15.8300 H   0  0  0  0  0  0  0  0  0  0  0  0
    8.5059   -1.2736  -13.9612 H   0  0  0  0  0  0  0  0  0  0  0  0
    7.0622    2.0364  -21.6745 H   0  0  0  0  0  0  0  0  0  0  0  0
    3.9929   -0.6438  -20.2501 H   0  0  0  0  0  0  0  0  0  0  0  0
    7.3998    7.5018  -16.5698 H   0  0  0  0  0  0  0  0  0  0  0  0
    8.5284    9.0952  -20.4072 H   0  0  0  0  0  0  0  0  0  0  0  0
    6.0600   -0.2670  -17.3629 H   0  0  0  0  0  0  0  0  0  0  0  0
    4.4197    8.0155  -19.6426 H   0  0  0  0  0  0  0  0  0  0  0  0
    3.1778   -3.5369  -18.6023 H   0  0  0  0  0  0  0  0  0  0  0  0
    3.3760   -3.3780  -16.8241 H   0  0  0  0  0  0  0  0  0  0  0  0
    4.4607   -2.4724  -17.9332 H   0  0  0  0  0  0  0  0  0  0  0  0
   10.3458   -5.0618  -17.8312 H   0  0  0  0  0  0  0  0  0  0  0  0
    8.6049   -5.4981  -17.9045 H   0  0  0  0  0  0  0  0  0  0  0  0
    9.3449   -4.5308  -19.2249 H   0  0  0  0  0  0  0  0  0  0  0  0
    4.7024    9.4151  -22.9395 H   0  0  0  0  0  0  0  0  0  0  0  0
    4.3677    8.0325  -21.8428 H   0  0  0  0  0  0  0  0  0  0  0  0
    4.1939    9.7169  -21.2434 H   0  0  0  0  0  0  0  0  0  0  0  0
    4.3740    2.6074  -21.4492 H   0  0  0  0  0  0  0  0  0  0  0  0
    3.6070    1.6304  -20.1516 H   0  0  0  0  0  0  0  0  0  0  0  0
    5.2379    6.8105  -16.1366 H   0  0  0  0  0  0  0  0  0  0  0  0
    4.0225    7.9348  -16.8333 H   0  0  0  0  0  0  0  0  0  0  0  0
    4.3281   -5.5294  -17.6496 H   0  0  0  0  0  0  0  0  0  0  0  0
    5.4128   -4.6238  -18.7587 H   0  0  0  0  0  0  0  0  0  0  0  0
    8.9968   -3.6256  -16.3132 H   0  0  0  0  0  0  0  0  0  0  0  0
    9.7367   -2.6583  -17.6336 H   0  0  0  0  0  0  0  0  0  0  0  0
    5.4219   -4.5544  -15.6931 H   0  0  0  0  0  0  0  0  0  0  0  0
    6.6754   -5.2648  -16.7658 H   0  0  0  0  0  0  0  0  0  0  0  0
    7.6449   -1.8669  -18.0587 H   0  0  0  0  0  0  0  0  0  0  0  0
    7.2637   -3.4993  -18.7043 H   0  0  0  0  0  0  0  0  0  0  0  0
    5.1837    4.3399  -17.0434 H   0  0  0  0  0  0  0  0  0  0  0  0
    5.8538    5.2354  -18.4489 H   0  0  0  0  0  0  0  0  0  0  0  0
    6.0716    3.4369  -19.9521 H   0  0  0  0  0  0  0  0  0  0  0  0
    3.4424    3.3593  -18.3778 H   0  0  0  0  0  0  0  0  0  0  0  0
    5.1958    1.2801  -18.0777 H   0  0  0  0  0  0  0  0  0  0  0  0
    3.3352    5.6932  -17.0419 H   0  0  0  0  0  0  0  0  0  0  0  0
    3.6213    6.3104  -18.5264 H   0  0  0  0  0  0  0  0  0  0  0  0
    3.2185    4.0520  -20.6049 H   0  0  0  0  0  0  0  0  0  0  0  0
  1  2  2  0
  1  3  1  0
  2  8  1  0
  3  9  2  0
  4  6  2  0
  4  7  1  0
  5 10  2  0
  5 11  1  0
  6 14  1  0
  7 15  2  0
  8 16  2  0
  9 16  1  0
 10 17  1  0
 11 18  2  0
 12 14  2  0
 12 15  1  0
 13 17  2  0
 13 18  1  0
 14 19  1  0
 15 20  1  0
 16 24  1  0
 17 25  1  0
 18 39  1  0
 19 33  1  0
 19 36  2  0
 20 34  1  0
 20 37  2  0
 21 26  1  0
 22 27  1  0
 23 39  1  0
 24 31  1  0
 25 35  1  0
 26 28  1  0
 27 29  1  0
 28 34  1  0
 29 34  1  0
 30 32  1  0
 30 35  1  0
 31 32  1  0
 31 33  1  0
 32 38  1  0
  1 40  1  0
  2 41  1  0
  3 42  1  0
  4 43  1  0
  5 44  1  0
  6 45  1  0
  7 46  1  0
  8 47  1  0
  9 48  1  0
 10 49  1  0
 11 50  1  0
 12 51  1  0
 13 52  1  0
 21 53  1  0
 21 54  1  0
 21 55  1  0
 22 56  1  0
 22 57  1  0
 22 58  1  0
 23 59  1  0
 23 60  1  0
 23 61  1  0
 24 62  1  0
 24 63  1  0
 25 64  1  0
 25 65  1  0
 26 66  1  0
 26 67  1  0
 27 68  1  0
 27 69  1  0
 28 70  1  0
 28 71  1  0
 29 72  1  0
 29 73  1  0
 30 74  1  0
 30 75  1  0
 31 76  1  6
 32 77  1  1
 33 78  1  0
 35 79  1  0
 35 80  1  0
 38 81  1  0
M  CHG  1  35   1
M  END
>  <OMEGA_C>  (9) 
C2biQLaIsL9POqzBzxbxQHSHj70ZPq7B4Wq5QDYZy78c06fBlwsNQSF2Mz/Wi2zBBNoBQQ38BEEA
hJPBc+wGQXdVzz8uhXzBEXIDQbGFEr/Pq2vBT9LWQI4+hD8d1qvBNSifQKSx+L71Y6XBGTrkQOK/
+UDtkYzB/ov4QApjC0HW853BAKnaQABavrqiQYXB+jquQG+TAUE8gJrBNdPtQP4toz/nyYXBuX7n
QBiVbr9a3HrBhdOtQIBKUz/UYKfBgY65QJQm9kAzEJDBqNXNQKncCUEFjKHB79zfQMbtDkBRGo7B
8MbSQO55EMDt9nnBNvx5QFJPWsCuTI7BAI0VQX4Vl8DsIZHBvLiYQE/bEEFLOa/B+f6RQBIqAEBe
ZqTBJv+XQM6R5ECWhIjBuYGcQIoIk8CtU47BMN4PQYSkW8DyKovBzdK9QF29jsAiToXB4wrzQAAZ
PMBlio7BMtOdQA+vm0AI0I/BqMWnQCjROECb2ZvBWT+HQCqmeUBwa5fBr3K4QDasAkBJHZPBgSPU
QMSGScBfvIXBf3GBQHUYwEBFZY3BEoL2QBJQTEAQbZDBNve/QGS3I8AJcGnBTzhqQJCllEDxEKDB
qBTFQAfFEEET46vBeJn2QMNkDsAoEK7BFT4IQWd2sD2CobHB1y6uQELMJcACUqbBfxsZQRNCeT+b
92DBJzsSQclNBkHP15DBSngOQQHGJUCCR33BVxgIQQwFo78HYV/Bxf3hQO1UAkBZZa3BxIt/QGfR
JL8yAKLBZcvsQOEO8EDdjoTBZXQIQd6FEUHfQaPB4OvBQIu5iL4u54rBPG6NQFE/AEEOJJ3B1GFL
QMFcYsBv0ZTB7BBYQDAxWMDDl4bBu72OQP87HsBAd4/Bc4glQfb5ocAzpo7B260JQU7wr8B2PI/B
soQVQST8kMClzJnB9XmWQHOkFkEIhLfB28OLQE2FAEEAvq7BijSGQJd4G0Fr8qnBkPeLQGngJkAB
mKvBh9hmQOqx0D98NqHBM52nQP/v2UDHF4HB7reAQMrp/UCLqobBJoCKQInwsMBbMo3BazWtQPH1
k8DYEZbBzvIPQTYJaMBagYLBpckbQeMgKsCJEY3BaICtQAy+kcDcFnvB9ZzVQI15qMBrIIbB5KL0
QJL37r8seJDBcnDoQPXzX8B5opXBp+ClQCbgikDtWIjBr1K7QK2Ip0Bvl5PBl0rCQLv1W0DknZ/B
+lBcQHv+VkDUBZPB50OmQMrboz8vn5DBQ3RVQOcutkDRVYjB9cNnQPvuyUAqNpTB7ftNQDKqgUDg
1qTB

>  <OMEGA_E>  (9) 
YCZLPg==

>  <OMEGA_NBR>  (9) 
     22209

$$$$
50141640
     RDKit          3D

 82 84  0  0  1  0  0  0  0  0999 V2000
    9.8410    0.9574  -13.9350 C   0  0  0  0  0  0  0  0  0  0  0  0
    7.1756   -1.3080  -21.4864 C   0  0  0  0  0  0  0  0  0  0  0  0
    7.5912    0.0141  -21.7437 C   0  0  0  0  0  0  0  0  0  0  0  0
    5.8959   -1.5558  -20.9501 C   0  0  0  0  0  0  0  0  0  0  0  0
    8.1146    8.3005  -18.5059 C   0  0  0  0  0  0  0  0  0  0  0  0
    6.7278    1.0899  -21.4635 C   0  0  0  0  0  0  0  0  0  0  0  0
    5.0322   -0.4816  -20.6661 C   0  0  0  0  0  0  0  0  0  0  0  0
    7.1502    7.7964  -17.6148 C   0  0  0  0  0  0  0  0  0  0  0  0
    7.7390    8.6893  -19.8063 C   0  0  0  0  0  0  0  0  0  0  0  0
    8.4022    1.5655  -15.8314 C   0  0  0  0  0  0  0  0  0  0  0  0
    8.2051   -0.6385  -14.8048 C   0  0  0  0  0  0  0  0  0  0  0  0
    6.7437   -0.0225  -16.6577 C   0  0  0  0  0  0  0  0  0  0  0  0
    5.4276    8.0718  -19.3245 C   0  0  0  0  0  0  0  0  0  0  0  0
    8.8140    0.6262  -14.8666 C   0  0  0  0  0  0  0  0  0  0  0  0
    7.3611    1.2467  -16.7332 C   0  0  0  0  0  0  0  0  0  0  0  0
    7.1768   -0.9674  -15.7053 C   0  0  0  0  0  0  0  0  0  0  0  0
    5.4471    0.8435  -20.9196 C   0  0  0  0  0  0  0  0  0  0  0  0
    5.8088    7.6757  -18.0240 C   0  0  0  0  0  0  0  0  0  0  0  0
    6.3957    8.5886  -20.2275 C   0  0  0  0  0  0  0  0  0  0  0  0
    6.9259    2.2227  -17.7509 C   0  0  0  0  0  0  0  0  0  0  0  0
    6.5513   -2.2958  -15.6382 C   0  0  0  0  0  0  0  0  0  0  0  0
    3.9191   -3.4434  -17.7141 C   0  0  0  0  0  0  0  0  0  0  0  0
    9.4335   -4.6983  -18.1006 C   0  0  0  0  0  0  0  0  0  0  0  0
    4.6973    9.0514  -21.8909 C   0  0  0  0  0  0  0  0  0  0  0  0
    4.5418    1.9983  -20.5488 C   0  0  0  0  0  0  0  0  0  0  0  0
    4.7795    7.1372  -17.0523 C   0  0  0  0  0  0  0  0  0  0  0  0
    4.9005   -4.6300  -17.7615 C   0  0  0  0  0  0  0  0  0  0  0  0
    9.0276   -3.4206  -17.3605 C   0  0  0  0  0  0  0  0  0  0  0  0
    5.9729   -4.5200  -16.6626 C   0  0  0  0  0  0  0  0  0  0  0  0
    7.6211   -2.9719  -17.8014 C   0  0  0  0  0  0  0  0  0  0  0  0
    4.9116    4.8511  -17.9492 C   0  0  0  0  0  0  0  0  0  0  0  0
    5.2090    2.8927  -19.4809 C   0  0  1  0  0  0  0  0  0  0  0  0
    4.2104    3.9319  -18.9500 C   0  0  2  0  0  0  0  0  0  0  0  0
   10.6749    1.2214  -13.1650 N   0  0  0  0  0  0  0  0  0  0  0  0
    5.6958    2.0489  -18.3767 N   0  0  0  0  0  0  0  0  0  0  0  0
    6.6511   -3.2026  -16.7102 N   0  0  0  0  0  0  0  0  0  0  0  0
    4.0472    6.0039  -17.6424 N   0  0  0  0  0  0  0  0  0  0  0  0
    7.6451    3.1747  -18.0379 O   0  0  0  0  0  0  0  0  0  0  0  0
    5.9907   -2.6101  -14.5941 O   0  0  0  0  0  0  0  0  0  0  0  0
    3.7267    4.7172  -20.0407 O   0  0  0  0  0  0  0  0  0  0  0  0
    6.0943    9.0192  -21.5139 O   0  0  0  0  0  0  0  0  0  0  0  0
    7.8390   -2.1328  -21.7006 H   0  0  0  0  0  0  0  0  0  0  0  0
    8.5717    0.2017  -22.1557 H   0  0  0  0  0  0  0  0  0  0  0  0
    5.5782   -2.5698  -20.7570 H   0  0  0  0  0  0  0  0  0  0  0  0
    9.1443    8.3895  -18.1926 H   0  0  0  0  0  0  0  0  0  0  0  0
    7.0439    2.1029  -21.6640 H   0  0  0  0  0  0  0  0  0  0  0  0
    4.0519   -0.6711  -20.2543 H   0  0  0  0  0  0  0  0  0  0  0  0
    7.4389    7.5020  -16.6166 H   0  0  0  0  0  0  0  0  0  0  0  0
    8.4861    9.0683  -20.4880 H   0  0  0  0  0  0  0  0  0  0  0  0
    8.8827    2.5314  -15.8826 H   0  0  0  0  0  0  0  0  0  0  0  0
    8.5267   -1.3575  -14.0658 H   0  0  0  0  0  0  0  0  0  0  0  0
    5.9370   -0.2693  -17.3321 H   0  0  0  0  0  0  0  0  0  0  0  0
    4.3968    7.9818  -19.6341 H   0  0  0  0  0  0  0  0  0  0  0  0
    3.1691   -3.5551  -18.5110 H   0  0  0  0  0  0  0  0  0  0  0  0
    3.4150   -3.4234  -16.7366 H   0  0  0  0  0  0  0  0  0  0  0  0
    4.4724   -2.5040  -17.8606 H   0  0  0  0  0  0  0  0  0  0  0  0
   10.4383   -5.0069  -17.7765 H   0  0  0  0  0  0  0  0  0  0  0  0
    8.7133   -5.4981  -17.8733 H   0  0  0  0  0  0  0  0  0  0  0  0
    9.4401   -4.5080  -19.1840 H   0  0  0  0  0  0  0  0  0  0  0  0
    4.6047    9.4091  -22.9270 H   0  0  0  0  0  0  0  0  0  0  0  0
    4.2732    8.0394  -21.8132 H   0  0  0  0  0  0  0  0  0  0  0  0
    4.1518    9.7302  -21.2188 H   0  0  0  0  0  0  0  0  0  0  0  0
    4.3369    2.5995  -21.4469 H   0  0  0  0  0  0  0  0  0  0  0  0
    3.5965    1.6024  -20.1491 H   0  0  0  0  0  0  0  0  0  0  0  0
    5.2887    6.8006  -16.1372 H   0  0  0  0  0  0  0  0  0  0  0  0
    4.0665    7.9366  -16.8023 H   0  0  0  0  0  0  0  0  0  0  0  0
    4.3381   -5.5647  -17.6197 H   0  0  0  0  0  0  0  0  0  0  0  0
    5.3955   -4.6454  -18.7437 H   0  0  0  0  0  0  0  0  0  0  0  0
    9.0240   -3.6139  -16.2776 H   0  0  0  0  0  0  0  0  0  0  0  0
    9.7509   -2.6238  -17.5884 H   0  0  0  0  0  0  0  0  0  0  0  0
    5.4944   -4.6427  -15.6798 H   0  0  0  0  0  0  0  0  0  0  0  0
    6.7198   -5.3143  -16.8084 H   0  0  0  0  0  0  0  0  0  0  0  0
    7.6418   -1.9005  -18.0499 H   0  0  0  0  0  0  0  0  0  0  0  0
    7.3161   -3.5479  -18.6876 H   0  0  0  0  0  0  0  0  0  0  0  0
    5.1192    4.2935  -17.0240 H   0  0  0  0  0  0  0  0  0  0  0  0
    5.8576    5.2086  -18.3820 H   0  0  0  0  0  0  0  0  0  0  0  0
    6.0562    3.4203  -19.9433 H   0  0  0  0  0  0  0  0  0  0  0  0
    3.3813    3.4126  -18.4471 H   0  0  0  0  0  0  0  0  0  0  0  0
    5.1067    1.3065  -18.0575 H   0  0  0  0  0  0  0  0  0  0  0  0
    3.3426    5.7099  -16.9966 H   0  0  0  0  0  0  0  0  0  0  0  0
    3.6149    6.3115  -18.4901 H   0  0  0  0  0  0  0  0  0  0  0  0
    3.2893    4.1535  -20.6678 H   0  0  0  0  0  0  0  0  0  0  0  0
  1 14  1  0
  1 34  3  0
  2  3  2  0
  2  4  1  0
  3  6  1  0
  4  7  2  0
  5  8  2  0
  5  9  1  0
  6 17  2  0
  7 17  1  0
  8 18  1  0
  9 19  2  0
 10 14  2  0
 10 15  1  0
 11 14  1  0
 11 16  2  0
 12 15  2  0
 12 16  1  0
 13 18  2  0
 13 19  1  0
 15 20  1  0
 16 21  1  0
 17 25  1  0
 18 26  1  0
 19 41  1  0
 20 35  1  0
 20 38  2  0
 21 36  1  0
 21 39  2  0
 22 27  1  0
 23 28  1  0
 24 41  1  0
 25 32  1  0
 26 37  1  0
 27 29  1  0
 28 30  1  0
 29 36  1  0
 30 36  1  0
 31 33  1  0
 31 37  1  0
 32 33  1  0
 32 35  1  0
 33 40  1  0
  2 42  1  0
  3 43  1  0
  4 44  1  0
  5 45  1  0
  6 46  1  0
  7 47  1  0
  8 48  1  0
  9 49  1  0
 10 50  1  0
 11 51  1  0
 12 52  1  0
 13 53  1  0
 22 54  1  0
 22 55  1  0
 22 56  1  0
 23 57  1  0
 23 58  1  0
 23 59  1  0
 24 60  1  0
 24 61  1  0
 24 62  1  0
 25 63  1  0
 25 64  1  0
 26 65  1  0
 26 66  1  0
 27 67  1  0
 27 68  1  0
 28 69  1  0
 28 70  1  0
 29 71  1  0
 29 72  1  0
 30 73  1  0
 30 74  1  0
 31 75  1  0
 31 76  1  0
 32 77  1  6
 33 78  1  1
 35 79  1  0
 37 80  1  0
 37 81  1  0
 40 82  1  0
M  CHG  1  37   1
M  END
>  <OMEGA_C>  (10) 
nnQdQQYXdT/n9V7BIJ7lQIBtp78W5KvB1uryQHjFZzwT863B8aq8QP8ix7+1mafBZ9UBQebOBEEu
DJTByUnXQC+Ciz8ytavBvwehQAOR9r49VKXBss7kQFd8+UAY64zBtaX3QIUHC0Fgc57BmW8GQcpi
yD9LTX3BCEgDQaxyI79C4GzBCczXQEwfuLz9QoXBya6tQCsmAUGSmJrBLwYNQXBMID+93W3B+o3r
QJ2Tnz+S3YXBEKjlQGKqd78TSXvBhE6uQL7sVz9AW6fBYeG5QP6e9UAeMZDBY6nMQNZqCUHY0aHB
RaHdQCNBDkDVAY7BZKTRQKbtEsDqNXrBBNJ6QEZgXMCGto3Bhe8WQb5YlsAMzpDB+U+WQLrSEEGX
IK/BKlaRQLvH/z/nY6TBu/GYQONj5EAya4jByNCcQDkplMB6F47B23AQQUXrWsBQ4orB4yG/QOCj
kMABTYXB7d/zQEwzPsBdaY7B7CudQEM8m0ABmI/B5K+mQH4iOUDX2JvBebuGQH6je0CwmZfBR8wq
QQ9XnD/Oo1LBqEO2QJkhA0BkA5PB6tXUQJj2TMB4roXBr4KBQOwfwECoI43BUqT0QE0uS0CrTZDB
vrO/QBwLJ8BggWnB9YJuQPDylkBJU6DB1QTDQNBOEEF4HKzBMNn6QJGACMDXmq3ByCUJQT9/Tj7c
PrHBhoCyQBZ3JMBlDqbBHU8SQV47BkGAipHBbGfhQKqWBkD3T63BfKmBQFPNK7/hCKLBrQvuQJ8Q
8EDN7oTBCccHQcEXEUFV56PBax8OQcgCIkDyHn7Bc20IQTzBrb+kDWHBTvy9QIDgib49qIrB3LKM
QA5r/0CfEp3BuNJKQO+GY8CdFpTBR49aQMkYW8CZ5IXB3B2PQAhCIMCI4o7BZwMnQaM4oMBGNo7B
q2kLQZTwr8Bw/I7BwgoXQWdBkMDSeJnBpFmTQJ+LFkGLarfBPb6IQI+hAEF0ga7BY9uEQMWuG0EG
wKnBGsiKQFdeJkAyk6vBES1mQB0bzT9fMaHBrTypQECe2UAGGYHBgCCCQKf4/UAga4bB/dGKQDsS
ssAR9YzBNqisQNqmlMD/8pXBaWIQQZdKZ8CWOILBfwMcQTzsJ8D4tIzBxdGvQJqQlMBQ4HrBgwjX
QI0OqsCtd4bBxIn0QI5D878fZpDB3R3qQNYQY8AkgJXBZdCjQBZkiUA+MYjBrnG7QLWspkBCDpPB
pMzBQPTlWkDji5/BFWdYQO1nWkCek5PBfWqjQEs7pz+9dZDBqu1VQEC3tkDz+IfB6FpnQBP4yUCg
65PBF4NSQDHphEDAV6XB

>  <OMEGA_E>  (10) 
0A59Pg==

>  <OMEGA_NBR>  (10) 
     23858

$$$$
50141638
     RDKit          3D

 84 86  0  0  1  0  0  0  0  0999 V2000
    7.2265   -1.2967  -21.4675 C   0  0  0  0  0  0  0  0  0  0  0  0
    7.6366    0.0245  -21.7384 C   0  0  0  0  0  0  0  0  0  0  0  0
    5.9438   -1.5451  -20.9390 C   0  0  0  0  0  0  0  0  0  0  0  0
    8.1311    8.3382  -18.4038 C   0  0  0  0  0  0  0  0  0  0  0  0
    6.7627    1.0983  -21.4840 C   0  0  0  0  0  0  0  0  0  0  0  0
    5.0709   -0.4728  -20.6778 C   0  0  0  0  0  0  0  0  0  0  0  0
    7.1429    7.8272  -17.5435 C   0  0  0  0  0  0  0  0  0  0  0  0
    7.7942    8.7226  -19.7159 C   0  0  0  0  0  0  0  0  0  0  0  0
    6.7547    0.0113  -16.6681 C   0  0  0  0  0  0  0  0  0  0  0  0
    8.3802    1.6225  -15.8221 C   0  0  0  0  0  0  0  0  0  0  0  0
    8.1823   -0.5720  -14.7789 C   0  0  0  0  0  0  0  0  0  0  0  0
    5.4714    8.0963  -19.3044 C   0  0  0  0  0  0  0  0  0  0  0  0
    7.3626    1.2847  -16.7430 C   0  0  0  0  0  0  0  0  0  0  0  0
    7.1789   -0.9225  -15.7021 C   0  0  0  0  0  0  0  0  0  0  0  0
    5.4775    0.8508  -20.9512 C   0  0  0  0  0  0  0  0  0  0  0  0
    5.8159    7.6969  -17.9945 C   0  0  0  0  0  0  0  0  0  0  0  0
    8.7702    0.7060  -14.8258 C   0  0  0  0  0  0  0  0  0  0  0  0
    6.4653    8.6137  -20.1787 C   0  0  0  0  0  0  0  0  0  0  0  0
    6.9363    2.2481  -17.7757 C   0  0  0  0  0  0  0  0  0  0  0  0
    6.5563   -2.2542  -15.6323 C   0  0  0  0  0  0  0  0  0  0  0  0
    9.8628    1.0713  -13.8471 C   0  0  0  0  0  0  0  0  0  0  0  0
    3.9326   -3.4207  -17.6565 C   0  0  0  0  0  0  0  0  0  0  0  0
    9.4835   -4.6249  -17.8939 C   0  0  0  0  0  0  0  0  0  0  0  0
    4.8205    9.0627  -21.8986 C   0  0  0  0  0  0  0  0  0  0  0  0
    4.5656    2.0050  -20.5938 C   0  0  0  0  0  0  0  0  0  0  0  0
    4.7655    7.1352  -17.0599 C   0  0  0  0  0  0  0  0  0  0  0  0
    4.9004   -4.6188  -17.6962 C   0  0  0  0  0  0  0  0  0  0  0  0
    9.0552   -3.2447  -17.3849 C   0  0  0  0  0  0  0  0  0  0  0  0
    6.0016   -4.4988  -16.6271 C   0  0  0  0  0  0  0  0  0  0  0  0
    7.6077   -2.9310  -17.8102 C   0  0  0  0  0  0  0  0  0  0  0  0
    4.9421    4.8770  -18.0215 C   0  0  0  0  0  0  0  0  0  0  0  0
    5.2209    2.8968  -19.5162 C   0  0  1  0  0  0  0  0  0  0  0  0
    4.2113    3.9061  -18.9498 C   0  0  2  0  0  0  0  0  0  0  0  0
    5.7247    2.0469  -18.4262 N   0  0  0  0  0  0  0  0  0  0  0  0
    6.6727   -3.1776  -16.6909 N   0  0  0  0  0  0  0  0  0  0  0  0
    4.0572    6.0045  -17.6839 N   0  0  0  0  0  0  0  0  0  0  0  0
    7.6402    3.2161  -18.0463 O   0  0  0  0  0  0  0  0  0  0  0  0
    5.9755   -2.5546  -14.5952 O   0  0  0  0  0  0  0  0  0  0  0  0
    3.6141    4.6407  -20.0184 O   0  0  0  0  0  0  0  0  0  0  0  0
    6.2051    9.0286  -21.4792 O   0  0  0  0  0  0  0  0  0  0  0  0
    7.8966   -2.1202  -21.6655 H   0  0  0  0  0  0  0  0  0  0  0  0
    8.6210    0.2128  -22.1409 H   0  0  0  0  0  0  0  0  0  0  0  0
    5.6310   -2.5583  -20.7344 H   0  0  0  0  0  0  0  0  0  0  0  0
    9.1495    8.4359  -18.0578 H   0  0  0  0  0  0  0  0  0  0  0  0
    7.0742    2.1105  -21.6959 H   0  0  0  0  0  0  0  0  0  0  0  0
    4.0898   -0.6627  -20.2682 H   0  0  0  0  0  0  0  0  0  0  0  0
    7.4022    7.5347  -16.5368 H   0  0  0  0  0  0  0  0  0  0  0  0
    8.5601    9.1045  -20.3746 H   0  0  0  0  0  0  0  0  0  0  0  0
    5.9616   -0.2472  -17.3541 H   0  0  0  0  0  0  0  0  0  0  0  0
    8.8610    2.5876  -15.8826 H   0  0  0  0  0  0  0  0  0  0  0  0
    8.5015   -1.2851  -14.0332 H   0  0  0  0  0  0  0  0  0  0  0  0
    4.4496    8.0082  -19.6429 H   0  0  0  0  0  0  0  0  0  0  0  0
    9.4167    1.5352  -12.9551 H   0  0  0  0  0  0  0  0  0  0  0  0
   10.4102    0.1635  -13.5533 H   0  0  0  0  0  0  0  0  0  0  0  0
   10.5571    1.7809  -14.3209 H   0  0  0  0  0  0  0  0  0  0  0  0
    3.1634   -3.5442  -18.4331 H   0  0  0  0  0  0  0  0  0  0  0  0
    3.4514   -3.3708  -16.6686 H   0  0  0  0  0  0  0  0  0  0  0  0
    4.4920   -2.4914  -17.8393 H   0  0  0  0  0  0  0  0  0  0  0  0
   10.5179   -4.8276  -17.5795 H   0  0  0  0  0  0  0  0  0  0  0  0
    8.8162   -5.3930  -17.4759 H   0  0  0  0  0  0  0  0  0  0  0  0
    9.4236   -4.6454  -18.9921 H   0  0  0  0  0  0  0  0  0  0  0  0
    4.7611    9.4069  -22.9417 H   0  0  0  0  0  0  0  0  0  0  0  0
    4.3889    8.0539  -21.8204 H   0  0  0  0  0  0  0  0  0  0  0  0
    4.2586    9.7530  -21.2523 H   0  0  0  0  0  0  0  0  0  0  0  0
    4.3732    2.6069  -21.4942 H   0  0  0  0  0  0  0  0  0  0  0  0
    3.6148    1.6092  -20.2073 H   0  0  0  0  0  0  0  0  0  0  0  0
    5.2530    6.7894  -16.1364 H   0  0  0  0  0  0  0  0  0  0  0  0
    4.0396    7.9254  -16.8175 H   0  0  0  0  0  0  0  0  0  0  0  0
    4.3308   -5.5429  -17.5187 H   0  0  0  0  0  0  0  0  0  0  0  0
    5.3714   -4.6635  -18.6893 H   0  0  0  0  0  0  0  0  0  0  0  0
    9.1203   -3.2288  -16.2870 H   0  0  0  0  0  0  0  0  0  0  0  0
    9.7277   -2.4812  -17.8032 H   0  0  0  0  0  0  0  0  0  0  0  0
    5.5500   -4.6237  -15.6319 H   0  0  0  0  0  0  0  0  0  0  0  0
    6.7491   -5.2887  -16.7924 H   0  0  0  0  0  0  0  0  0  0  0  0
    7.5400   -1.8754  -18.1122 H   0  0  0  0  0  0  0  0  0  0  0  0
    7.3328   -3.5737  -18.6595 H   0  0  0  0  0  0  0  0  0  0  0  0
    5.2330    4.3522  -17.0996 H   0  0  0  0  0  0  0  0  0  0  0  0
    5.8423    5.2576  -18.5264 H   0  0  0  0  0  0  0  0  0  0  0  0
    6.0560    3.4479  -19.9734 H   0  0  0  0  0  0  0  0  0  0  0  0
    3.4446    3.3649  -18.3759 H   0  0  0  0  0  0  0  0  0  0  0  0
    5.1594    1.2752  -18.1348 H   0  0  0  0  0  0  0  0  0  0  0  0
    3.3570    5.6791  -17.0484 H   0  0  0  0  0  0  0  0  0  0  0  0
    3.6209    6.3279  -18.5236 H   0  0  0  0  0  0  0  0  0  0  0  0
    3.1584    4.0423  -20.5987 H   0  0  0  0  0  0  0  0  0  0  0  0
  1  2  2  0
  1  3  1  0
  2  5  1  0
  3  6  2  0
  4  7  2  0
  4  8  1  0
  5 15  2  0
  6 15  1  0
  7 16  1  0
  8 18  2  0
  9 13  2  0
  9 14  1  0
 10 13  1  0
 10 17  2  0
 11 14  2  0
 11 17  1  0
 12 16  2  0
 12 18  1  0
 13 19  1  0
 14 20  1  0
 15 25  1  0
 16 26  1  0
 17 21  1  0
 18 40  1  0
 19 34  1  0
 19 37  2  0
 20 35  1  0
 20 38  2  0
 22 27  1  0
 23 28  1  0
 24 40  1  0
 25 32  1  0
 26 36  1  0
 27 29  1  0
 28 30  1  0
 29 35  1  0
 30 35  1  0
 31 33  1  0
 31 36  1  0
 32 33  1  0
 32 34  1  0
 33 39  1  0
  1 41  1  0
  2 42  1  0
  3 43  1  0
  4 44  1  0
  5 45  1  0
  6 46  1  0
  7 47  1  0
  8 48  1  0
  9 49  1  0
 10 50  1  0
 11 51  1  0
 12 52  1  0
 21 53  1  0
 21 54  1  0
 21 55  1  0
 22 56  1  0
 22 57  1  0
 22 58  1  0
 23 59  1  0
 23 60  1  0
 23 61  1  0
 24 62  1  0
 24 63  1  0
 24 64  1  0
 25 65  1  0
 25 66  1  0
 26 67  1  0
 26 68  1  0
 27 69  1  0
 27 70  1  0
 28 71  1  0
 28 72  1  0
 29 73  1  0
 29 74  1  0
 30 75  1  0
 30 76  1  0
 31 77  1  0
 31 78  1  0
 32 79  1  6
 33 80  1  1
 34 81  1  0
 36 82  1  0
 36 83  1  0
 39 84  1  0
M  CHG  1  36   1
M  END
>  <OMEGA_C>  (11) 
qz/nQPT4pb+EvavBZF/0QOhyyDxA6K3B+zO+QArFxb8Ag6fBCRkCQUlpBUEGO5PBOGjYQKaUjD9U
36vB9ESiQE4V8r4vbKXBp5LkQDN4+kAtWYzBvGn5QMmPC0FCup3BVybYQADOODwxWIXBWxUGQTKt
zz9tJ33Bl+oCQZFtEr89dmzB3RWvQEqKAUFzb5rBfprrQKZwpD+d8YXBSrnlQNkobL/6O3vBU0ev
QBnNWT8lnKfB6hu6QNJM9kDK9I/B31IMQbq9ND+ENm3Bt+POQNTRCUHybaHBXPbdQFLgD0CaNI7B
Mc3RQK5EEMDqHXrBOM4dQRMgiT/OjV3BlK97QCrtWsCbQI3BVLwXQYn/k8DOJo/BL0GaQL4AEUFk
MK/BgRmSQAJSAEAfwKTBIn+YQN1T5ECkeojBOtCcQGPNk8DekY3BP+IQQV2oT8BPFIvBKg3AQBr2
j8BlBIXBOnLzQH2VO8Aye47BmSWeQL8QnEAMLJDB2RGnQOllOUA8IZzBksKGQOr8eUAvmZfBCzG3
QHwAA0DtaJPBkobVQGVdS8D+hoXBs9SBQP0kwECieI3BcXz0QEXUTUDpXpDBNTe/QCV+I8AUhmnB
hk1nQIqAlECwJaDBXJDGQDZ1EEF01avBzLD8QKmxB8DZUq3BjO8JQRHcWT6eILHB9zC0QHm7I8AD
4KXBVWQSQZz5BkFWdpDB+1/iQLERB0A6ka3B29+CQGWkKb80JaLB097sQAEc8UBKS4TBSvYIQe+r
EUE9/6LBh8W+QCMpfb4n1YrB0cYNQfebJUDtHn7BAQYIQZx8pL/nh2DBTGOOQLghAEGxJJ3B56oW
QSWCxD/9R0/BM5AmQbdyJz4j2ljBAeooQUHz4z94ImXBq3RKQEHUYsACd5PBqONcQF67V8BgWYXB
xL6PQDhzH8DUto7BV0koQZd7msDBoozB/Q4NQaWTrMC1zovB38YWQVanlMDe75fB5FqYQJaCFkGb
iLfBiHGMQNncAEEwkK7BW0aIQGMMHEG6BKrBmvGLQJbXJkAg9KvBillnQIb7zT+GqKHBsRioQKdC
2UBxF4HBXkSBQImc/UBEiobBrpWKQKhfscAyJozBn+KrQJU7lcCng5XBvuwRQVGkTsCwS4LBoKQb
QbPLHsDabI7BnJmxQCv1k8BiHHrBefjXQDM9qcC/VobB/EfxQJsO8L/H5ZDBcKbqQEu4ZMCRRpXB
bXSnQNVEi0AEzIjBzPO6QAY+qEAENpTBosrBQCqqXECWyZ/BDXRcQI5aV0DUAZPByxmlQOQ6oz8f
FJHBitlWQBO7tUAsY4jB1rxnQB9+ykBKMJTBkSJKQO1agUA0yqTB

>  <OMEGA_E>  (11) 
0JsmPg==

>  <OMEGA_NBR>  (11) 
     25539

$$$$
50141644
     RDKit          3D

 83 85  0  0  1  0  0  0  0  0999 V2000
    7.1095   -1.2969  -21.5550 C   0  0  0  0  0  0  0  0  0  0  0  0
    7.5418    0.0230  -21.7940 C   0  0  0  0  0  0  0  0  0  0  0  0
    5.8205   -1.5359  -21.0374 C   0  0  0  0  0  0  0  0  0  0  0  0
    8.1649    8.2990  -18.4345 C   0  0  0  0  0  0  0  0  0  0  0  0
    6.6852    1.1044  -21.5151 C   0  0  0  0  0  0  0  0  0  0  0  0
    4.9692   -0.4564  -20.7410 C   0  0  0  0  0  0  0  0  0  0  0  0
    7.1937    7.7928  -17.5522 C   0  0  0  0  0  0  0  0  0  0  0  0
    7.8012    8.6814  -19.7401 C   0  0  0  0  0  0  0  0  0  0  0  0
    6.7791   -0.0556  -16.8020 C   0  0  0  0  0  0  0  0  0  0  0  0
    8.3873    1.5537  -15.9186 C   0  0  0  0  0  0  0  0  0  0  0  0
    8.1970   -0.6563  -14.9122 C   0  0  0  0  0  0  0  0  0  0  0  0
    5.4867    8.0605  -19.2792 C   0  0  0  0  0  0  0  0  0  0  0  0
    7.3741    1.2246  -16.8453 C   0  0  0  0  0  0  0  0  0  0  0  0
    7.2020   -0.9964  -15.8444 C   0  0  0  0  0  0  0  0  0  0  0  0
    8.7958    0.6211  -14.9386 C   0  0  0  0  0  0  0  0  0  0  0  0
    5.3978    0.8659  -20.9828 C   0  0  0  0  0  0  0  0  0  0  0  0
    5.8573    7.6647  -17.9752 C   0  0  0  0  0  0  0  0  0  0  0  0
    6.4629    8.5740  -20.1748 C   0  0  0  0  0  0  0  0  0  0  0  0
    6.9309    2.2131  -17.8437 C   0  0  0  0  0  0  0  0  0  0  0  0
    6.5782   -2.3233  -15.7717 C   0  0  0  0  0  0  0  0  0  0  0  0
    9.8208    0.9859  -13.9314 C   0  0  0  0  0  0  0  0  0  0  0  0
    3.9155   -3.4245  -17.7046 C   0  0  0  0  0  0  0  0  0  0  0  0
    9.5147   -4.2047  -17.1624 C   0  0  0  0  0  0  0  0  0  0  0  0
    4.7819    9.0564  -21.8493 C   0  0  0  0  0  0  0  0  0  0  0  0
    4.5029    2.0260  -20.6028 C   0  0  0  0  0  0  0  0  0  0  0  0
    4.8251    7.1090  -17.0174 C   0  0  0  0  0  0  0  0  0  0  0  0
    4.8462   -4.6510  -17.7672 C   0  0  0  0  0  0  0  0  0  0  0  0
    8.5431   -4.0513  -18.3455 C   0  0  0  0  0  0  0  0  0  0  0  0
    5.9755   -4.5682  -16.7241 C   0  0  0  0  0  0  0  0  0  0  0  0
    7.4780   -2.9808  -18.0515 C   0  0  0  0  0  0  0  0  0  0  0  0
    4.9517    4.8585  -18.0006 C   0  0  0  0  0  0  0  0  0  0  0  0
    5.1855    2.9035  -19.5321 C   0  0  1  0  0  0  0  0  0  0  0  0
    4.1987    3.9207  -18.9440 C   0  0  2  0  0  0  0  0  0  0  0  0
    5.6981    2.0396  -18.4586 N   0  0  0  0  0  0  0  0  0  0  0  0
    6.7043   -3.2721  -16.8087 N   0  0  0  0  0  0  0  0  0  0  0  0
    4.0881    5.9925  -17.6330 N   0  0  0  0  0  0  0  0  0  0  0  0
   10.1519    0.1529  -13.0449 O   0  0  0  0  0  0  0  0  0  0  0  0
    7.6362    3.1808  -18.1124 O   0  0  0  0  0  0  0  0  0  0  0  0
    5.9881   -2.6025  -14.7336 O   0  0  0  0  0  0  0  0  0  0  0  0
   10.3427    2.1331  -13.9545 O   0  0  0  0  0  0  0  0  0  0  0  0
    3.6180    4.6874  -19.9989 O   0  0  0  0  0  0  0  0  0  0  0  0
    6.1770    8.9814  -21.4721 O   0  0  0  0  0  0  0  0  0  0  0  0
    7.7669   -2.1266  -21.7688 H   0  0  0  0  0  0  0  0  0  0  0  0
    8.5298    0.2046  -22.1908 H   0  0  0  0  0  0  0  0  0  0  0  0
    5.4863   -2.5488  -20.8683 H   0  0  0  0  0  0  0  0  0  0  0  0
    9.1907    8.3945  -18.1104 H   0  0  0  0  0  0  0  0  0  0  0  0
    7.0113    2.1158  -21.7078 H   0  0  0  0  0  0  0  0  0  0  0  0
    3.9881   -0.6394  -20.3285 H   0  0  0  0  0  0  0  0  0  0  0  0
    7.4732    7.5024  -16.5503 H   0  0  0  0  0  0  0  0  0  0  0  0
    8.5539    9.0607  -20.4153 H   0  0  0  0  0  0  0  0  0  0  0  0
    5.9995   -0.3127  -17.5039 H   0  0  0  0  0  0  0  0  0  0  0  0
    8.8543    2.5267  -15.9591 H   0  0  0  0  0  0  0  0  0  0  0  0
    8.5057   -1.3778  -14.1703 H   0  0  0  0  0  0  0  0  0  0  0  0
    4.4581    7.9726  -19.5966 H   0  0  0  0  0  0  0  0  0  0  0  0
    3.1256   -3.5238  -18.4637 H   0  0  0  0  0  0  0  0  0  0  0  0
    3.4584   -3.3619  -16.7060 H   0  0  0  0  0  0  0  0  0  0  0  0
    4.4981   -2.5119  -17.8990 H   0  0  0  0  0  0  0  0  0  0  0  0
   10.2635   -4.9747  -17.3997 H   0  0  0  0  0  0  0  0  0  0  0  0
   10.0209   -3.2459  -16.9772 H   0  0  0  0  0  0  0  0  0  0  0  0
    8.9542   -4.5030  -16.2642 H   0  0  0  0  0  0  0  0  0  0  0  0
    4.7015    9.3897  -22.8945 H   0  0  0  0  0  0  0  0  0  0  0  0
    4.3200    8.0636  -21.7447 H   0  0  0  0  0  0  0  0  0  0  0  0
    4.2633    9.7729  -21.1953 H   0  0  0  0  0  0  0  0  0  0  0  0
    4.3006    2.6355  -21.4959 H   0  0  0  0  0  0  0  0  0  0  0  0
    3.5552    1.6368  -20.2022 H   0  0  0  0  0  0  0  0  0  0  0  0
    5.3319    6.7496  -16.1097 H   0  0  0  0  0  0  0  0  0  0  0  0
    4.1154    7.9057  -16.7500 H   0  0  0  0  0  0  0  0  0  0  0  0
    4.2529   -5.5577  -17.5780 H   0  0  0  0  0  0  0  0  0  0  0  0
    5.2926   -4.7078  -18.7710 H   0  0  0  0  0  0  0  0  0  0  0  0
    9.1106   -3.7573  -19.2408 H   0  0  0  0  0  0  0  0  0  0  0  0
    8.0439   -5.0144  -18.5278 H   0  0  0  0  0  0  0  0  0  0  0  0
    5.5410   -4.6688  -15.7186 H   0  0  0  0  0  0  0  0  0  0  0  0
    6.6857   -5.3895  -16.9006 H   0  0  0  0  0  0  0  0  0  0  0  0
    7.9780   -2.0078  -17.9362 H   0  0  0  0  0  0  0  0  0  0  0  0
    6.7793   -2.9357  -18.8999 H   0  0  0  0  0  0  0  0  0  0  0  0
    5.2398    4.3091  -17.0923 H   0  0  0  0  0  0  0  0  0  0  0  0
    5.8548    5.2349  -18.5034 H   0  0  0  0  0  0  0  0  0  0  0  0
    6.0193    3.4472  -20.0003 H   0  0  0  0  0  0  0  0  0  0  0  0
    3.4212    3.3853  -18.3793 H   0  0  0  0  0  0  0  0  0  0  0  0
    5.1236    1.2805  -18.1524 H   0  0  0  0  0  0  0  0  0  0  0  0
    3.3996    5.6699  -16.9834 H   0  0  0  0  0  0  0  0  0  0  0  0
    3.6355    6.3279  -18.4593 H   0  0  0  0  0  0  0  0  0  0  0  0
    3.1482    4.1099  -20.5892 H   0  0  0  0  0  0  0  0  0  0  0  0
  1  2  2  0
  1  3  1  0
  2  5  1  0
  3  6  2  0
  4  7  2  0
  4  8  1  0
  5 16  2  0
  6 16  1  0
  7 17  1  0
  8 18  2  0
  9 13  2  0
  9 14  1  0
 10 13  1  0
 10 15  2  0
 11 14  2  0
 11 15  1  0
 12 17  2  0
 12 18  1  0
 13 19  1  0
 14 20  1  0
 15 21  1  0
 16 25  1  0
 17 26  1  0
 18 42  1  0
 19 34  1  0
 19 38  2  0
 20 35  1  0
 20 39  2  0
 21 37  1  0
 21 40  2  0
 22 27  1  0
 23 28  1  0
 24 42  1  0
 25 32  1  0
 26 36  1  0
 27 29  1  0
 28 30  1  0
 29 35  1  0
 30 35  1  0
 31 33  1  0
 31 36  1  0
 32 33  1  0
 32 34  1  0
 33 41  1  0
  1 43  1  0
  2 44  1  0
  3 45  1  0
  4 46  1  0
  5 47  1  0
  6 48  1  0
  7 49  1  0
  8 50  1  0
  9 51  1  0
 10 52  1  0
 11 53  1  0
 12 54  1  0
 22 55  1  0
 22 56  1  0
 22 57  1  0
 23 58  1  0
 23 59  1  0
 23 60  1  0
 24 61  1  0
 24 62  1  0
 24 63  1  0
 25 64  1  0
 25 65  1  0
 26 66  1  0
 26 67  1  0
 27 68  1  0
 27 69  1  0
 28 70  1  0
 28 71  1  0
 29 72  1  0
 29 73  1  0
 30 74  1  0
 30 75  1  0
 31 76  1  0
 31 77  1  0
 32 78  1  6
 33 79  1  1
 34 80  1  0
 36 81  1  0
 36 82  1  0
 41 83  1  0
M  CHG  2  36   1  37  -1
M  END
>  <OMEGA_C>  (12) 
4IDjQIwBpr+ZcKzB0VbxQIB7vDwGWq7BzUG6QMKXxL+jTKjBXaMCQaDIBEHDeZPB8+zVQEpdjT/x
HqzBCwSfQMCn6b6J7aXBxjLmQMRe+UDzaozBkqP5QCXnCkGk653BYO7YQFTbY72TaobBgTIGQUjf
xj+fsn7B8CYDQZoBKL+MmG7B05KvQLv3AEHFO5rBB/nrQBbAnD84w4bBkXbmQI0Vf7+Ygn3Bb7sM
Qe7/Hj+SBG/ByrqsQGCoXT/O3KfBU2+7QHdF9UBDzY/BQdDOQPIuCUENZqHBCsrdQAmjDUDvv47B
zoDSQKKwFMAOWXzBHyIdQWlmfD/y5l7BNJd6QA0rW8Dzoo3BITwYQRqNhsCxTInB9QSZQB7nEEFw
y67BiReQQD2qAUB90qTBA2eaQMd840C1I4jBOBSbQK/UlMBJI47Bd7AIQXykgcCkw5LBODe/QNAu
ksAGy4XBvEvvQLrFPsCEaZDBKnSeQOt4m0BJAZDBre+lQCrSOUCyQZzBsVuGQOPsekBqjZfBkFa2
QFKJAkAtq5PBSonWQNJpUcBReIbBZNGCQH/Cv0B0EI3BTm4iQYiIHD7Wt1DB0lv0QEeSS0Ab5pDB
h56/QLSOJsC/vGvBiXslQeCECEB2RV/BDI1nQBz/lUDX/Z/BKKrFQPqzD0HUxqvBxYr4QNsaCMCA
Jq7B7nkIQbV7UT6qhrHBeY+vQA8gI8BQ8qbB/AwTQc5PBkEA4pDB9lzgQCdpB0B+qa3BYTx/QKKx
I7+3oKLBhSTvQNMT8EDqZoTB5dwIQcX4EEGKUqPBA/y/QKoYoL7tB4zBD6sNQVO1IUB1WH/BRBcI
QftbsL92uWLB2KiOQGgf/0DHxZzB+QlIQAiGYcCatZPBGVZdQEopV8DhpYXBM/CPQI/DIMArMY/B
aDckQQcxn8CwMovBs1UgQVW8T8BN0YfBdUQPQZoYkMAEHYLBvHKWQEA8FkEHKLfBRj2KQHsEAUER
9a3B5WyIQKxdHEHqj6nBk56JQDOsKECI96vBAYljQMSB0T8SnqHBBZ+qQKj810Cy4IDB9bCDQKn7
/EAVAIbBIhiIQM/YscCln4zBSV2pQPKllsDvKpbB4cQRQYp3cMAn7ZnBo7MAQTV2oMDdOJTBRlCx
QLVmlcBJf3vB2vDVQPR2rMBbNIfBYEv/QAyAAMA/fY/B1u/YQAPjO8ADM5fBMKynQNbjiUD5vIjB
Nlq7QA2Ep0D/BpTBx53AQMaeXECOAKDBR/VaQI6pWEDWCJPBW/SjQNvooz8cOJHBRJNZQKtvtUAZ
3ofBi6toQDx+ykCTrJPBkXxJQI+Eg0ChtqTB

>  <OMEGA_E>  (12) 
OP2GPg==

>  <OMEGA_NBR>  (12) 
     27207

$$$$
50154205
     RDKit          3D

 81 83  0  0  1  0  0  0  0  0999 V2000
    8.7910    0.7417  -14.7207 C   0  0  0  0  0  0  0  0  0  0  0  0
    8.1253    8.3480  -18.4983 C   0  0  0  0  0  0  0  0  0  0  0  0
    8.4125    1.6548  -15.7267 C   0  0  0  0  0  0  0  0  0  0  0  0
    8.1864   -0.5300  -14.6558 C   0  0  0  0  0  0  0  0  0  0  0  0
    7.1461    7.8537  -17.6186 C   0  0  0  0  0  0  0  0  0  0  0  0
    7.7721    8.7206  -19.8097 C   0  0  0  0  0  0  0  0  0  0  0  0
    6.7986    0.0372  -16.5792 C   0  0  0  0  0  0  0  0  0  0  0  0
    5.4536    8.1032  -19.3622 C   0  0  0  0  0  0  0  0  0  0  0  0
    6.6867    1.0897  -21.4180 C   0  0  0  0  0  0  0  0  0  0  0  0
    4.9733   -0.4836  -20.6679 C   0  0  0  0  0  0  0  0  0  0  0  0
    7.1089   -1.3085  -21.5081 C   0  0  0  0  0  0  0  0  0  0  0  0
    7.4068    1.3078  -16.6617 C   0  0  0  0  0  0  0  0  0  0  0  0
    7.2011   -0.8916  -15.6004 C   0  0  0  0  0  0  0  0  0  0  0  0
    5.8130    7.7240  -18.0507 C   0  0  0  0  0  0  0  0  0  0  0  0
    5.4067    0.8406  -20.8770 C   0  0  0  0  0  0  0  0  0  0  0  0
    6.4366    8.6118  -20.2537 C   0  0  0  0  0  0  0  0  0  0  0  0
    7.5412    0.0150  -21.7207 C   0  0  0  0  0  0  0  0  0  0  0  0
    5.8206   -1.5559  -20.9960 C   0  0  0  0  0  0  0  0  0  0  0  0
    6.9768    2.2527  -17.7166 C   0  0  0  0  0  0  0  0  0  0  0  0
    6.5761   -2.2304  -15.5671 C   0  0  0  0  0  0  0  0  0  0  0  0
    3.9910   -3.4596  -17.9636 C   0  0  0  0  0  0  0  0  0  0  0  0
    9.2863   -4.7357  -17.9088 C   0  0  0  0  0  0  0  0  0  0  0  0
    4.7682    9.0380  -21.9574 C   0  0  0  0  0  0  0  0  0  0  0  0
    4.5151    1.9895  -20.4808 C   0  0  0  0  0  0  0  0  0  0  0  0
    4.7721    7.1879  -17.0923 C   0  0  0  0  0  0  0  0  0  0  0  0
    4.4227   -4.2773  -16.7364 C   0  0  0  0  0  0  0  0  0  0  0  0
    9.0013   -3.3397  -17.3494 C   0  0  0  0  0  0  0  0  0  0  0  0
    5.9541   -4.4123  -16.6544 C   0  0  0  0  0  0  0  0  0  0  0  0
    7.5998   -2.8592  -17.7710 C   0  0  0  0  0  0  0  0  0  0  0  0
    4.9601    4.9039  -17.9886 C   0  0  0  0  0  0  0  0  0  0  0  0
    5.2171    2.8882  -19.4386 C   0  0  1  0  0  0  0  0  0  0  0  0
    4.2216    3.9181  -18.8888 C   0  0  2  0  0  0  0  0  0  0  0  0
    5.7452    2.0536  -18.3414 N   0  0  0  0  0  0  0  0  0  0  0  0
    6.6283   -3.0934  -16.6830 N   0  0  0  0  0  0  0  0  0  0  0  0
    4.0689    6.0332  -17.6729 N   0  0  0  0  0  0  0  0  0  0  0  0
    7.6881    3.2043  -18.0222 O   0  0  0  0  0  0  0  0  0  0  0  0
    6.0125   -2.5798  -14.5357 O   0  0  0  0  0  0  0  0  0  0  0  0
    3.6304    4.6371  -19.9736 O   0  0  0  0  0  0  0  0  0  0  0  0
    6.1575    9.0244  -21.5512 O   0  0  0  0  0  0  0  0  0  0  0  0
    8.7743    0.2536  -22.2202 F   0  0  0  0  0  0  0  0  0  0  0  0
    5.3943   -2.8251  -20.8316 F   0  0  0  0  0  0  0  0  0  0  0  0
    9.5455    1.0173  -13.9987 H   0  0  0  0  0  0  0  0  0  0  0  0
    9.1493    8.4420  -18.1681 H   0  0  0  0  0  0  0  0  0  0  0  0
    8.8908    2.6214  -15.7843 H   0  0  0  0  0  0  0  0  0  0  0  0
    8.4766   -1.2274  -13.8839 H   0  0  0  0  0  0  0  0  0  0  0  0
    7.4170    7.5736  -16.6114 H   0  0  0  0  0  0  0  0  0  0  0  0
    8.5305    9.0934  -20.4822 H   0  0  0  0  0  0  0  0  0  0  0  0
    6.0153   -0.2259  -17.2747 H   0  0  0  0  0  0  0  0  0  0  0  0
    4.4288    8.0065  -19.6890 H   0  0  0  0  0  0  0  0  0  0  0  0
    7.0091    2.1045  -21.5991 H   0  0  0  0  0  0  0  0  0  0  0  0
    3.9930   -0.6741  -20.2567 H   0  0  0  0  0  0  0  0  0  0  0  0
    7.7660   -2.1343  -21.7380 H   0  0  0  0  0  0  0  0  0  0  0  0
    2.8938   -3.3853  -17.9878 H   0  0  0  0  0  0  0  0  0  0  0  0
    4.4255   -2.4509  -17.9032 H   0  0  0  0  0  0  0  0  0  0  0  0
    4.3450   -3.9572  -18.8785 H   0  0  0  0  0  0  0  0  0  0  0  0
   10.2903   -5.0586  -17.5962 H   0  0  0  0  0  0  0  0  0  0  0  0
    8.5374   -5.4442  -17.5253 H   0  0  0  0  0  0  0  0  0  0  0  0
    9.2358   -4.7077  -19.0073 H   0  0  0  0  0  0  0  0  0  0  0  0
    4.6936    9.3826  -22.9994 H   0  0  0  0  0  0  0  0  0  0  0  0
    4.3527    8.0227  -21.8766 H   0  0  0  0  0  0  0  0  0  0  0  0
    4.2021    9.7189  -21.3048 H   0  0  0  0  0  0  0  0  0  0  0  0
    4.2783    2.5877  -21.3730 H   0  0  0  0  0  0  0  0  0  0  0  0
    3.5849    1.5927  -20.0480 H   0  0  0  0  0  0  0  0  0  0  0  0
    5.2668    6.8770  -16.1603 H   0  0  0  0  0  0  0  0  0  0  0  0
    4.0421    7.9811  -16.8729 H   0  0  0  0  0  0  0  0  0  0  0  0
    4.0595   -3.7754  -15.8275 H   0  0  0  0  0  0  0  0  0  0  0  0
    3.9790   -5.2816  -16.8028 H   0  0  0  0  0  0  0  0  0  0  0  0
    9.0563   -3.3728  -16.2513 H   0  0  0  0  0  0  0  0  0  0  0  0
    9.7547   -2.6362  -17.7334 H   0  0  0  0  0  0  0  0  0  0  0  0
    6.2159   -4.9251  -15.7171 H   0  0  0  0  0  0  0  0  0  0  0  0
    6.3046   -5.0093  -17.5092 H   0  0  0  0  0  0  0  0  0  0  0  0
    7.6381   -1.7835  -17.9979 H   0  0  0  0  0  0  0  0  0  0  0  0
    7.2811   -3.4118  -18.6671 H   0  0  0  0  0  0  0  0  0  0  0  0
    5.2587    4.3996  -17.0578 H   0  0  0  0  0  0  0  0  0  0  0  0
    5.8558    5.2761  -18.5076 H   0  0  0  0  0  0  0  0  0  0  0  0
    6.0448    3.4201  -19.9305 H   0  0  0  0  0  0  0  0  0  0  0  0
    3.4502    3.3977  -18.3021 H   0  0  0  0  0  0  0  0  0  0  0  0
    5.1806    1.2919  -18.0236 H   0  0  0  0  0  0  0  0  0  0  0  0
    3.3799    5.7201  -17.0192 H   0  0  0  0  0  0  0  0  0  0  0  0
    3.6190    6.3273  -18.5162 H   0  0  0  0  0  0  0  0  0  0  0  0
    3.1676    4.0315  -20.5407 H   0  0  0  0  0  0  0  0  0  0  0  0
  1  3  2  0
  1  4  1  0
  2  5  2  0
  2  6  1  0
  3 12  1  0
  4 13  2  0
  5 14  1  0
  6 16  2  0
  7 12  2  0
  7 13  1  0
  8 14  2  0
  8 16  1  0
  9 15  2  0
  9 17  1  0
 10 15  1  0
 10 18  2  0
 11 17  2  0
 11 18  1  0
 12 19  1  0
 13 20  1  0
 14 25  1  0
 15 24  1  0
 16 39  1  0
 17 40  1  0
 18 41  1  0
 19 33  1  0
 19 36  2  0
 20 34  1  0
 20 37  2  0
 21 26  1  0
 22 27  1  0
 23 39  1  0
 24 31  1  0
 25 35  1  0
 26 28  1  0
 27 29  1  0
 28 34  1  0
 29 34  1  0
 30 32  1  0
 30 35  1  0
 31 32  1  0
 31 33  1  0
 32 38  1  0
  1 42  1  0
  2 43  1  0
  3 44  1  0
  4 45  1  0
  5 46  1  0
  6 47  1  0
  7 48  1  0
  8 49  1  0
  9 50  1  0
 10 51  1  0
 11 52  1  0
 21 53  1  0
 21 54  1  0
 21 55  1  0
 22 56  1  0
 22 57  1  0
 22 58  1  0
 23 59  1  0
 23 60  1  0
 23 61  1  0
 24 62  1  0
 24 63  1  0
 25 64  1  0
 25 65  1  0
 26 66  1  0
 26 67  1  0
 27 68  1  0
 27 69  1  0
 28 70  1  0
 28 71  1  0
 29 72  1  0
 29 73  1  0
 30 74  1  0
 30 75  1  0
 31 76  1  6
 32 77  1  1
 33 78  1  0
 35 79  1  0
 35 80  1  0
 38 81  1  0
M  CHG  1  35   1
M  END
>  <OMEGA_C>  (13) 
B6gMQZfgPT/Oh2vBWwECQW+RBUGX/JPBfpkGQRnS0z+6oHvBdvsCQRqtB78DfmrBwqzkQHNR+0D7
8ozBC7X4QK+HC0Ezep7B343ZQBhCGD00ooTBKISuQJ+mAUHc5ZrB0vnVQIh8iz8WWKvBZCWfQMmb
977KV6XBcHzjQKl9p7+fEKzB2gTtQHRkpz9DS4XBp2/mQIg/ZL8Ym3nBegS6QAUr90DiZ5DB1gOt
QF4wVz8NBKfBnvjNQM3JCUGaB6LBW1HxQACddTwIxK3BWEK6QJcox7/Q96fBrkHfQPMsEECau43B
B2/SQHW/DsCoEnnBG21/QF5qXcBgtY/B0pQUQd+Kl8BLRY/B0ZSYQJCbEEHPqK/BinuQQLin/j+x
2KPBrLSYQJwD5kD+vIjBxIaNQJTfiMA25IXBLgUQQUG+VcCiy4rB1oe+QLgxjcAgPIXBsTHzQO78
NsADK47BLLmeQMvsnECz6I/BWPKmQHXXOEBEgpvBmxeHQN/BekAuHJfBuNi3QNRtA0BCu5LBTRvU
QLP5RcCydoXBbjSCQPQPwUAnYo3BGQX2QOcTTUCELZDBWGbAQMAaJcAVkmjBiFhoQFhjlED1yZ/B
RgrFQMhjEEHJaKzBV2MMQfDYgT79wrHBu52sQFLONMAsp6bBULoYQbo3gj+t+l/BdmMSQXASB0Er
WJHBokAOQcbFJ0CHjHzBK6AHQQUcnb97JF7BsFftQIha8kAi5ITB03wIQWB+EUGc26PBnH3AQBBb
Z76WMorBuriNQIkaAEEMg53Bz0rgQJKvBkD2yqzBMo1/QGKSLL+qDaLB8IL4QM2XCMBo563BUjQ5
QAWoWMAD54/B952NQBnbHMC5OY/BLgqLQPhBfcA9B5fBL6UkQeHfocABxYzBXJkIQUA3rsC8M4zB
4MUTQbSllsD8DpjBWjKWQCcfFkG+/rfBC0mLQOtcAEE0A6/BkneGQISAG0EycKrB/+eIQAydJUD8
+6rBTG9lQLDcyz9IYqDBRYmoQDgQ3EBQSIHBvViBQNFk/0DM+4bByeeBQJmfccBePX3B/6d+QDwD
qcAzbIbBzOYQQT/bV8CtAoLBUBMcQSe4KMDu3Y3BDunGQImancA2eXvBFr/JQARMoMDjEozBlWv0
QINK5L+v+4/B3f7oQDJbWsBDVpXBCkeoQC3JjEBPdojBbGK7QHnVqEB7D5TB3W7BQDfjWkCXcZ/B
sdBcQHJ0WUCsapLBIcelQEdcpT9vMJDBvlBYQF8Lt0BlJ4jBq51nQB15ykAqIZTBGrpKQB8CgUBI
U6TB

>  <OMEGA_E>  (13) 
IEc9Pg==

>  <OMEGA_NBR>  (13) 
     28840

$$$$
50154310
     RDKit          3D

 88 90  0  0  1  0  0  0  0  0999 V2000
    8.1027    8.3656  -18.4208 C   0  0  0  0  0  0  0  0  0  0  0  0
    7.1389    7.8321  -17.5468 C   0  0  0  0  0  0  0  0  0  0  0  0
    7.7335    8.7629  -19.7203 C   0  0  0  0  0  0  0  0  0  0  0  0
    6.6422    0.0124  -16.6896 C   0  0  0  0  0  0  0  0  0  0  0  0
    8.4522    1.5035  -16.0185 C   0  0  0  0  0  0  0  0  0  0  0  0
    8.1827   -0.6509  -14.9200 C   0  0  0  0  0  0  0  0  0  0  0  0
    5.4314    8.0875  -19.2765 C   0  0  0  0  0  0  0  0  0  0  0  0
    6.7815    1.0710  -21.4061 C   0  0  0  0  0  0  0  0  0  0  0  0
    5.0802   -0.4821  -20.5915 C   0  0  0  0  0  0  0  0  0  0  0  0
    7.2496   -1.3219  -21.3275 C   0  0  0  0  0  0  0  0  0  0  0  0
    7.3307    1.2412  -16.8291 C   0  0  0  0  0  0  0  0  0  0  0  0
    7.0771   -0.9302  -15.7354 C   0  0  0  0  0  0  0  0  0  0  0  0
    5.8059    7.6851  -17.9749 C   0  0  0  0  0  0  0  0  0  0  0  0
    8.8946    0.5450  -15.0933 C   0  0  0  0  0  0  0  0  0  0  0  0
    5.4866    0.8346  -20.8926 C   0  0  0  0  0  0  0  0  0  0  0  0
    6.3992    8.6350  -20.1614 C   0  0  0  0  0  0  0  0  0  0  0  0
    7.6625   -0.0062  -21.6190 C   0  0  0  0  0  0  0  0  0  0  0  0
    5.9573   -1.5587  -20.8175 C   0  0  0  0  0  0  0  0  0  0  0  0
    6.9154    2.2225  -17.8402 C   0  0  0  0  0  0  0  0  0  0  0  0
    6.4590   -2.2529  -15.6466 C   0  0  0  0  0  0  0  0  0  0  0  0
    3.9748   -3.4941  -17.5434 C   0  0  0  0  0  0  0  0  0  0  0  0
    9.6063   -4.6292  -17.6636 C   0  0  0  0  0  0  0  0  0  0  0  0
    4.7418    8.9574  -21.9038 C   0  0  0  0  0  0  0  0  0  0  0  0
   10.1465    0.8009  -14.2951 C   0  0  0  0  0  0  0  0  0  0  0  0
    4.5599    1.9976  -20.5901 C   0  0  0  0  0  0  0  0  0  0  0  0
    4.7771    7.1147  -17.0218 C   0  0  0  0  0  0  0  0  0  0  0  0
    4.9531   -4.6847  -17.5999 C   0  0  0  0  0  0  0  0  0  0  0  0
    9.1290   -3.2402  -17.2252 C   0  0  0  0  0  0  0  0  0  0  0  0
    6.0782   -4.5592  -16.5586 C   0  0  0  0  0  0  0  0  0  0  0  0
    7.6905   -2.9770  -17.7132 C   0  0  0  0  0  0  0  0  0  0  0  0
    4.9098    4.8663  -18.0022 C   0  0  0  0  0  0  0  0  0  0  0  0
    9.8423    1.7263  -13.1174 C   0  0  0  0  0  0  0  0  0  0  0  0
    5.1925    2.9205  -19.5301 C   0  0  1  0  0  0  0  0  0  0  0  0
    4.1914    3.9510  -18.9964 C   0  0  2  0  0  0  0  0  0  0  0  0
    5.6636    2.0949  -18.4156 N   0  0  0  0  0  0  0  0  0  0  0  0
    6.7157   -3.2272  -16.6286 N   0  0  0  0  0  0  0  0  0  0  0  0
    4.0446    6.0035  -17.6520 N   0  0  0  0  0  0  0  0  0  0  0  0
    7.6692    3.1346  -18.1673 O   0  0  0  0  0  0  0  0  0  0  0  0
    5.8530   -2.5340  -14.6187 O   0  0  0  0  0  0  0  0  0  0  0  0
    8.9252    1.0926  -12.2304 O   0  0  0  0  0  0  0  0  0  0  0  0
    3.6914    4.7339  -20.0786 O   0  0  0  0  0  0  0  0  0  0  0  0
    6.1109    9.0721  -21.4496 O   0  0  0  0  0  0  0  0  0  0  0  0
    8.9042    0.2234  -22.1030 F   0  0  0  0  0  0  0  0  0  0  0  0
    5.5578   -2.8198  -20.5430 F   0  0  0  0  0  0  0  0  0  0  0  0
    9.1271    8.4708  -18.0951 H   0  0  0  0  0  0  0  0  0  0  0  0
    7.4213    7.5352  -16.5476 H   0  0  0  0  0  0  0  0  0  0  0  0
    8.4796    9.1699  -20.3866 H   0  0  0  0  0  0  0  0  0  0  0  0
    5.7863   -0.2026  -17.3122 H   0  0  0  0  0  0  0  0  0  0  0  0
    8.9734    2.4451  -16.1091 H   0  0  0  0  0  0  0  0  0  0  0  0
    8.4857   -1.3555  -14.1596 H   0  0  0  0  0  0  0  0  0  0  0  0
    4.4067    7.9787  -19.5998 H   0  0  0  0  0  0  0  0  0  0  0  0
    7.0956    2.0786  -21.6354 H   0  0  0  0  0  0  0  0  0  0  0  0
    4.0953   -0.6640  -20.1873 H   0  0  0  0  0  0  0  0  0  0  0  0
    7.9238   -2.1488  -21.4948 H   0  0  0  0  0  0  0  0  0  0  0  0
    3.1903   -3.6270  -18.3030 H   0  0  0  0  0  0  0  0  0  0  0  0
    3.5143   -3.4451  -16.5456 H   0  0  0  0  0  0  0  0  0  0  0  0
    4.5218   -2.5604  -17.7409 H   0  0  0  0  0  0  0  0  0  0  0  0
   10.6329   -4.7948  -17.3050 H   0  0  0  0  0  0  0  0  0  0  0  0
    8.9416   -5.3960  -17.2391 H   0  0  0  0  0  0  0  0  0  0  0  0
    9.5866   -4.6939  -18.7615 H   0  0  0  0  0  0  0  0  0  0  0  0
    4.6631    9.3387  -22.9326 H   0  0  0  0  0  0  0  0  0  0  0  0
    4.4348    7.9014  -21.8798 H   0  0  0  0  0  0  0  0  0  0  0  0
    4.0863    9.5449  -21.2441 H   0  0  0  0  0  0  0  0  0  0  0  0
   10.5365   -0.1548  -13.9148 H   0  0  0  0  0  0  0  0  0  0  0  0
   10.9001    1.2728  -14.9427 H   0  0  0  0  0  0  0  0  0  0  0  0
    4.3833    2.5708  -21.5121 H   0  0  0  0  0  0  0  0  0  0  0  0
    3.6030    1.6103  -20.2101 H   0  0  0  0  0  0  0  0  0  0  0  0
    5.2862    6.7458  -16.1191 H   0  0  0  0  0  0  0  0  0  0  0  0
    4.0647    7.9053  -16.7437 H   0  0  0  0  0  0  0  0  0  0  0  0
    4.3942   -5.6125  -17.4081 H   0  0  0  0  0  0  0  0  0  0  0  0
    5.4018   -4.7278  -18.6034 H   0  0  0  0  0  0  0  0  0  0  0  0
    9.1540   -3.1801  -16.1271 H   0  0  0  0  0  0  0  0  0  0  0  0
    9.7990   -2.4780  -17.6495 H   0  0  0  0  0  0  0  0  0  0  0  0
    5.6562   -4.7040  -15.5532 H   0  0  0  0  0  0  0  0  0  0  0  0
    6.8365   -5.3320  -16.7528 H   0  0  0  0  0  0  0  0  0  0  0  0
    7.6061   -1.9301  -18.0400 H   0  0  0  0  0  0  0  0  0  0  0  0
    7.4686   -3.6442  -18.5591 H   0  0  0  0  0  0  0  0  0  0  0  0
    5.1510    4.2979  -17.0919 H   0  0  0  0  0  0  0  0  0  0  0  0
    5.8385    5.2413  -18.4572 H   0  0  0  0  0  0  0  0  0  0  0  0
   10.7749    1.9511  -12.5791 H   0  0  0  0  0  0  0  0  0  0  0  0
    9.4008    2.6615  -13.4923 H   0  0  0  0  0  0  0  0  0  0  0  0
    6.0416    3.4517  -19.9848 H   0  0  0  0  0  0  0  0  0  0  0  0
    3.3717    3.4280  -18.4820 H   0  0  0  0  0  0  0  0  0  0  0  0
    5.0452    1.3994  -18.0497 H   0  0  0  0  0  0  0  0  0  0  0  0
    3.3417    5.6846  -17.0163 H   0  0  0  0  0  0  0  0  0  0  0  0
    3.6102    6.3417  -18.4869 H   0  0  0  0  0  0  0  0  0  0  0  0
    8.7391    1.6711  -11.5002 H   0  0  0  0  0  0  0  0  0  0  0  0
    3.2445    4.1694  -20.6984 H   0  0  0  0  0  0  0  0  0  0  0  0
  1  2  2  0
  1  3  1  0
  2 13  1  0
  3 16  2  0
  4 11  2  0
  4 12  1  0
  5 11  1  0
  5 14  2  0
  6 12  2  0
  6 14  1  0
  7 13  2  0
  7 16  1  0
  8 15  2  0
  8 17  1  0
  9 15  1  0
  9 18  2  0
 10 17  2  0
 10 18  1  0
 11 19  1  0
 12 20  1  0
 13 26  1  0
 14 24  1  0
 15 25  1  0
 16 42  1  0
 17 43  1  0
 18 44  1  0
 19 35  1  0
 19 38  2  0
 20 36  1  0
 20 39  2  0
 21 27  1  0
 22 28  1  0
 23 42  1  0
 24 32  1  0
 25 33  1  0
 26 37  1  0
 27 29  1  0
 28 30  1  0
 29 36  1  0
 30 36  1  0
 31 34  1  0
 31 37  1  0
 32 40  1  0
 33 34  1  0
 33 35  1  0
 34 41  1  0
  1 45  1  0
  2 46  1  0
  3 47  1  0
  4 48  1  0
  5 49  1  0
  6 50  1  0
  7 51  1  0
  8 52  1  0
  9 53  1  0
 10 54  1  0
 21 55  1  0
 21 56  1  0
 21 57  1  0
 22 58  1  0
 22 59  1  0
 22 60  1  0
 23 61  1  0
 23 62  1  0
 23 63  1  0
 24 64  1  0
 24 65  1  0
 25 66  1  0
 25 67  1  0
 26 68  1  0
 26 69  1  0
 27 70  1  0
 27 71  1  0
 28 72  1  0
 28 73  1  0
 29 74  1  0
 29 75  1  0
 30 76  1  0
 30 77  1  0
 31 78  1  0
 31 79  1  0
 32 80  1  0
 32 81  1  0
 33 82  1  6
 34 83  1  1
 35 84  1  0
 37 85  1  0
 37 86  1  0
 40 87  1  0
 41 88  1  0
M  CHG  1  37   1
M  END
>  <OMEGA_C>  (14) 
yaQBQZzZBUHhXZPBBHLkQG6g+kDiX4zBjXj3QL40DEEiw53BuYzUQKAmSzxMhIXBIDwHQbNywD/o
JYDBM+wCQdyiJr9NuG7BVc6tQH5mAUFPNprB8QHZQLoWiT+rP6vBF5GiQCvb9r5nu6TB/PznQO0z
qb+knqrB7JTqQAXfnj/1oYbBPHfiQFYebr9AxHvB0Mm5QLPs9UCNzI/BclAOQdiGCz89fnHBmZKv
QGiqVT/0I6fB3sXMQNAoCkGISqHB1DL1QMDrybvO86zB+qG+QISDx79MiqbBMUvdQPE8DkDHuI7B
T7DOQA8wEMBcWHrBk2J+QNeeX8DgWIzBQLMZQWcilMD1To3BbbyXQJtRD0EDO6/BMVgiQT4HTT/C
uGTBfOqRQEmw/z96uKTB6N2YQFur40CTLIjBIICeQArplcCxzIzBWhASQbxfT8AizYnBw4DCQKTk
kcAceITB5xj2QDiHPsCltI3BNh2dQBu5m0B0BJDBJ3odQXv43D/G4FHB5CimQJ3pOkCVPZzB+h+G
QEndfECU+JfBMzy1QP4SBkAZU5PBF+fWQLeKTsBcB4XBH22BQKMcwEBiN43Bd2r1QIacSECeVpHB
L0y7QM0tIsBk5mnBus0OQd3Ziz+4r0PBvz9sQOR7l0AToaDBzozDQDYnEUG3mKvBdHcOQfbLZD7s
0rDBVdmxQNh3NMAJWKTBdAgSQV+IB0HYwpDB/HrtQBAg8UBmYYTBZqwHQfO3EkHRF6PBOim5QDRx
T75gf4rBBpMPQd97HEBY34DBXsUHQfCArb/ajWLB+QONQHJR/0B9zJzByg7jQFgHBUA8Fa3B/AyD
QPn5Kb+nf6HBDpD9QJOGCcBy9avBoC5MQLsgaMCRbJLBnelgQDZ9XMBzXYTB1LKQQObdI8Bq7Y3B
XyAqQf5umcCRcIrBuhAPQUesrMCl6YnBpGIZQXc0lsB/F5bB1zeVQCBrFUEJdrfB3OmNQDXY/EC9
Ca/B3sKCQPK3GEHp86nBs5UoQQx7Hr4so17B+GYuQZProj9CFW/B00OMQByIJEDfGKzB8JZmQHce
zj9grqHBrSipQJrd10AB9IDB0RGCQF34/EAG84XBR52MQGeZs8DCQ4vBTNusQL9Jl8C505TB9XYS
QQiHS8BIBIHB4MgcQWmXHsAiMo3BRf+0QIqHlsAB2njBzcTaQJ+fqsDWBYbBSWXzQLMM97/7UZDB
d/7uQPw6acAKeZTBXNWkQGqIiUAfvIjBm9S6QPa4p0BJqJPBHGYsQWa9+T8LREnB12kWQRpWKkBY
4FfB7VTBQKzoXED24J/BmslXQBFlW0At25PBMXKhQFQgsz/FZZDBB95VQOjntUBNIYjBvw1nQCrv
ykAi5ZPBONMLQWPm1T/eADjB+KVPQHprhUBjlqXBKO4BQe0fBkFHB5TBpSjlQAEP/EAO3YzBDdX3
QPfXC0E/gZ7BuSbWQARtrb0kZobBe8ADQYIgxD8RMn3BfHL/QFcMK7/OHG3BWSquQJ10AUHno5rB
9i3YQPrejT9iM6vBLOChQOqT4b6Ci6TBA97mQMarpL9jrqrBe47pQNi8mD8DjYbBcbnhQPrxgb9w
2HzBu2W6QPMT90BqLZDBawcJQSgdGj+lJW3BkO+uQJYDYD8J+abB/PfMQLW5CUHc56HB5x70QBDT
6TzAB63BrLa9QCiIwr8BdqbBJGDdQB3uC0DgoI7Bs/POQPl3FsBO7HvBuy2AQGALY8AHNozBAycc
QRbCkcCNoI3B62uWQOPEEEGwNa/BgMYWQeP/fj+7j1rBOpmRQHSZAkBhcqTB752ZQKnN5UD+XYjB
qFufQG+bl8B8SY3ByP0SQXsaTcCKH4rBnfrEQGDclMC9YYXBMvj3QN0vQsC7Uo7BoTCdQGW5nEBH
o4/BlfcrQRrAyj8792HBJiGmQHu1PEBh55vBQUOGQJQCf0DIoJfBPuO0QALOBkCvDpPBFrrYQMgR
VMB9wYXBFtSBQG60wUCDEo3Bmvv1QOgNRkA0CpHB8ua6QDTWKcClwmvBvOs3QRwc7z9mR0/BUA5t
QKOYmED4UKDBUjnDQNkQEEG/R6zBHtINQXKcgj7PC7HBieewQAfpMcCkPKTBElkSQR/1B0FgfpHB
r2TuQCFz80AU0oTBv9AHQSHoEUHW/KPBLZa+QKqUsb5pXIzBIjMLQaluIEAiTX3B7wcEQbwFsb97
5WDBB0ONQDVg/0B/IZ3B7UbiQDVmB0CuB63ByYCCQF2PHr8JN6HBmEH8QIpmB8CmHazBGP5LQN4r
asBkBpLBoc9lQDW2YcD2D4TBFGyRQFH2JsDjxo3B6ZAsQXIhlcChkIrBXiMSQUu1q8C2a4rBU1Uc
QTR/k8B7apbBKVqTQIYBFkF2k7fBh1iIQOW8AEG0T67BUISFQJoYHEEd96nB2DsOQZOO3z/i71DB
y/UZQRBd2j1dtVDB3wSMQGfzJ0BHxqvB0NNlQCIK1D/ma6HBBxmqQOPS2kCGF4HBVfqCQEJy/0CO
SobBPqmNQPdrtcBzxIvBgi2sQAUMmMBhe5XBrOASQR7UScA6VYHBoRIdQfFnGcD/U43BlDK5QIMN
m8BeeHrBqxbdQDoKrcAShYfB2JvzQFsbAMDhJ5HBTqPyQJDibsBt/ZTBvwukQOW4ikDCRYjBL2C7
QPQSqEA0KpPByZQ0QTbSWz+AAmzB7S4pQc9uIEDTIWvBFXzBQM9lXkAtgJ/Ba79XQD3EXUA3jJPB
toCgQDyLtz+xCpDB8eJWQJ1PuEA23IfBpIxnQKO8y0DGzpPBOFxFQS5PD0AGLFPB0o5QQKSQhkCO
SqXB

>  <OMEGA_E>  (14) 
gIKIPuA8hz4=

>  <OMEGA_NBR>  (14) 
     33542

$$$$
50209149
     RDKit          3D

 78 80  0  0  1  0  0  0  0  0999 V2000
    6.8261    0.0226  -16.6713 C   0  0  0  0  0  0  0  0  0  0  0  0
    8.3769    1.6467  -15.7122 C   0  0  0  0  0  0  0  0  0  0  0  0
    8.1453   -0.5596  -14.7062 C   0  0  0  0  0  0  0  0  0  0  0  0
    6.8149    1.2892  -21.2856 C   0  0  0  0  0  0  0  0  0  0  0  0
    5.0518   -0.2737  -20.6364 C   0  0  0  0  0  0  0  0  0  0  0  0
    7.2010   -1.1139  -21.4270 C   0  0  0  0  0  0  0  0  0  0  0  0
    7.4236    1.3015  -16.6931 C   0  0  0  0  0  0  0  0  0  0  0  0
    7.2167   -0.9251  -15.7039 C   0  0  0  0  0  0  0  0  0  0  0  0
    8.7098    0.7307  -14.6978 C   0  0  0  0  0  0  0  0  0  0  0  0
    5.5090    1.0494  -20.8045 C   0  0  0  0  0  0  0  0  0  0  0  0
    7.6635    0.2078  -21.5834 C   0  0  0  0  0  0  0  0  0  0  0  0
    5.8928   -1.3529  -20.9611 C   0  0  0  0  0  0  0  0  0  0  0  0
    7.0478    2.2698  -17.7296 C   0  0  0  0  0  0  0  0  0  0  0  0
    6.6178   -2.2739  -15.6804 C   0  0  0  0  0  0  0  0  0  0  0  0
    6.0686    5.8732  -18.2506 C   0  0  0  0  0  0  0  0  0  0  0  0
    4.6856    7.0467  -16.6351 C   0  0  0  0  0  0  0  0  0  0  0  0
    5.8792    7.2365  -17.5743 C   0  0  2  0  0  0  0  0  0  0  0  0
    4.9190    4.9943  -17.7136 C   0  0  2  0  0  0  0  0  0  0  0  0
    9.7264    1.1091  -13.6451 C   0  0  0  0  0  0  0  0  0  0  0  0
    9.2279   -4.4186  -17.1083 C   0  0  0  0  0  0  0  0  0  0  0  0
    3.9395   -3.4719  -17.9673 C   0  0  0  0  0  0  0  0  0  0  0  0
    6.7352    8.7288  -19.2788 C   0  0  0  0  0  0  0  0  0  0  0  0
    4.6126    2.2072  -20.4271 C   0  0  0  0  0  0  0  0  0  0  0  0
    8.9275   -3.0608  -17.7723 C   0  0  0  0  0  0  0  0  0  0  0  0
    4.4084   -4.2898  -16.7515 C   0  0  0  0  0  0  0  0  0  0  0  0
    7.4209   -2.8517  -18.0196 C   0  0  0  0  0  0  0  0  0  0  0  0
    5.9400   -4.4445  -16.7290 C   0  0  0  0  0  0  0  0  0  0  0  0
    4.2676    4.0834  -18.7710 C   0  0  2  0  0  0  0  0  0  0  0  0
    5.2812    3.0824  -19.3466 C   0  0  1  0  0  0  0  0  0  0  0  0
    5.7667    2.2153  -18.2625 N   0  0  0  0  0  0  0  0  0  0  0  0
    6.6149   -3.1274  -16.8045 N   0  0  0  0  0  0  0  0  0  0  0  0
    3.9146    5.9366  -17.2025 N   0  0  0  0  0  0  0  0  0  0  0  0
    7.8629    3.1032  -18.1094 O   0  0  0  0  0  0  0  0  0  0  0  0
    6.1567   -2.6683  -14.6141 O   0  0  0  0  0  0  0  0  0  0  0  0
    3.7205    4.8819  -19.8216 O   0  0  0  0  0  0  0  0  0  0  0  0
    5.5788    8.2533  -18.5539 O   0  0  0  0  0  0  0  0  0  0  0  0
    8.9195    0.4391  -22.0267 F   0  0  0  0  0  0  0  0  0  0  0  0
    5.4430   -2.6194  -20.8294 F   0  0  0  0  0  0  0  0  0  0  0  0
    6.0679   -0.2302  -17.3976 H   0  0  0  0  0  0  0  0  0  0  0  0
    8.8522    2.6161  -15.7401 H   0  0  0  0  0  0  0  0  0  0  0  0
    8.4247   -1.2731  -13.9451 H   0  0  0  0  0  0  0  0  0  0  0  0
    7.1618    2.3025  -21.4249 H   0  0  0  0  0  0  0  0  0  0  0  0
    4.0570   -0.4581  -20.2587 H   0  0  0  0  0  0  0  0  0  0  0  0
    7.8495   -1.9443  -21.6644 H   0  0  0  0  0  0  0  0  0  0  0  0
    6.0008    5.9719  -19.3441 H   0  0  0  0  0  0  0  0  0  0  0  0
    7.0435    5.4406  -17.9813 H   0  0  0  0  0  0  0  0  0  0  0  0
    5.0302    6.7967  -15.6208 H   0  0  0  0  0  0  0  0  0  0  0  0
    4.0747    7.9608  -16.6000 H   0  0  0  0  0  0  0  0  0  0  0  0
    6.7770    7.4952  -16.9937 H   0  0  0  0  0  0  0  0  0  0  0  0
    5.3007    4.3711  -16.8914 H   0  0  0  0  0  0  0  0  0  0  0  0
    9.2121    1.5578  -12.7824 H   0  0  0  0  0  0  0  0  0  0  0  0
   10.2700    0.2096  -13.3204 H   0  0  0  0  0  0  0  0  0  0  0  0
   10.4374    1.8351  -14.0663 H   0  0  0  0  0  0  0  0  0  0  0  0
   10.3122   -4.5197  -16.9534 H   0  0  0  0  0  0  0  0  0  0  0  0
    8.7123   -4.4743  -16.1382 H   0  0  0  0  0  0  0  0  0  0  0  0
    8.8733   -5.2314  -17.7592 H   0  0  0  0  0  0  0  0  0  0  0  0
    2.8433   -3.3830  -17.9494 H   0  0  0  0  0  0  0  0  0  0  0  0
    4.3893   -2.4688  -17.9298 H   0  0  0  0  0  0  0  0  0  0  0  0
    4.2510   -3.9791  -18.8924 H   0  0  0  0  0  0  0  0  0  0  0  0
    6.4248    9.4973  -20.0020 H   0  0  0  0  0  0  0  0  0  0  0  0
    7.4585    9.1615  -18.5720 H   0  0  0  0  0  0  0  0  0  0  0  0
    7.2029    7.8893  -19.8141 H   0  0  0  0  0  0  0  0  0  0  0  0
    4.4189    2.8202  -21.3197 H   0  0  0  0  0  0  0  0  0  0  0  0
    3.6613    1.8158  -20.0376 H   0  0  0  0  0  0  0  0  0  0  0  0
    9.2931   -2.2573  -17.1160 H   0  0  0  0  0  0  0  0  0  0  0  0
    9.4541   -3.0144  -18.7369 H   0  0  0  0  0  0  0  0  0  0  0  0
    4.0877   -3.7783  -15.8320 H   0  0  0  0  0  0  0  0  0  0  0  0
    3.9494   -5.2885  -16.7946 H   0  0  0  0  0  0  0  0  0  0  0  0
    7.2529   -1.8094  -18.3283 H   0  0  0  0  0  0  0  0  0  0  0  0
    7.0954   -3.5290  -18.8229 H   0  0  0  0  0  0  0  0  0  0  0  0
    6.2359   -4.9458  -15.7957 H   0  0  0  0  0  0  0  0  0  0  0  0
    6.2511   -5.0564  -17.5885 H   0  0  0  0  0  0  0  0  0  0  0  0
    3.4627    3.5142  -18.2830 H   0  0  0  0  0  0  0  0  0  0  0  0
    6.1204    3.6334  -19.7960 H   0  0  0  0  0  0  0  0  0  0  0  0
    5.1320    1.5415  -17.8840 H   0  0  0  0  0  0  0  0  0  0  0  0
    3.3530    5.5029  -16.4978 H   0  0  0  0  0  0  0  0  0  0  0  0
    3.3274    6.2601  -17.9444 H   0  0  0  0  0  0  0  0  0  0  0  0
    3.3193    4.3181  -20.4725 H   0  0  0  0  0  0  0  0  0  0  0  0
  1  7  2  0
  1  8  1  0
  2  7  1  0
  2  9  2  0
  3  8  2  0
  3  9  1  0
  4 10  2  0
  4 11  1  0
  5 10  1  0
  5 12  2  0
  6 11  2  0
  6 12  1  0
  7 13  1  0
  8 14  1  0
  9 19  1  0
 10 23  1  0
 11 37  1  0
 12 38  1  0
 13 30  1  0
 13 33  2  0
 14 31  1  0
 14 34  2  0
 15 17  1  0
 15 18  1  0
 16 17  1  0
 16 32  1  0
 17 36  1  0
 18 28  1  0
 18 32  1  0
 20 24  1  0
 21 25  1  0
 22 36  1  0
 23 29  1  0
 24 26  1  0
 25 27  1  0
 26 31  1  0
 27 31  1  0
 28 29  1  0
 28 35  1  0
 29 30  1  0
  1 39  1  0
  2 40  1  0
  3 41  1  0
  4 42  1  0
  5 43  1  0
  6 44  1  0
 15 45  1  0
 15 46  1  0
 16 47  1  0
 16 48  1  0
 17 49  1  1
 18 50  1  1
 19 51  1  0
 19 52  1  0
 19 53  1  0
 20 54  1  0
 20 55  1  0
 20 56  1  0
 21 57  1  0
 21 58  1  0
 21 59  1  0
 22 60  1  0
 22 61  1  0
 22 62  1  0
 23 63  1  0
 23 64  1  0
 24 65  1  0
 24 66  1  0
 25 67  1  0
 25 68  1  0
 26 69  1  0
 26 70  1  0
 27 71  1  0
 27 72  1  0
 28 73  1  1
 29 74  1  6
 30 75  1  0
 32 76  1  0
 32 77  1  0
 35 78  1  0
M  CHG  1  32   1
M  END
>  <OMEGA_C>  (15) 
Zm/aQPwyuTzBXoXB5gcGQZ3F0j8xZXvBLVMCQXlCD7+WTGvBjhPaQCAGpT/4SKrBhqihQFchjL5P
F6XBRm7mQB+Vjr+QaqvBg47tQKiYpj+Ei4XB4+7mQCLTbL8IQ3vBL1sLQSMOOz9fKmvBCkqwQNlS
hj+Qb6bBZjv1QK7MVD7cqqzB1JG8QHgrrb9usKfBvYfhQF5EEUBK1o3BOsXTQC6IEcC+4nrBQjLC
QPDwu0BFAZLBaPCVQDN+4UDCFIXBziK8QAWR50AimIzBjmidQFzRn0BltY3BaJ8bQeP1jT8sUlrB
aaUTQVRljcDO3YjB/CB8QE00XsAXvY/B1obXQDypC0ECO5rBppqTQIxDDUC9aqPBB9cOQZjjQ8Cz
LY7BrhGNQEBGicAQA4bB0HftQLSCNsAbKJDBSRS+QPc4jsD71IXBbJCIQCSrgkAEK5bBcf+oQF1F
RUDAxZrB6oi4QMTGDUCnGZLBa63TQAooSMCSb4bBNol6QD74vUDLnonBfpz7QA2aRkAM4JDBvAPF
QOHEKsCB02nBUBxuQOY4nECskp7BP4WyQKUNBEFcbpTBVbYOQZjN4D6vNrDBtSyuQLujJ8CYoqbB
4ivCQPWza75MLovBb6INQdVtJ0Bm13vBZMsGQf7zor/1Hl/BNy3lQD1cE0AfZqvBrtKBQOSK6r7E
EaLBuS77QOze+L+kUK3BYAbAQH4Zv0CtwJrBdWThQK0ZrkC02Y/BbvegQMZ+2UD+7nnBNWSCQKa+
/kDMzITBGN3YQKjY70AJ84fBhZ+pQHXgi0CUIYfBw2QTQfBlxz/fhEzBC1IkQZOYVj58IFXBc/8m
Qfjk6j9qD2HB2P4kQYqhkMCKoIfBdWULQXMtj8AYG4HB5vgNQV9np8DfEo7BB/g1QNmCWMBGmI/B
S3WMQAgBHsBEcI/BCwiIQF2pfsCtI5fB5JfNQBb1F0EgBKDBBKzuQISVEkFhk5TBK37mQIt1/EBT
g57BgGeNQCV+NEDOjqrBuVJqQDls6D/0TKDBubAUQU14EMB47YjBK0QXQSTsQMA/5ZXBqM6CQDjP
ccDcT33Bz8J8QMc7qcBWW4bBbBfoQAOa579VoJLB1g3jQPTbYcBPlZbBYozHQE5EnsApu3zBvAjI
QMvNocBJtYzBbZ1dQOjnYECpQ5LBRNrDQFOKaEBIXp7BtDmkQBhRxT9kEo/BJ5hWQPcXsECX+4PB
ovNUQBFTyEA3jo/BKHBUQLQtikCux6PB

>  <OMEGA_E>  (15) 
xA6cPg==

>  <OMEGA_NBR>  (15) 
      1591

$$$$
50210640
     RDKit          3D

 73 76  0  0  1  0  0  0  0  0999 V2000
    6.0880    9.7284  -23.1450 C   0  0  0  0  0  0  0  0  0  0  0  0
    7.4013    9.5815  -22.6561 C   0  0  0  0  0  0  0  0  0  0  0  0
    4.9895    9.5568  -22.2799 C   0  0  0  0  0  0  0  0  0  0  0  0
    7.6174    9.2606  -21.3028 C   0  0  0  0  0  0  0  0  0  0  0  0
    5.2025    9.2425  -20.9242 C   0  0  0  0  0  0  0  0  0  0  0  0
    6.9610    1.2824  -21.3323 C   0  0  0  0  0  0  0  0  0  0  0  0
    5.2145   -0.2510  -20.5752 C   0  0  0  0  0  0  0  0  0  0  0  0
    7.3061   -1.1289  -21.4673 C   0  0  0  0  0  0  0  0  0  0  0  0
    6.5222    9.0831  -20.4323 C   0  0  0  0  0  0  0  0  0  0  0  0
    5.6827    1.0626  -20.7814 C   0  0  0  0  0  0  0  0  0  0  0  0
    7.7734    0.1860  -21.6721 C   0  0  0  0  0  0  0  0  0  0  0  0
    6.0252   -1.3462  -20.9200 C   0  0  0  0  0  0  0  0  0  0  0  0
    8.0293   -0.5656  -15.1090 C   0  0  0  0  0  0  0  0  0  0  0  0
    7.2063    2.1574  -17.6271 C   0  0  0  0  0  0  0  0  0  0  0  0
    8.1144    0.9109  -15.5450 C   0  0  0  0  0  0  0  0  0  0  0  0
    6.0545    5.9223  -18.1721 C   0  0  0  0  0  0  0  0  0  0  0  0
    6.8657   -0.3380  -17.1229 C   0  0  0  0  0  0  0  0  0  0  0  0
    4.5624    7.0078  -16.5785 C   0  0  0  0  0  0  0  0  0  0  0  0
    7.8037    0.8598  -17.0357 C   0  0  1  0  0  0  0  0  0  0  0  0
    5.8315    7.2321  -17.4008 C   0  0  2  0  0  0  0  0  0  0  0  0
    4.9418    4.9913  -17.6666 C   0  0  2  0  0  0  0  0  0  0  0  0
    8.6519   -3.6141  -17.5719 C   0  0  0  0  0  0  0  0  0  0  0  0
    4.8214    2.2311  -20.3878 C   0  0  0  0  0  0  0  0  0  0  0  0
    6.7947    8.7883  -18.9733 C   0  0  0  0  0  0  0  0  0  0  0  0
    7.1440   -3.5089  -17.2651 C   0  0  0  0  0  0  0  0  0  0  0  0
    6.8766   -2.6618  -15.9978 C   0  0  0  0  0  0  0  0  0  0  0  0
    4.3844    4.0340  -18.7231 C   0  0  2  0  0  0  0  0  0  0  0  0
    5.4582    3.0630  -19.2462 C   0  0  1  0  0  0  0  0  0  0  0  0
    7.3916   -1.2838  -16.1358 N   0  0  0  0  0  0  0  0  0  0  0  0
    5.9172    2.1532  -18.1689 N   0  0  0  0  0  0  0  0  0  0  0  0
    3.8698    5.8936  -17.2276 N   0  0  0  0  0  0  0  0  0  0  0  0
    8.4510   -1.0141  -14.0494 O   0  0  0  0  0  0  0  0  0  0  0  0
    7.9281    3.1423  -17.7250 O   0  0  0  0  0  0  0  0  0  0  0  0
    3.8353    4.7916  -19.8080 O   0  0  0  0  0  0  0  0  0  0  0  0
    5.6050    8.3133  -18.3126 O   0  0  0  0  0  0  0  0  0  0  0  0
    9.0032    0.3964  -22.1918 F   0  0  0  0  0  0  0  0  0  0  0  0
    5.5756   -2.6048  -20.7176 F   0  0  0  0  0  0  0  0  0  0  0  0
    5.9234    9.9727  -24.1841 H   0  0  0  0  0  0  0  0  0  0  0  0
    8.2425    9.7153  -23.3201 H   0  0  0  0  0  0  0  0  0  0  0  0
    3.9833    9.6664  -22.6569 H   0  0  0  0  0  0  0  0  0  0  0  0
    8.6249    9.1500  -20.9299 H   0  0  0  0  0  0  0  0  0  0  0  0
    4.3602    9.1228  -20.2589 H   0  0  0  0  0  0  0  0  0  0  0  0
    7.3156    2.2898  -21.4931 H   0  0  0  0  0  0  0  0  0  0  0  0
    4.2342   -0.4157  -20.1530 H   0  0  0  0  0  0  0  0  0  0  0  0
    7.9303   -1.9702  -21.7299 H   0  0  0  0  0  0  0  0  0  0  0  0
    7.3731    1.5223  -15.0096 H   0  0  0  0  0  0  0  0  0  0  0  0
    9.1214    1.3161  -15.3669 H   0  0  0  0  0  0  0  0  0  0  0  0
    5.9624    6.0875  -19.2557 H   0  0  0  0  0  0  0  0  0  0  0  0
    7.0461    5.5021  -17.9483 H   0  0  0  0  0  0  0  0  0  0  0  0
    5.8357   -0.0451  -16.8714 H   0  0  0  0  0  0  0  0  0  0  0  0
    6.8863   -0.7761  -18.1317 H   0  0  0  0  0  0  0  0  0  0  0  0
    4.8174    6.7499  -15.5400 H   0  0  0  0  0  0  0  0  0  0  0  0
    3.9332    7.9101  -16.5883 H   0  0  0  0  0  0  0  0  0  0  0  0
    8.7293    0.6232  -17.5810 H   0  0  0  0  0  0  0  0  0  0  0  0
    6.6857    7.4317  -16.7370 H   0  0  0  0  0  0  0  0  0  0  0  0
    5.3186    4.4090  -16.8128 H   0  0  0  0  0  0  0  0  0  0  0  0
    8.8010   -4.2218  -18.4766 H   0  0  0  0  0  0  0  0  0  0  0  0
    9.0640   -2.6073  -17.7346 H   0  0  0  0  0  0  0  0  0  0  0  0
    9.1665   -4.0882  -16.7230 H   0  0  0  0  0  0  0  0  0  0  0  0
    4.6812    2.8802  -21.2647 H   0  0  0  0  0  0  0  0  0  0  0  0
    3.8445    1.8545  -20.0505 H   0  0  0  0  0  0  0  0  0  0  0  0
    7.5777    8.0191  -18.9017 H   0  0  0  0  0  0  0  0  0  0  0  0
    7.1383    9.7086  -18.4783 H   0  0  0  0  0  0  0  0  0  0  0  0
    6.6377   -3.0394  -18.1213 H   0  0  0  0  0  0  0  0  0  0  0  0
    6.7402   -4.5203  -17.1098 H   0  0  0  0  0  0  0  0  0  0  0  0
    5.7917   -2.6197  -15.8209 H   0  0  0  0  0  0  0  0  0  0  0  0
    7.3697   -3.1412  -15.1393 H   0  0  0  0  0  0  0  0  0  0  0  0
    3.5872    3.4375  -18.2555 H   0  0  0  0  0  0  0  0  0  0  0  0
    6.3072    3.6373  -19.6453 H   0  0  0  0  0  0  0  0  0  0  0  0
    5.2607    1.4921  -17.8056 H   0  0  0  0  0  0  0  0  0  0  0  0
    3.2629    5.4313  -16.5811 H   0  0  0  0  0  0  0  0  0  0  0  0
    3.3386    6.2169  -18.0107 H   0  0  0  0  0  0  0  0  0  0  0  0
    3.4888    4.1992  -20.4650 H   0  0  0  0  0  0  0  0  0  0  0  0
  1  2  2  0
  1  3  1  0
  2  4  1  0
  3  5  2  0
  4  9  2  0
  5  9  1  0
  6 10  2  0
  6 11  1  0
  7 10  1  0
  7 12  2  0
  8 11  2  0
  8 12  1  0
  9 24  1  0
 10 23  1  0
 11 36  1  0
 12 37  1  0
 13 15  1  0
 13 29  1  0
 13 32  2  0
 14 19  1  0
 14 30  1  0
 14 33  2  0
 15 19  1  0
 16 20  1  0
 16 21  1  0
 17 19  1  0
 17 29  1  0
 18 20  1  0
 18 31  1  0
 20 35  1  0
 21 27  1  0
 21 31  1  0
 22 25  1  0
 23 28  1  0
 24 35  1  0
 25 26  1  0
 26 29  1  0
 27 28  1  0
 27 34  1  0
 28 30  1  0
  1 38  1  0
  2 39  1  0
  3 40  1  0
  4 41  1  0
  5 42  1  0
  6 43  1  0
  7 44  1  0
  8 45  1  0
 15 46  1  0
 15 47  1  0
 16 48  1  0
 16 49  1  0
 17 50  1  0
 17 51  1  0
 18 52  1  0
 18 53  1  0
 19 54  1  6
 20 55  1  1
 21 56  1  1
 22 57  1  0
 22 58  1  0
 22 59  1  0
 23 60  1  0
 23 61  1  0
 24 62  1  0
 24 63  1  0
 25 64  1  0
 25 65  1  0
 26 66  1  0
 26 67  1  0
 27 68  1  1
 28 69  1  6
 30 70  1  0
 31 71  1  0
 31 72  1  0
 34 73  1  0
M  CHG  1  31   1
M  END
>  <OMEGA_C>  (16) 
RNHCQF+nG0EAKbnBHNfsQAFOGUG2P7XBsamfQJnoGEFPPbLBmcHzQIIrFEEKbKrBFnumQEjhE0G1
ZKfBa8DeQCgnpD+nqKrB59ymQDWIgL4ZmqTB0svpQMF/kL/0vKvBfrXQQHJUEUFYdaPBwNi1QNAC
iD9XQKbBe7/4QLxxPj50YK3Bt87AQF9PrL8vXKfBM3gAQejMEL+FvnHBUZrmQCwTCkBJBI3BhNQB
Qe4taT+BuHjBtb7BQKqDvUCBYJHBr7PbQHkKrb7D+4jBVv+RQEtA4EDRoITBCrj5QAIZXD8YSYjB
yJu6QGBt50DnNIvBGCOeQOq4n0AkVY3BQG4KQSROZ8Axk4zB2kiaQOfJDkA8GqPBDW7ZQBSdDEFg
yZfBlZvkQAOSYMDWHorB/QzcQGhbKsAc93/BWE2MQFoWgUDQyJXBdKmuQKwIREAl+JnB2YfsQOhT
pL8zFoHBhVm9QMvNCUACWpHBVqt3QP+XvEAZ0onBSjcHQS/Ogb9JymDBYrP9QP0aSUC+zI3BoHV1
QGpUmUDgdp7BwluzQBcDBUEcgJLB+AwQQf33yj7FiLHBQWuyQIK0JsCivaXB1Iy9QCWQH0H1eMHB
MuEDQeVxG0GFj7rBKu9+QIqpGkFeQbXBr/8JQWlmEkFscKfBBIeLQCz3EUEsEqLBlRnqQDKMEkD4
8avBRn6HQMrT1L5POaHB/sT9QBYw/L/q1q3Bh/DrQFvawj90J3DBOfERQVt1qD/t3nXBqcu+QGjM
wkDDC5rB+XnhQPIQsEAclo/Bvr26QPegOL2i+IbB0VzcQPKwRr+wDZHBNCiaQAf/10AIpHjBa7l7
QC0f/UDUtITBPKsLQS6MHz/ZpYzB4/DVQHbQ7UB55YXBvjGqQHkWjUCfgIbB9dAMQQEZh8AQ0JPB
JAYRQR3eJsBd4I3B2akSQWXSgsDGyIXBXcyVQM5VOEAZHqrB6wt2QPRe7T9cZ6DB7XzyQGtOAEGl
NpfBvGzkQGdWG0F405PBBGjUQD2FQsB9+JDBba/XQPalkMDl4IjBx1W5QGapJ8CCIn3B+9TrQGcJ
ScDCOnLBA5VlQH//W0A+C5LBstTJQFPKaECSKZ3BpVeoQH3+vj/GcY7BwdJQQHvNrUAapoTBaaxV
QD/xxkDnFZDBHkhfQBxghkBLuKPBOQHCQCkJHEEhOrnB+QKfQHY6GUGxQrLBYR/sQICsGUHbYbXB
vBemQMsjFEGabqfBYkzzQGt2FEHUk6rBxq7fQJzcpD/agKrBMWSnQNTCgb5z0aTBfy3qQHd4j7/k
HazBj2zQQK6TEUFAkaPB3LS2QBLqhz9/KabB8Wv5QKyLSD59d63BNxrBQMIQrL8Tz6fB5Zz/QO7d
N7/fl3LBnuPlQGRSB0CplIzBcwcBQVH0Rj+bc3jBa9zBQKq8vUCRk5HBOuzZQLavyb7sUInB7qOS
QA584EB5sYTBk2/4QBbuST9nLYjBfBK7QG+Z50D4WYvBeJ+eQHTvn0COWo3B75gNQeKRaMAdY4vB
ZhqbQMRrDkDa8aLBCXrZQPrRDEGj65fBmOzpQOa3ZMD+9orBB/vZQIo/McA2LoHBSrGMQCfPgEAG
qZXBZiavQJY3Q0B7upnB9CvpQL/Fr7/KgIHBdei8QJaTCECDEZHBMbR4QPfDvECh0onBv1IHQUP5
nL+1aWLBHSv9QOpTRkAaBY3BFrB1QLt7mECrZ57B6ZizQCgsBUEMlZLBqV0QQYAY0z5GobHBG1Sy
QOSxJsCshqbBwom8QMsAIEFEhsHBhXx9QPX6GkFKOrXB3nQDQRXdG0G/urrBwUWLQIYwEkEsEqLB
J84JQSKrEkGGpafBKEjrQPT/EkAXjavBi/OHQEtd2L7mfqHBkv79QDfA+r/DYq7BNBHqQPDSrT8E
iW/BrBERQTxElz85M3XBKzi+QFELw0BiOprBhcDhQHVXsEAB8o/BPeO4QJ+6t70uf4fBEVjbQM7T
Tr8YdpHBrwmbQNxS2ED1yXjBO/x8QN9Y/UBvwYTB+AoLQeHCDz/gjozB4JrWQHrU7UAyGIbBZxqr
QNmyjUAFgYbBnaISQYLMhsBdb5LBJBIUQes/J8Bl7ovBtqoTQYfMg8AcGITBL7eWQCt1OEAA66nB
2593QAUC7D/1T6DBVpbyQKKHAEErZ5fBxIjkQCeJG0GH9pPB7xbeQPHzRcBoTpLBFEjdQIomk8Af
eIrB/8e2QOh2McBBIoHBwOrlQI3UT8C9rHPBK6RmQCm8W0DB0JHBSavKQJOeZ0CDy5zBBmGnQH//
vT+BPI7BNSBSQAUFrkCVnITBomZWQF8Ex0BJEpDBDWFfQHcvhUCtkqPBwlLmQC0qFkE1WbTBZgUC
QURlFEF36KvBERe6QK7LFEGNQ7LBiI/1QO1vEUEwW6HBdI2rQPniEUHIt6fBbjTVQBdKlD9x1arB
XIWoQFRY3b4GEqHBTiTsQDuPlL8W6KjB0kLJQLNGEEFyQZ/B6JKvQOIMXz/mC6XBymPzQIhkEz7+
xazBlMrGQBlJub8lBKPBTmb6QBIUGb/SLn3BdvbgQP4+GUCmEo/BhlXdQAhkDj5nYIbBZrW4QF/f
vEDepZPBSdUMQaTyuT/hqYLBMoqQQEWh30BbiIXBEvnqQKOlyz8bJ4XBUAy+QCSG20DnXYrB9LaW
QGc+n0AgCI/B7WwjQd6e6T8CRFPBfuyPQNd3/T/9qKLBYTi5QP8AEEEh7ZPBVAAvQeLVgD9bnWTB
ThAhQVimKL68s2zBsHqCQMWvgEAsKpfBYXOkQIDdQkCIYJvBUjoNQYiZmT58uXbBNqK2QLRpF0DN
I5LBMDxuQCOLvECJVYrB/Hj3QKXW5L+uvHjB4Oj7QBZTRkBAeJPBU+hfQAMAmEDfx5/B3CHSQFKs
AUElTo3BwqwLQYBM2T5AWbLBPjzAQJZgLMCOIp/BtH3xQI+TGEF/b7zBsvYSQdFPFUFUi63BUGaj
QHr6FUEEwbjBGiQGQQ8PEEHu4ZrBhqqJQLHiEEGOGKbBSdnaQDgjCkBcx63BHe+LQA2VJr9VipzB
J5wBQRps+L88darBam/iQIbWWL52no7B33y7QMSXBzyhMoTBHGStQEpMzUAL5prBEZLWQGyqq0Dv
b5XBISkWQWccoD8G84nBzg0TQQnWFkAad33BbL2RQLEm3EDNj3nBY4GCQDfZ/kAWlofBPVPaQOIa
AkAEgXzBSibSQOuXy0AAV4TB1VylQLUOjEB5oIjBddItQbdwKUAg7E3BV4UUQRdKD0AR4lnBjqcf
QRxGlj9Il0XBGfaFQB3hHEBjNqrBbIxnQJ77xj/Vnp7BUE67QBJGIEFonJDBzKaXQFq1CkFI5ZPB
3sgyQb9d1T8CLHLBFes9QVkfGj854V3Bl0YqQVLjPb8ChXjBX/4cQT6oT79oDl/BmiFTQJMLXECI
DpPBvTK9QPAXZkDW0p/B9peiQJ8/6j/im43B8c1LQJyUrUAcuYTBHhxHQNfxx0C5/I/Bdh5HQF+c
hEA0v6TB

>  <OMEGA_E>  (16) 
KDQAP+BLAj8QPzg/

>  <OMEGA_NBR>  (16) 
     16792

$$$$
50210644
     RDKit          3D

 77 80  0  0  1  0  0  0  0  0999 V2000
    6.9357    9.5491  -22.8647 C   0  0  0  0  0  0  0  0  0  0  0  0
    5.5405    9.5065  -22.6740 C   0  0  0  0  0  0  0  0  0  0  0  0
    7.8043    9.3277  -21.7774 C   0  0  0  0  0  0  0  0  0  0  0  0
    5.0138    9.2434  -21.3954 C   0  0  0  0  0  0  0  0  0  0  0  0
    7.2801    9.0643  -20.4976 C   0  0  0  0  0  0  0  0  0  0  0  0
    6.8442    1.2964  -21.3324 C   0  0  0  0  0  0  0  0  0  0  0  0
    5.1442   -0.3136  -20.6313 C   0  0  0  0  0  0  0  0  0  0  0  0
    7.2829   -1.0975  -21.4995 C   0  0  0  0  0  0  0  0  0  0  0  0
    5.8788    9.0148  -20.3040 C   0  0  0  0  0  0  0  0  0  0  0  0
    5.5641    1.0200  -20.8059 C   0  0  0  0  0  0  0  0  0  0  0  0
    7.7048    0.2366  -21.6735 C   0  0  0  0  0  0  0  0  0  0  0  0
    6.0013   -1.3708  -20.9802 C   0  0  0  0  0  0  0  0  0  0  0  0
    8.2465   -0.1256  -15.1015 C   0  0  0  0  0  0  0  0  0  0  0  0
    7.1283    2.3166  -17.7646 C   0  0  0  0  0  0  0  0  0  0  0  0
    8.1831    1.3167  -15.6348 C   0  0  0  0  0  0  0  0  0  0  0  0
    5.8712    5.9009  -18.3680 C   0  0  0  0  0  0  0  0  0  0  0  0
    6.9231   -0.1108  -17.0149 C   0  0  0  0  0  0  0  0  0  0  0  0
    4.5128    7.0362  -16.6925 C   0  0  0  0  0  0  0  0  0  0  0  0
    7.7997    1.1176  -17.0940 C   0  0  1  0  0  0  0  0  0  0  0  0
    5.9057    7.0378  -17.3604 C   0  0  2  0  0  0  0  0  0  0  0  0
    4.7998    4.9793  -17.7856 C   0  0  2  0  0  0  0  0  0  0  0  0
    4.5320   -3.5062  -17.3835 C   0  0  0  0  0  0  0  0  0  0  0  0
    4.6394    2.1454  -20.4169 C   0  0  0  0  0  0  0  0  0  0  0  0
    5.2778    8.8244  -18.9279 C   0  0  0  0  0  0  0  0  0  0  0  0
    7.2589   -2.3457  -15.8141 C   0  0  0  0  0  0  0  0  0  0  0  0
    5.6210   -4.5333  -17.7593 C   0  0  0  0  0  0  0  0  0  0  0  0
    7.5614   -3.2320  -17.0393 C   0  0  0  0  0  0  0  0  0  0  0  0
    4.1952    4.0117  -18.8052 C   0  0  2  0  0  0  0  0  0  0  0  0
    5.2715    3.0528  -19.3388 C   0  0  1  0  0  0  0  0  0  0  0  0
    7.6431   -0.9558  -16.0611 N   0  0  0  0  0  0  0  0  0  0  0  0
    5.8164    2.2213  -18.2394 N   0  0  0  0  0  0  0  0  0  0  0  0
    3.7725    5.9035  -17.2851 N   0  0  0  0  0  0  0  0  0  0  0  0
    8.7466   -0.4684  -14.0367 O   0  0  0  0  0  0  0  0  0  0  0  0
    7.8304    3.2865  -18.0149 O   0  0  0  0  0  0  0  0  0  0  0  0
    3.6138    4.7488  -19.8866 O   0  0  0  0  0  0  0  0  0  0  0  0
    6.2456    8.2948  -17.9818 O   0  0  0  0  0  0  0  0  0  0  0  0
    6.8038   -4.4547  -16.9186 O   0  0  0  0  0  0  0  0  0  0  0  0
    8.9351    0.4999  -22.1682 F   0  0  0  0  0  0  0  0  0  0  0  0
    5.5919   -2.6475  -20.8147 F   0  0  0  0  0  0  0  0  0  0  0  0
    7.3400    9.7517  -23.8455 H   0  0  0  0  0  0  0  0  0  0  0  0
    4.8756    9.6756  -23.5081 H   0  0  0  0  0  0  0  0  0  0  0  0
    8.8735    9.3601  -21.9260 H   0  0  0  0  0  0  0  0  0  0  0  0
    3.9441    9.2163  -21.2491 H   0  0  0  0  0  0  0  0  0  0  0  0
    7.9469    8.9001  -19.6640 H   0  0  0  0  0  0  0  0  0  0  0  0
    7.1624    2.3188  -21.4732 H   0  0  0  0  0  0  0  0  0  0  0  0
    4.1639   -0.5231  -20.2294 H   0  0  0  0  0  0  0  0  0  0  0  0
    7.9424   -1.9108  -21.7643 H   0  0  0  0  0  0  0  0  0  0  0  0
    7.4212    1.9037  -15.1010 H   0  0  0  0  0  0  0  0  0  0  0  0
    9.1593    1.8157  -15.5458 H   0  0  0  0  0  0  0  0  0  0  0  0
    5.5850    6.2626  -19.3666 H   0  0  0  0  0  0  0  0  0  0  0  0
    6.8445    5.3920  -18.4274 H   0  0  0  0  0  0  0  0  0  0  0  0
    5.9190    0.1412  -16.6431 H   0  0  0  0  0  0  0  0  0  0  0  0
    6.8384   -0.6020  -17.9955 H   0  0  0  0  0  0  0  0  0  0  0  0
    4.6115    6.9002  -15.6054 H   0  0  0  0  0  0  0  0  0  0  0  0
    3.9905    7.9823  -16.8977 H   0  0  0  0  0  0  0  0  0  0  0  0
    8.7074    0.8655  -17.6619 H   0  0  0  0  0  0  0  0  0  0  0  0
    6.6536    6.7967  -16.5907 H   0  0  0  0  0  0  0  0  0  0  0  0
    5.2295    4.4051  -16.9515 H   0  0  0  0  0  0  0  0  0  0  0  0
    3.6701   -3.6219  -18.0571 H   0  0  0  0  0  0  0  0  0  0  0  0
    4.2109   -3.6757  -16.3451 H   0  0  0  0  0  0  0  0  0  0  0  0
    4.9387   -2.4887  -17.4801 H   0  0  0  0  0  0  0  0  0  0  0  0
    4.4187    2.7507  -21.3085 H   0  0  0  0  0  0  0  0  0  0  0  0
    3.7050    1.7196  -20.0223 H   0  0  0  0  0  0  0  0  0  0  0  0
    4.9162    9.7961  -18.5603 H   0  0  0  0  0  0  0  0  0  0  0  0
    4.4334    8.1234  -19.0027 H   0  0  0  0  0  0  0  0  0  0  0  0
    6.1812   -2.3874  -15.5979 H   0  0  0  0  0  0  0  0  0  0  0  0
    7.8215   -2.7253  -14.9484 H   0  0  0  0  0  0  0  0  0  0  0  0
    5.1945   -5.5431  -17.6673 H   0  0  0  0  0  0  0  0  0  0  0  0
    5.9223   -4.3561  -18.8023 H   0  0  0  0  0  0  0  0  0  0  0  0
    7.2704   -2.7045  -17.9597 H   0  0  0  0  0  0  0  0  0  0  0  0
    8.6363   -3.4633  -17.0735 H   0  0  0  0  0  0  0  0  0  0  0  0
    3.4194    3.4160  -18.3020 H   0  0  0  0  0  0  0  0  0  0  0  0
    6.0806    3.6407  -19.7967 H   0  0  0  0  0  0  0  0  0  0  0  0
    5.2093    1.5519  -17.8113 H   0  0  0  0  0  0  0  0  0  0  0  0
    3.2071    5.4554  -16.5927 H   0  0  0  0  0  0  0  0  0  0  0  0
    3.1922    6.2200  -18.0355 H   0  0  0  0  0  0  0  0  0  0  0  0
    3.2397    4.1448  -20.5172 H   0  0  0  0  0  0  0  0  0  0  0  0
  1  2  2  0
  1  3  1  0
  2  4  1  0
  3  5  2  0
  4  9  2  0
  5  9  1  0
  6 10  2  0
  6 11  1  0
  7 10  1  0
  7 12  2  0
  8 11  2  0
  8 12  1  0
  9 24  1  0
 10 23  1  0
 11 38  1  0
 12 39  1  0
 13 15  1  0
 13 30  1  0
 13 33  2  0
 14 19  1  0
 14 31  1  0
 14 34  2  0
 15 19  1  0
 16 20  1  0
 16 21  1  0
 17 19  1  0
 17 30  1  0
 18 20  1  0
 18 32  1  0
 20 36  1  0
 21 28  1  0
 21 32  1  0
 22 26  1  0
 23 29  1  0
 24 36  1  0
 25 27  1  0
 25 30  1  0
 26 37  1  0
 27 37  1  0
 28 29  1  0
 28 35  1  0
 29 31  1  0
  1 40  1  0
  2 41  1  0
  3 42  1  0
  4 43  1  0
  5 44  1  0
  6 45  1  0
  7 46  1  0
  8 47  1  0
 15 48  1  0
 15 49  1  0
 16 50  1  0
 16 51  1  0
 17 52  1  0
 17 53  1  0
 18 54  1  0
 18 55  1  0
 19 56  1  6
 20 57  1  1
 21 58  1  1
 22 59  1  0
 22 60  1  0
 22 61  1  0
 23 62  1  0
 23 63  1  0
 24 64  1  0
 24 65  1  0
 25 66  1  0
 25 67  1  0
 26 68  1  0
 26 69  1  0
 27 70  1  0
 27 71  1  0
 28 72  1  1
 29 73  1  6
 31 74  1  0
 32 75  1  0
 32 76  1  0
 35 77  1  0
M  CHG  1  32   1
M  END
>  <OMEGA_C>  (17) 
HPHdQDPJGEHx6rbB7UuxQK4aGEFHZLXBqbz5QD8+FUESOK7B63CgQNzkE0G6KavB3vboQFMHEUES
+6PB8QPbQNzvpT/VqKrBX52kQCaRoL7aDKXB3g3pQHB8jL/v/qvB7R68QIA8EEGIbqLBHg2yQFOP
gj+BcqbBW432QB1Ncj5DY63BCAvAQOh0r79916fB1fEDQf2VAL6kn3HBBBvkQI9CFED+HY7BAu4C
QaKJqD8IKHrBk+C7QA3UvECs8ZLBKIrdQIbX4r2RHojBLGmQQKgo4UArioXB7Zb5QNIOjz+MwIjB
tfu8QMU14UAw4orB95eZQEZWn0DcSI7B3QWRQHBlYMBmEYvB8nWUQAFOCUDBVaPBg+OoQK8wDUFo
bJfB7EjoQCIfFsB/Bn3Bm9+zQNIQkcD7Eo7BGffxQMzYTsB8UIjBGz+GQOFfgEAlcZbB4q+oQEZg
Q0DTtZrBAJT0QBSudL8rfYDBVyC6QHwqDkA/6pHBSnFxQLHpvEDqR4rB/fELQajM774ylmDBZZL6
QFRVUkCbHpDB+kdnQIn2l0C/F5/BGtzHQHC3BEHT2o/BG7nZQAmNjsBhWYfBX/YOQaby/z55WLHB
p/CyQAZwKcB1hKbBfeHqQBIHHEGBw77BBQWcQErPGkF/ELzB5/kNQQbDFUF8aK/Bsmt8QB52E0E3
/qnBwEz+QL5mDkHXT53ByjLlQBRnFEAiyavBzT6FQDHqBb+81aHBLSj+QAiV9L9NHa7BaXrtQMSt
8z/enXHBp4wSQW5q6D9su3jBP7iyQEdnyEDe7prBeQbbQOOKrEBPa5PBYmi9QPWWED4TJYXBadTa
QEsaGr/P9o/BP5GTQGzO3ECbr3nB8GN/QK9u/0CHLofBaFELQdiRXT+aS43Bn+rUQEJ+2UDNuYTB
u1enQFz2jECtnIfBh+JqQHnMZ8D6dJDBF8CGQC0+a8DOwoLBFgqeQIJHH8BC14vBLGaNQOMKMEC9
d6rBZR9tQKMc3D+gLaDB6lGdQLK8HEGMe5TBFt6NQHD5AUFzBZjBDszFQA/LGMAUkXnBgkn6QBBs
LsDOLG/BTDmmQLBgscCcVo3BS4O9QFpli8AQa5bBF6foQBMXLcBurY/BIy4KQU6nXcCQlojBftda
QPyfWkBvapLBFZTCQG0BaUCNX57B2bKmQLykxj+GfY7B4kFNQHCSrkDFvYTBX01MQKAKx0CpSJDB
y1ZPQAKihEA2I6TB

>  <OMEGA_E>  (17) 
tJ/8Pg==

>  <OMEGA_NBR>  (17) 
     18374

$$$$
50209151
     RDKit          3D

 88 91  0  0  1  0  0  0  0  0999 V2000
    6.2999    9.7333  -22.9843 C   0  0  0  0  0  0  0  0  0  0  0  0
    7.5974    9.5347  -22.4722 C   0  0  0  0  0  0  0  0  0  0  0  0
    5.1782    9.5717  -22.1475 C   0  0  0  0  0  0  0  0  0  0  0  0
    7.7744    9.1711  -21.1239 C   0  0  0  0  0  0  0  0  0  0  0  0
    5.3522    9.2148  -20.7969 C   0  0  0  0  0  0  0  0  0  0  0  0
    6.8011    0.0024  -16.7355 C   0  0  0  0  0  0  0  0  0  0  0  0
    8.4262    1.5906  -15.8430 C   0  0  0  0  0  0  0  0  0  0  0  0
    8.1624   -0.5951  -14.7998 C   0  0  0  0  0  0  0  0  0  0  0  0
    6.7850    1.2637  -21.3973 C   0  0  0  0  0  0  0  0  0  0  0  0
    5.0022   -0.2530  -20.6943 C   0  0  0  0  0  0  0  0  0  0  0  0
    7.1179   -1.1506  -21.5090 C   0  0  0  0  0  0  0  0  0  0  0  0
    7.4335    1.2629  -16.7916 C   0  0  0  0  0  0  0  0  0  0  0  0
    7.1829   -0.9339  -15.7535 C   0  0  0  0  0  0  0  0  0  0  0  0
    6.6555    9.0029  -20.2821 C   0  0  0  0  0  0  0  0  0  0  0  0
    8.7909    0.6634  -14.8489 C   0  0  0  0  0  0  0  0  0  0  0  0
    5.4836    1.0571  -20.8916 C   0  0  0  0  0  0  0  0  0  0  0  0
    7.6037    0.1595  -21.6985 C   0  0  0  0  0  0  0  0  0  0  0  0
    5.8136   -1.3548  -21.0145 C   0  0  0  0  0  0  0  0  0  0  0  0
    7.0577    2.2292  -17.8307 C   0  0  0  0  0  0  0  0  0  0  0  0
    6.5590   -2.2641  -15.7108 C   0  0  0  0  0  0  0  0  0  0  0  0
    6.0216    5.8063  -18.1194 C   0  0  0  0  0  0  0  0  0  0  0  0
    4.5602    6.8996  -16.5075 C   0  0  0  0  0  0  0  0  0  0  0  0
    5.8420    7.1004  -17.3136 C   0  0  2  0  0  0  0  0  0  0  0  0
    4.8383    4.9200  -17.6980 C   0  0  2  0  0  0  0  0  0  0  0  0
    9.7966    1.0496  -13.7892 C   0  0  0  0  0  0  0  0  0  0  0  0
    3.8570   -3.3268  -17.6075 C   0  0  0  0  0  0  0  0  0  0  0  0
    9.4655   -4.2401  -17.0946 C   0  0  0  0  0  0  0  0  0  0  0  0
    4.6156    2.2353  -20.5179 C   0  0  0  0  0  0  0  0  0  0  0  0
    6.8871    8.6627  -18.8262 C   0  0  0  0  0  0  0  0  0  0  0  0
    4.8337   -4.5017  -17.7962 C   0  0  0  0  0  0  0  0  0  0  0  0
    8.5468   -3.9695  -18.3004 C   0  0  0  0  0  0  0  0  0  0  0  0
    5.9541   -4.4781  -16.7415 C   0  0  0  0  0  0  0  0  0  0  0  0
    7.5208   -2.8718  -17.9753 C   0  0  0  0  0  0  0  0  0  0  0  0
    4.2444    4.0609  -18.8276 C   0  0  2  0  0  0  0  0  0  0  0  0
    5.2773    3.0835  -19.4108 C   0  0  1  0  0  0  0  0  0  0  0  0
    5.7661    2.1978  -18.3418 N   0  0  0  0  0  0  0  0  0  0  0  0
    6.7034   -3.1901  -16.7668 N   0  0  0  0  0  0  0  0  0  0  0  0
    3.8153    5.8561  -17.2152 N   0  0  0  0  0  0  0  0  0  0  0  0
    7.8833    3.0419  -18.2325 O   0  0  0  0  0  0  0  0  0  0  0  0
    5.9443   -2.5624  -14.6927 O   0  0  0  0  0  0  0  0  0  0  0  0
    3.7457    4.9040  -19.8675 O   0  0  0  0  0  0  0  0  0  0  0  0
    5.6687    8.2130  -18.1991 O   0  0  0  0  0  0  0  0  0  0  0  0
    8.8539    0.3576  -22.1738 F   0  0  0  0  0  0  0  0  0  0  0  0
    5.3365   -2.6086  -20.8490 F   0  0  0  0  0  0  0  0  0  0  0  0
    6.1652   10.0097  -24.0196 H   0  0  0  0  0  0  0  0  0  0  0  0
    8.4565    9.6614  -23.1143 H   0  0  0  0  0  0  0  0  0  0  0  0
    4.1842    9.7218  -22.5424 H   0  0  0  0  0  0  0  0  0  0  0  0
    8.7698    9.0206  -20.7330 H   0  0  0  0  0  0  0  0  0  0  0  0
    4.4925    9.1026  -20.1529 H   0  0  0  0  0  0  0  0  0  0  0  0
    6.0249   -0.2446  -17.4447 H   0  0  0  0  0  0  0  0  0  0  0  0
    8.9077    2.5566  -15.8803 H   0  0  0  0  0  0  0  0  0  0  0  0
    8.4317   -1.3023  -14.0293 H   0  0  0  0  0  0  0  0  0  0  0  0
    7.1519    2.2675  -21.5529 H   0  0  0  0  0  0  0  0  0  0  0  0
    4.0102   -0.4099  -20.2971 H   0  0  0  0  0  0  0  0  0  0  0  0
    7.7454   -1.9980  -21.7427 H   0  0  0  0  0  0  0  0  0  0  0  0
    5.9867    6.0132  -19.1992 H   0  0  0  0  0  0  0  0  0  0  0  0
    6.9775    5.3227  -17.8695 H   0  0  0  0  0  0  0  0  0  0  0  0
    4.7965    6.5763  -15.4830 H   0  0  0  0  0  0  0  0  0  0  0  0
    3.9775    7.8320  -16.4726 H   0  0  0  0  0  0  0  0  0  0  0  0
    6.6975    7.2482  -16.6382 H   0  0  0  0  0  0  0  0  0  0  0  0
    5.1594    4.2605  -16.8783 H   0  0  0  0  0  0  0  0  0  0  0  0
    9.2751    1.5177  -12.9413 H   0  0  0  0  0  0  0  0  0  0  0  0
   10.3270    0.1506  -13.4422 H   0  0  0  0  0  0  0  0  0  0  0  0
   10.5202    1.7617  -14.2127 H   0  0  0  0  0  0  0  0  0  0  0  0
    3.0717   -3.3750  -18.3763 H   0  0  0  0  0  0  0  0  0  0  0  0
    3.3976   -3.3886  -16.6100 H   0  0  0  0  0  0  0  0  0  0  0  0
    4.4037   -2.3769  -17.7012 H   0  0  0  0  0  0  0  0  0  0  0  0
   10.1885   -5.0277  -17.3533 H   0  0  0  0  0  0  0  0  0  0  0  0
   10.0057   -3.3188  -16.8313 H   0  0  0  0  0  0  0  0  0  0  0  0
    8.8585   -4.5670  -16.2374 H   0  0  0  0  0  0  0  0  0  0  0  0
    4.4601    2.8635  -21.4074 H   0  0  0  0  0  0  0  0  0  0  0  0
    3.6448    1.8659  -20.1557 H   0  0  0  0  0  0  0  0  0  0  0  0
    7.6416    7.8650  -18.7591 H   0  0  0  0  0  0  0  0  0  0  0  0
    7.2523    9.5578  -18.3015 H   0  0  0  0  0  0  0  0  0  0  0  0
    4.2779   -5.4466  -17.7064 H   0  0  0  0  0  0  0  0  0  0  0  0
    5.2840   -4.4349  -18.7976 H   0  0  0  0  0  0  0  0  0  0  0  0
    9.1602   -3.6471  -19.1547 H   0  0  0  0  0  0  0  0  0  0  0  0
    8.0130   -4.8953  -18.5609 H   0  0  0  0  0  0  0  0  0  0  0  0
    5.5089   -4.6128  -15.7446 H   0  0  0  0  0  0  0  0  0  0  0  0
    6.6536   -5.3023  -16.9451 H   0  0  0  0  0  0  0  0  0  0  0  0
    8.0581   -1.9283  -17.7989 H   0  0  0  0  0  0  0  0  0  0  0  0
    6.8461   -2.7541  -18.8361 H   0  0  0  0  0  0  0  0  0  0  0  0
    3.4172    3.4705  -18.4066 H   0  0  0  0  0  0  0  0  0  0  0  0
    6.1131    3.6534  -19.8429 H   0  0  0  0  0  0  0  0  0  0  0  0
    5.1275    1.5305  -17.9587 H   0  0  0  0  0  0  0  0  0  0  0  0
    3.1814    5.3945  -16.5946 H   0  0  0  0  0  0  0  0  0  0  0  0
    3.3060    6.2464  -17.9821 H   0  0  0  0  0  0  0  0  0  0  0  0
    3.3804    4.3685  -20.5620 H   0  0  0  0  0  0  0  0  0  0  0  0
  1  2  2  0
  1  3  1  0
  2  4  1  0
  3  5  2  0
  4 14  2  0
  5 14  1  0
  6 12  2  0
  6 13  1  0
  7 12  1  0
  7 15  2  0
  8 13  2  0
  8 15  1  0
  9 16  2  0
  9 17  1  0
 10 16  1  0
 10 18  2  0
 11 17  2  0
 11 18  1  0
 12 19  1  0
 13 20  1  0
 14 29  1  0
 15 25  1  0
 16 28  1  0
 17 43  1  0
 18 44  1  0
 19 36  1  0
 19 39  2  0
 20 37  1  0
 20 40  2  0
 21 23  1  0
 21 24  1  0
 22 23  1  0
 22 38  1  0
 23 42  1  0
 24 34  1  0
 24 38  1  0
 26 30  1  0
 27 31  1  0
 28 35  1  0
 29 42  1  0
 30 32  1  0
 31 33  1  0
 32 37  1  0
 33 37  1  0
 34 35  1  0
 34 41  1  0
 35 36  1  0
  1 45  1  0
  2 46  1  0
  3 47  1  0
  4 48  1  0
  5 49  1  0
  6 50  1  0
  7 51  1  0
  8 52  1  0
  9 53  1  0
 10 54  1  0
 11 55  1  0
 21 56  1  0
 21 57  1  0
 22 58  1  0
 22 59  1  0
 23 60  1  1
 24 61  1  1
 25 62  1  0
 25 63  1  0
 25 64  1  0
 26 65  1  0
 26 66  1  0
 26 67  1  0
 27 68  1  0
 27 69  1  0
 27 70  1  0
 28 71  1  0
 28 72  1  0
 29 73  1  0
 29 74  1  0
 30 75  1  0
 30 76  1  0
 31 77  1  0
 31 78  1  0
 32 79  1  0
 32 80  1  0
 33 81  1  0
 33 82  1  0
 34 83  1  1
 35 84  1  6
 36 85  1  0
 38 86  1  0
 38 87  1  0
 41 88  1  0
M  CHG  1  38   1
M  END
>  <OMEGA_C>  (18) 
DpnJQJS7G0Hq37fB1R3zQPONGEEHx7PBf7OlQNolGUEjLrHBicf4QPC8EkHU/ajBTEWrQP1vE0H2
X6bBgKLZQDTwHTtP4oXBrdEGQTKZyz8WfX3BFpkCQaFWGL8ozGzByh7ZQJnAoT/ALavBNRKgQD6J
gb7gjaXBCcbjQDdGk79dEqzBRN/tQKWloT8eVYbBadrlQMoRb79FDnzBffnUQOULEEGxQaLBtqcM
QW/UKT82lW3BeHmvQHhPhz/4IafBn1HzQFFYIz6elq3BvQi6QBZprb/AHajB19jhQACsDkA/pY7B
o+PRQMXmEMCJX3vBJ7HAQHLNuUCV9JDBOe2RQKLJ3EBnD4TBWvG6QDo240BUgorBXtOaQLRwnUCQ
lY3BzL4cQZRahj+JoFzBqdh2QIbpVMA83IzBsHIXQSavh8C5wYjBlrKTQMsOD0CpJKTBC2PcQEWa
CkENnJbB4K2aQJgNkMC4Xo7B5L8IQaQLfsAoZ5LBwYe+QMlMj8CS7oXBgqrwQIvLN8BzzY/Bh9KH
QKDygUDknpbBtt+oQOFXRUBiSZvB7IO4QEqpDEAavJLBnoLWQPUpTMBaIobB0S10QM1ku0CvuInB
PUT8QPWuQkA63JHBEji+QMn9I8A6FWvBK7pvQDPtnECP8J7B7GW1QGJoA0G+l5HBbKkNQf0ctz7+
Y7HBrsSqQIHyJsDMyqbBWEnFQNsnIEEyKMDBp00HQfiUGkEj6rjB1eSFQFOMG0HIVrTBJ1EMQVpU
EEFA3aXBO8KPQA2kEUE7OaHBVszAQCKBer7DjovB64UOQaSfI0CVFX7BT+gGQd2xpr8qeGDBEdzk
QJseEUBUbKzB21OAQDHk0b6BYKLBGNr3QBG+/7/z8K3BMJO/QAdswEAJmJnBUUffQIVTqkCj9I7B
N32ZQABx0kBtunfBu49+QFqf+kDPx4PBBFLWQDPx50AVG4XBxxmlQAxWiEDDBofBnmYUQclCwj94
D0/BcDslQT06Gj5OE1fBkVIoQXGA4T88Z2PBX5ZEQOv/V8ClApPBsXJZQIreWMAu4YTBeOuMQLge
GMATnI3BIwQjQS7joMCY04rBYBcgQVxnVMBspobBdbwNQdYkksBD5oHB1riOQLhDN0BJQqvBs0Rp
QHnU7j/RPqHBnYf0QAWu+0CXEpbBlRLoQPPsGEGCaZLBg+SIQNNKrsCupo3BohapQOvqjcCSYZbB
/I8SQXlpacDfPJnBETUAQeSlnMC1fJTBK0mwQPabk8AI6nvBGurUQFesqcCCj4fBAO4AQZDS9r8b
ZI7BJBPbQPVCMMBDsJbBCLRaQAEdXkDAQJPBHp7DQO/RaUBHvp7BaBSkQB3mwz90q4/BBpxLQIqf
rEC9wYTB8pVTQM/ix0Bx24/BTFhYQCnLi0DxfqTB

>  <OMEGA_E>  (18) 
gHG7PA==

>  <OMEGA_NBR>  (18) 
     20128

$$$$
50210666
     RDKit          3D

 73 76  0  0  1  0  0  0  0  0999 V2000
    6.6496    9.7529  -22.9656 C   0  0  0  0  0  0  0  0  0  0  0  0
    5.2570    9.6485  -22.7783 C   0  0  0  0  0  0  0  0  0  0  0  0
    7.5258    9.5370  -21.8842 C   0  0  0  0  0  0  0  0  0  0  0  0
    4.7400    9.3197  -21.5105 C   0  0  0  0  0  0  0  0  0  0  0  0
    7.0130    9.2058  -20.6171 C   0  0  0  0  0  0  0  0  0  0  0  0
    6.8576    1.3628  -21.4235 C   0  0  0  0  0  0  0  0  0  0  0  0
    5.1860   -0.2434  -20.6472 C   0  0  0  0  0  0  0  0  0  0  0  0
    7.2799   -1.0307  -21.6154 C   0  0  0  0  0  0  0  0  0  0  0  0
    5.6142    9.0855  -20.4276 C   0  0  0  0  0  0  0  0  0  0  0  0
    5.6058    1.0880  -20.8392 C   0  0  0  0  0  0  0  0  0  0  0  0
    7.6963    0.3029  -21.8070 C   0  0  0  0  0  0  0  0  0  0  0  0
    6.0223   -1.3027  -21.0388 C   0  0  0  0  0  0  0  0  0  0  0  0
    7.9840   -0.7811  -15.3312 C   0  0  0  0  0  0  0  0  0  0  0  0
    7.1144    2.0918  -17.6639 C   0  0  0  0  0  0  0  0  0  0  0  0
    7.9902    0.7236  -15.6544 C   0  0  0  0  0  0  0  0  0  0  0  0
    6.0000    5.9184  -18.2758 C   0  0  0  0  0  0  0  0  0  0  0  0
    6.8141   -0.4546  -17.3421 C   0  0  0  0  0  0  0  0  0  0  0  0
    4.5268    7.0807  -16.6942 C   0  0  0  0  0  0  0  0  0  0  0  0
    7.7185    0.7614  -17.1503 C   0  0  1  0  0  0  0  0  0  0  0  0
    5.9025    7.1612  -17.3843 C   0  0  2  0  0  0  0  0  0  0  0  0
    4.8869    5.0138  -17.7321 C   0  0  2  0  0  0  0  0  0  0  0  0
    5.9772   -3.4104  -17.1856 C   0  0  0  0  0  0  0  0  0  0  0  0
    8.4811   -3.2633  -17.5656 C   0  0  0  0  0  0  0  0  0  0  0  0
    4.7225    2.2189  -20.4013 C   0  0  0  0  0  0  0  0  0  0  0  0
    5.0280    8.7148  -19.0827 C   0  0  0  0  0  0  0  0  0  0  0  0
    4.3107    4.0373  -18.7560 C   0  0  2  0  0  0  0  0  0  0  0  0
    7.3231   -2.9072  -16.6081 C   0  0  0  0  0  0  0  0  0  0  0  0
    5.3729    3.0459  -19.2652 C   0  0  1  0  0  0  0  0  0  0  0  0
    7.3005   -1.4428  -16.3680 N   0  0  0  0  0  0  0  0  0  0  0  0
    5.8182    2.1242  -18.1889 N   0  0  0  0  0  0  0  0  0  0  0  0
    3.8288    5.9427  -17.3090 N   0  0  0  0  0  0  0  0  0  0  0  0
    8.5023   -1.2905  -14.3448 O   0  0  0  0  0  0  0  0  0  0  0  0
    7.8271    3.0883  -17.6847 O   0  0  0  0  0  0  0  0  0  0  0  0
    3.7597    4.7799  -19.8520 O   0  0  0  0  0  0  0  0  0  0  0  0
    6.0731    8.3877  -18.1269 O   0  0  0  0  0  0  0  0  0  0  0  0
    8.9017    0.5672  -22.3580 F   0  0  0  0  0  0  0  0  0  0  0  0
    5.6204   -2.5795  -20.8529 F   0  0  0  0  0  0  0  0  0  0  0  0
    7.0457    9.9988  -23.9398 H   0  0  0  0  0  0  0  0  0  0  0  0
    4.5862    9.8207  -23.6070 H   0  0  0  0  0  0  0  0  0  0  0  0
    8.5925    9.6259  -22.0281 H   0  0  0  0  0  0  0  0  0  0  0  0
    3.6721    9.2466  -21.3665 H   0  0  0  0  0  0  0  0  0  0  0  0
    7.6859    9.0432  -19.7881 H   0  0  0  0  0  0  0  0  0  0  0  0
    7.1717    2.3848  -21.5762 H   0  0  0  0  0  0  0  0  0  0  0  0
    4.2245   -0.4491  -20.2005 H   0  0  0  0  0  0  0  0  0  0  0  0
    7.9251   -1.8449  -21.9107 H   0  0  0  0  0  0  0  0  0  0  0  0
    7.2010    1.2496  -15.0971 H   0  0  0  0  0  0  0  0  0  0  0  0
    8.9664    1.1730  -15.4198 H   0  0  0  0  0  0  0  0  0  0  0  0
    5.8215    6.1740  -19.3307 H   0  0  0  0  0  0  0  0  0  0  0  0
    6.9841    5.4372  -18.1766 H   0  0  0  0  0  0  0  0  0  0  0  0
    5.7653   -0.1933  -17.1379 H   0  0  0  0  0  0  0  0  0  0  0  0
    6.9020   -0.8449  -18.3667 H   0  0  0  0  0  0  0  0  0  0  0  0
    4.6506    6.9143  -15.6140 H   0  0  0  0  0  0  0  0  0  0  0  0
    3.9617    8.0098  -16.8597 H   0  0  0  0  0  0  0  0  0  0  0  0
    8.6635    0.5824  -17.6840 H   0  0  0  0  0  0  0  0  0  0  0  0
    6.6798    7.0914  -16.6090 H   0  0  0  0  0  0  0  0  0  0  0  0
    5.2664    4.4519  -16.8659 H   0  0  0  0  0  0  0  0  0  0  0  0
    5.1613   -3.1508  -16.4950 H   0  0  0  0  0  0  0  0  0  0  0  0
    5.7965   -2.9356  -18.1613 H   0  0  0  0  0  0  0  0  0  0  0  0
    6.0176   -4.5025  -17.3111 H   0  0  0  0  0  0  0  0  0  0  0  0
    9.4304   -2.9008  -17.1445 H   0  0  0  0  0  0  0  0  0  0  0  0
    8.5293   -4.3549  -17.6924 H   0  0  0  0  0  0  0  0  0  0  0  0
    8.3082   -2.7880  -18.5425 H   0  0  0  0  0  0  0  0  0  0  0  0
    4.5360    2.8792  -21.2611 H   0  0  0  0  0  0  0  0  0  0  0  0
    3.7681    1.8072  -20.0413 H   0  0  0  0  0  0  0  0  0  0  0  0
    4.4440    9.5645  -18.6992 H   0  0  0  0  0  0  0  0  0  0  0  0
    4.3689    7.8429  -19.2063 H   0  0  0  0  0  0  0  0  0  0  0  0
    3.5120    3.4597  -18.2676 H   0  0  0  0  0  0  0  0  0  0  0  0
    7.4985   -3.4223  -15.6521 H   0  0  0  0  0  0  0  0  0  0  0  0
    6.2317    3.6037  -19.6666 H   0  0  0  0  0  0  0  0  0  0  0  0
    5.1469    1.4844  -17.8148 H   0  0  0  0  0  0  0  0  0  0  0  0
    3.2237    5.5038  -16.6447 H   0  0  0  0  0  0  0  0  0  0  0  0
    3.2939    6.2457  -18.0977 H   0  0  0  0  0  0  0  0  0  0  0  0
    3.3992    4.1787  -20.4931 H   0  0  0  0  0  0  0  0  0  0  0  0
  1  2  2  0
  1  3  1  0
  2  4  1  0
  3  5  2  0
  4  9  2  0
  5  9  1  0
  6 10  2  0
  6 11  1  0
  7 10  1  0
  7 12  2  0
  8 11  2  0
  8 12  1  0
  9 25  1  0
 10 24  1  0
 11 36  1  0
 12 37  1  0
 13 15  1  0
 13 29  1  0
 13 32  2  0
 14 19  1  0
 14 30  1  0
 14 33  2  0
 15 19  1  0
 16 20  1  0
 16 21  1  0
 17 19  1  0
 17 29  1  0
 18 20  1  0
 18 31  1  0
 20 35  1  0
 21 26  1  0
 21 31  1  0
 22 27  1  0
 23 27  1  0
 24 28  1  0
 25 35  1  0
 26 28  1  0
 26 34  1  0
 27 29  1  0
 28 30  1  0
  1 38  1  0
  2 39  1  0
  3 40  1  0
  4 41  1  0
  5 42  1  0
  6 43  1  0
  7 44  1  0
  8 45  1  0
 15 46  1  0
 15 47  1  0
 16 48  1  0
 16 49  1  0
 17 50  1  0
 17 51  1  0
 18 52  1  0
 18 53  1  0
 19 54  1  6
 20 55  1  1
 21 56  1  1
 22 57  1  0
 22 58  1  0
 22 59  1  0
 23 60  1  0
 23 61  1  0
 23 62  1  0
 24 63  1  0
 24 64  1  0
 25 65  1  0
 25 66  1  0
 26 67  1  1
 27 68  1  0
 28 69  1  6
 30 70  1  0
 31 71  1  0
 31 72  1  0
 34 73  1  0
M  CHG  1  31   1
M  END
>  <OMEGA_C>  (19) 
1cnUQNULHEGGubfBhjmoQExgGkHdObbBotPwQJSXGEHfEq/BG66XQHwdFUF6FazBmmrgQPtKE0HG
76TBk3HbQAFxrj9pY6vBifOlQCpBeb6BLaXBlPToQOjtg79K7KzBaaezQAdeEUHHa6PBT2KzQBtD
iz/AtqbBM0j2QHkamz7WdK7BxbbAQJW9pr9oT6jBl3z/QFj2R7/LTHXBM6njQKjfBUCZT43Bjq//
QNZAOT9ceHrB4v+/QMpjvUDsNJLBOw3aQIW96L6GvIrBituQQPWU4kDFjYXBkv32QObnQj+/M4nB
l+G8QEQo5UACE4vBpGGcQNxwoEBx243B8kS/QPhDWsAafInBZ7IHQZfZUMBmhozB9B6XQB0DDkDh
NaPBceWgQO1vC0FJqZjB6vCJQLMxgUA9DJbByFbqQMMOOsBg3YTBa+6rQHPwQkAMH5rBDp7pQK2s
uL++8YLB5y66QNzyB0DhgpHBrgp1QLcqvkDNeIrBigkIQf0tpb8nhGXBOHf6QDWmRUBUeo3BBZ9w
QEr1mEDy0J7BfFbCQAA0BkH1A5HBhG0OQRwzET8f3bLBV9qzQH8WJcDV0qbBwnbhQAX7H0GnhL/B
VcKSQI0hHUEX27zB63oJQYoDGkGWObDBdQRrQBLyE0GK7qrBFPP1QMuwEEEbTp7BOX7lQNCgGEAW
nKzBuy6HQAnz5b6hmqHBfJr9QBIk7L8TSa/BZm7mQEnznz/njXHBX3YPQewllj9at3bBtEm6QFGR
xUBgpZrB7X3fQCj9rUCxaZHBJX24QJTvRb5yGonBKd3cQEJMWL8C75LBDtKUQLRB3UDH0nnBr4x9
QD0oAEGd4IbB050KQW0bFT+9eI3B9cDVQNzs4kBT34TBGIaoQCF2jkBt7YbBRSmlQPOmScC19YPB
Kn25QMngO8BGSpHBVpDAQCsUkMA3fYrB/+IWQU+nOcDxJ4nBIXgIQT9bi8D1iY3Bi+4EQfFuMsAE
V5TBwSaRQPhEOEC8FqrB+ChxQBhT5z+WVKDBSTWOQAcIGUHol5XBB86LQOX4+kCKppnBP8VgQO1q
XUAMJJLBVPPvQPsGW8Aeb3rBV2rHQI+jZkBEVZ3BdbOkQF//vT/FhI7BaVFOQC0fsEBdKIXB5c9S
QM7cx0AwyJDBF41ZQIS3hUDs8aPB

>  <OMEGA_E>  (19) 
rN0UPw==

>  <OMEGA_NBR>  (19) 
     21646

$$$$
50210655
     RDKit          3D

 70 73  0  0  1  0  0  0  0  0999 V2000
    7.1617    9.6123  -22.6866 C   0  0  0  0  0  0  0  0  0  0  0  0
    5.7589    9.5871  -22.5587 C   0  0  0  0  0  0  0  0  0  0  0  0
    7.9783    9.3285  -21.5739 C   0  0  0  0  0  0  0  0  0  0  0  0
    5.1723    9.2737  -21.3185 C   0  0  0  0  0  0  0  0  0  0  0  0
    7.3946    9.0211  -20.3311 C   0  0  0  0  0  0  0  0  0  0  0  0
    6.7559    1.3433  -21.4092 C   0  0  0  0  0  0  0  0  0  0  0  0
    5.2960   -0.3258  -20.3832 C   0  0  0  0  0  0  0  0  0  0  0  0
    7.4704   -0.9848  -21.2739 C   0  0  0  0  0  0  0  0  0  0  0  0
    5.9856    8.9839  -20.2026 C   0  0  0  0  0  0  0  0  0  0  0  0
    5.5384    1.0073  -20.7804 C   0  0  0  0  0  0  0  0  0  0  0  0
    7.7214    0.3497  -21.6517 C   0  0  0  0  0  0  0  0  0  0  0  0
    6.2593   -1.3216  -20.6360 C   0  0  0  0  0  0  0  0  0  0  0  0
    8.1629   -0.5579  -15.5888 C   0  0  0  0  0  0  0  0  0  0  0  0
    6.9640    2.1571  -17.8989 C   0  0  0  0  0  0  0  0  0  0  0  0
    7.4384   -0.1391  -16.8721 C   0  0  0  0  0  0  0  0  0  0  0  0
    5.8814    5.7589  -18.2102 C   0  0  0  0  0  0  0  0  0  0  0  0
    8.4754    1.7555  -15.9049 C   0  0  0  0  0  0  0  0  0  0  0  0
    4.4473    7.0019  -16.6600 C   0  0  0  0  0  0  0  0  0  0  0  0
    7.2256    1.3476  -16.6407 C   0  0  1  0  0  0  0  0  0  0  0  0
    5.8734    6.9458  -17.2485 C   0  0  2  0  0  0  0  0  0  0  0  0
    4.6821    4.9281  -17.7495 C   0  0  2  0  0  0  0  0  0  0  0  0
   10.7149    1.6851  -13.9812 C   0  0  0  0  0  0  0  0  0  0  0  0
    4.5422    2.0970  -20.4393 C   0  0  0  0  0  0  0  0  0  0  0  0
    5.3207    8.7018  -18.8760 C   0  0  0  0  0  0  0  0  0  0  0  0
    9.5594    0.6751  -13.8315 C   0  0  0  0  0  0  0  0  0  0  0  0
    4.0889    4.0264  -18.8498 C   0  0  2  0  0  0  0  0  0  0  0  0
    5.1490    3.0554  -19.3961 C   0  0  1  0  0  0  0  0  0  0  0  0
    8.7779    0.5950  -15.0690 N   0  0  0  0  0  0  0  0  0  0  0  0
    5.6413    2.2608  -18.2742 N   0  0  0  0  0  0  0  0  0  0  0  0
    3.6862    5.9163  -17.3072 N   0  0  0  0  0  0  0  0  0  0  0  0
    8.1839   -1.6895  -15.1193 O   0  0  0  0  0  0  0  0  0  0  0  0
    7.8550    2.7875  -18.4616 O   0  0  0  0  0  0  0  0  0  0  0  0
    3.5720    4.8254  -19.9129 O   0  0  0  0  0  0  0  0  0  0  0  0
    6.2618    8.1726  -17.9037 O   0  0  0  0  0  0  0  0  0  0  0  0
    8.8928    0.6800  -22.2401 F   0  0  0  0  0  0  0  0  0  0  0  0
    6.0283   -2.5977  -20.2525 F   0  0  0  0  0  0  0  0  0  0  0  0
    7.6120    9.8494  -23.6392 H   0  0  0  0  0  0  0  0  0  0  0  0
    5.1344    9.8082  -23.4116 H   0  0  0  0  0  0  0  0  0  0  0  0
    9.0534    9.3470  -21.6751 H   0  0  0  0  0  0  0  0  0  0  0  0
    4.0969    9.2549  -21.2207 H   0  0  0  0  0  0  0  0  0  0  0  0
    8.0210    8.8138  -19.4761 H   0  0  0  0  0  0  0  0  0  0  0  0
    6.9467    2.3644  -21.7046 H   0  0  0  0  0  0  0  0  0  0  0  0
    4.3723   -0.5817  -19.8857 H   0  0  0  0  0  0  0  0  0  0  0  0
    8.2063   -1.7497  -21.4732 H   0  0  0  0  0  0  0  0  0  0  0  0
    8.0610   -0.3207  -17.7605 H   0  0  0  0  0  0  0  0  0  0  0  0
    6.4802   -0.6682  -16.9814 H   0  0  0  0  0  0  0  0  0  0  0  0
    5.7536    6.0931  -19.2504 H   0  0  0  0  0  0  0  0  0  0  0  0
    6.8160    5.1856  -18.1215 H   0  0  0  0  0  0  0  0  0  0  0  0
    9.2968    1.9575  -16.6082 H   0  0  0  0  0  0  0  0  0  0  0  0
    8.2939    2.6475  -15.2873 H   0  0  0  0  0  0  0  0  0  0  0  0
    4.4788    6.8476  -15.5713 H   0  0  0  0  0  0  0  0  0  0  0  0
    3.9834    7.9748  -16.8792 H   0  0  0  0  0  0  0  0  0  0  0  0
    6.3669    1.4725  -15.9646 H   0  0  0  0  0  0  0  0  0  0  0  0
    6.5742    6.7312  -16.4282 H   0  0  0  0  0  0  0  0  0  0  0  0
    4.9866    4.2994  -16.8998 H   0  0  0  0  0  0  0  0  0  0  0  0
   11.2875    1.7296  -13.0431 H   0  0  0  0  0  0  0  0  0  0  0  0
   11.3768    1.3662  -14.7999 H   0  0  0  0  0  0  0  0  0  0  0  0
   10.3047    2.6803  -14.2078 H   0  0  0  0  0  0  0  0  0  0  0  0
    4.2921    2.6606  -21.3503 H   0  0  0  0  0  0  0  0  0  0  0  0
    3.6295    1.6410  -20.0281 H   0  0  0  0  0  0  0  0  0  0  0  0
    4.8934    9.6372  -18.4856 H   0  0  0  0  0  0  0  0  0  0  0  0
    4.5164    7.9673  -19.0297 H   0  0  0  0  0  0  0  0  0  0  0  0
    9.9747   -0.3173  -13.6019 H   0  0  0  0  0  0  0  0  0  0  0  0
    8.9027    0.9968  -13.0098 H   0  0  0  0  0  0  0  0  0  0  0  0
    3.2768    3.4327  -18.4049 H   0  0  0  0  0  0  0  0  0  0  0  0
    5.9691    3.6266  -19.8557 H   0  0  0  0  0  0  0  0  0  0  0  0
    4.9677    1.7532  -17.7370 H   0  0  0  0  0  0  0  0  0  0  0  0
    3.0510    5.5014  -16.6558 H   0  0  0  0  0  0  0  0  0  0  0  0
    3.1759    6.2697  -18.0913 H   0  0  0  0  0  0  0  0  0  0  0  0
    3.2089    4.2615  -20.5857 H   0  0  0  0  0  0  0  0  0  0  0  0
  1  2  2  0
  1  3  1  0
  2  4  1  0
  3  5  2  0
  4  9  2  0
  5  9  1  0
  6 10  2  0
  6 11  1  0
  7 10  1  0
  7 12  2  0
  8 11  2  0
  8 12  1  0
  9 24  1  0
 10 23  1  0
 11 35  1  0
 12 36  1  0
 13 15  1  0
 13 28  1  0
 13 31  2  0
 14 19  1  0
 14 29  1  0
 14 32  2  0
 15 19  1  0
 16 20  1  0
 16 21  1  0
 17 19  1  0
 17 28  1  0
 18 20  1  0
 18 30  1  0
 20 34  1  0
 21 26  1  0
 21 30  1  0
 22 25  1  0
 23 27  1  0
 24 34  1  0
 25 28  1  0
 26 27  1  0
 26 33  1  0
 27 29  1  0
  1 37  1  0
  2 38  1  0
  3 39  1  0
  4 40  1  0
  5 41  1  0
  6 42  1  0
  7 43  1  0
  8 44  1  0
 15 45  1  0
 15 46  1  0
 16 47  1  0
 16 48  1  0
 17 49  1  0
 17 50  1  0
 18 51  1  0
 18 52  1  0
 19 53  1  1
 20 54  1  1
 21 55  1  1
 22 56  1  0
 22 57  1  0
 22 58  1  0
 23 59  1  0
 23 60  1  0
 24 61  1  0
 24 62  1  0
 25 63  1  0
 25 64  1  0
 26 65  1  1
 27 66  1  6
 29 67  1  0
 30 68  1  0
 30 69  1  0
 33 70  1  0
M  CHG  1  30   1
M  END
>  <OMEGA_C>  (20) 
8SzlQM7LGUFBfrXBTEm4QNZkGUEzeLTBGE7/QJJBFUFWl6zBVYOlQA5hFEFIjKrBNaDsQIdWEEEN
pqLBQzDYQMLvqz/2RavBLnmpQHrLpr7HEKPBHA3vQJkafL/ZMKrBF4q/QDG+D0H6nqHBzDqxQFLv
gD85PqbByRX3QJoGsz6fNq3BE0zIQFopqb92FqXBZZsCQWnSDr+Sa3nB6djeQGYNCkAFMY/Bdgfu
QAx3Dr4C+obBlDS8QPlIuEB+rpHBWpsHQbq14D9Qen7BnlCOQDQP4EChR4XBXjjnQK5/rD8ZIIXB
SvO7QDNE3kD+/InB69OVQJeynUD8/o3BLnArQSSx1z/1sl/BclmRQJc1BkC4g6PBX0OqQIg6C0EN
ApfBZfMYQWfQLD/aTV3BotiCQJ7YgEBZzJbB7sSkQPSKQ0BPK5vBNnIMQZVTGD+LGnHBZoW0QAmx
EECJMZLBl+prQFBSvUA5dYrBVPECQdRA2L/U6HHBJFz7QANmMkB1sZPBZpxkQGRpmkCeTZ/BdmDI
QOXCAkHOOo/BuEgOQYETLj/R67HBuefAQOtAJsAaBaLBkZXzQDCXHUElHb3Bw0ykQEvuHEHwSrvB
odoQQTyNFUGFZq3BrxmDQCsUFEHuw6nBAFYAQVAFDUEOz5vBMEveQEBSF0D6oq3BeemLQKHqFL/m
FZ/B2kwDQSv2378TyavB/vkAQdA0pL6UFY7BDl7PQM8PK78C2ofBhB24QJz6wkDKAJrBghzaQCLw
pUDO+JDBib8UQRuP+j+C3YTBwbMEQetwKUCfmHTBkVKPQIsf20ALJHnBSu9+QMQx/0CNCIfBy73L
QEZ8vD8wb3/B2V/SQEhm10ADbYPB9pGfQFWUiUC4MofBw5k0QQFj3T9fsFDBMQc2QeTerj88zGzB
MOAkQeiJK0AoU2PB1ViJQDZHKkBdzarBmEloQJUM0j+cOaDBjZacQO0xGkGJ4pPBk4aQQAz0/kDL
PJjBdpgfQbF2or4/oVnBdXEOQYAufz8qKFDBCLdRQCKyW0AuPZPBHQO/QMIZaEBq2J7B/vaeQHpo
4D9t5Y3B6kNDQH4LsEABP4XBwUJLQK2hyED0upDBxV5NQPBdiEB/r6TBSu3qQIPZG0ERarTB24wA
QUyTGkGqoarBGJW+QMvRF0FBxLTBNhjrQDcjFUG6NqHBdX2oQN0pEkHAWqvB8aXVQIB2mj8UPavB
lU+jQDQL0L4UraPBIIvnQJCBlb/07arBfsy+QF90EEHwkaHBNAauQIlqbD+9TKbBi3LyQGSOJT4Q
f63BgPq/QCayub/JAqbBBBkTQeb6wD+3qXDBF0/lQBZjFUC3fpDBfK4RQTC1AEB9u4PBiaK8QE4B
uEAQqpHBThHeQMqtqj+7uHvBmnyNQAaD3kCISIXBa0H5QIBAuD9J6IfBHcK6QB5t3kAlG4rBhgCX
QB5FnEDF+Y3BiRn6QKNbj79CbVzBe8SPQAHpAkBkVqPB6timQFxZCkHjgZfBhw30QOyouz7dF1fB
wsiDQNv4fkBvv5bBsxmlQH4QQUAgXpvBgez8QHP7lD/QHGrBJa+5QAyoEEChm5LBv6BsQKziukCG
WorBolYjQSRyvz9isWXBx8r8QDVLQkAX/5XB1VZmQFZYmUD0Np/Bc+HEQGQJA0HXZ4/BBE8MQZDd
3j4gGLLBW6G1QAdOLsDjb6PBr+v7QJzrH0E3qLvBsoURQYDHHUF7XarBxoStQPEQGUEPQbzBjwP8
QIWHFEGlr5nBdnuGQJUiD0E0oKvBQNndQJBbDkAfSK3BxxGFQBaKH7/p3p/BeoT9QMw6/L+Wu6zB
l2wRQTsVR0Bt7YPBQEAfQXxc0j/GgIjBYoa4QM0TwkCUCJrBESDbQIG/pkBZ0JDBhhTLQBTnD0Cz
bHnBEobIQI1r7j6xsnzBRBePQNi52UAHJnnBerp6QAUH/UB8A4fBVtD+QK/03j4nOYvBS7vRQHj6
2EBJlIPBsWGhQNsiiEBoPYfB63DzQFDx3L9FH07B9PPjQIbws7/fUWnB/p4NQTyOpb+tqmHBcteG
QLM4JkC2narB08BlQEU3zz9vpZ/B0k+VQCxbGEGVepTBPhSQQMff+kAuV5nBmunSQAmZCj/L3FHB
0RkFQZ5dJz+YNUrBjptTQPcNWUDvK5PBNH29QL9nZkCRqp/BQH6nQLPr1T9JA47Br3FFQJT5rEDv
EYXB6pdKQF+FxUDHlZDBXrVOQNt2h0DLmqTB

>  <OMEGA_E>  (20) 
wIYZPzRlOD8=

>  <OMEGA_NBR>  (20) 
     24206

$$$$
50210664
     RDKit          3D

 76 79  0  0  1  0  0  0  0  0999 V2000
    7.2194    9.3599  -22.4850 C   0  0  0  0  0  0  0  0  0  0  0  0
    8.1706    9.2599  -21.4490 C   0  0  0  0  0  0  0  0  0  0  0  0
    5.8431    9.2717  -22.1947 C   0  0  0  0  0  0  0  0  0  0  0  0
    7.7462    9.0872  -20.1192 C   0  0  0  0  0  0  0  0  0  0  0  0
    5.4171    9.1007  -20.8656 C   0  0  0  0  0  0  0  0  0  0  0  0
    6.6655    1.1518  -21.3145 C   0  0  0  0  0  0  0  0  0  0  0  0
    5.2586   -0.4454  -20.1147 C   0  0  0  0  0  0  0  0  0  0  0  0
    7.3849   -1.1660  -21.0721 C   0  0  0  0  0  0  0  0  0  0  0  0
    6.3684    9.0181  -19.8268 C   0  0  0  0  0  0  0  0  0  0  0  0
    5.4801    0.8595  -20.6080 C   0  0  0  0  0  0  0  0  0  0  0  0
    7.6161    0.1414  -21.5451 C   0  0  0  0  0  0  0  0  0  0  0  0
    6.2089   -1.4582  -20.3519 C   0  0  0  0  0  0  0  0  0  0  0  0
    8.1081   -0.5996  -15.9956 C   0  0  0  0  0  0  0  0  0  0  0  0
    7.0030    2.3888  -17.8870 C   0  0  0  0  0  0  0  0  0  0  0  0
    7.1593    0.0624  -16.9830 C   0  0  0  0  0  0  0  0  0  0  0  0
    5.7720    5.9168  -18.4725 C   0  0  0  0  0  0  0  0  0  0  0  0
    8.7489    1.6186  -16.2182 C   0  0  0  0  0  0  0  0  0  0  0  0
    4.5317    6.9870  -16.6928 C   0  0  0  0  0  0  0  0  0  0  0  0
    7.3251    1.5430  -16.6841 C   0  0  1  0  0  0  0  0  0  0  0  0
    5.9566    6.8389  -17.2858 C   0  0  2  0  0  0  0  0  0  0  0  0
    4.7122    4.9854  -17.8970 C   0  0  2  0  0  0  0  0  0  0  0  0
   13.1051    0.7863  -14.3603 C   0  0  0  0  0  0  0  0  0  0  0  0
    4.4829    1.9659  -20.3213 C   0  0  0  0  0  0  0  0  0  0  0  0
    5.9027    9.0286  -18.3995 C   0  0  0  0  0  0  0  0  0  0  0  0
   11.9576    1.7688  -14.6862 C   0  0  0  0  0  0  0  0  0  0  0  0
   10.6761    1.3700  -13.9266 C   0  0  0  0  0  0  0  0  0  0  0  0
   10.0148    0.1122  -14.5462 C   0  0  0  0  0  0  0  0  0  0  0  0
    4.0695    4.0303  -18.9069 C   0  0  2  0  0  0  0  0  0  0  0  0
    5.1209    3.0393  -19.4205 C   0  0  1  0  0  0  0  0  0  0  0  0
    8.8532    0.4195  -15.3795 N   0  0  0  0  0  0  0  0  0  0  0  0
    5.6805    2.3651  -18.2611 N   0  0  0  0  0  0  0  0  0  0  0  0
    3.7307    5.8970  -17.2957 N   0  0  0  0  0  0  0  0  0  0  0  0
    8.2303   -1.8099  -15.8489 O   0  0  0  0  0  0  0  0  0  0  0  0
    7.8445    3.0912  -18.4398 O   0  0  0  0  0  0  0  0  0  0  0  0
    3.5039    4.7560  -19.9916 O   0  0  0  0  0  0  0  0  0  0  0  0
    6.6324    8.0741  -17.5961 O   0  0  0  0  0  0  0  0  0  0  0  0
    8.7515    0.4289  -22.2200 F   0  0  0  0  0  0  0  0  0  0  0  0
    6.0003   -2.7067  -19.8756 F   0  0  0  0  0  0  0  0  0  0  0  0
    7.5465    9.5044  -23.5041 H   0  0  0  0  0  0  0  0  0  0  0  0
    9.2249    9.3160  -21.6765 H   0  0  0  0  0  0  0  0  0  0  0  0
    5.1170    9.3353  -22.9916 H   0  0  0  0  0  0  0  0  0  0  0  0
    8.4733    9.0078  -19.3245 H   0  0  0  0  0  0  0  0  0  0  0  0
    4.3631    9.0328  -20.6402 H   0  0  0  0  0  0  0  0  0  0  0  0
    6.8433    2.1529  -21.6788 H   0  0  0  0  0  0  0  0  0  0  0  0
    4.3612   -0.6667  -19.5561 H   0  0  0  0  0  0  0  0  0  0  0  0
    8.1092   -1.9444  -21.2616 H   0  0  0  0  0  0  0  0  0  0  0  0
    7.4473   -0.1653  -18.0200 H   0  0  0  0  0  0  0  0  0  0  0  0
    6.1222   -0.2612  -16.8110 H   0  0  0  0  0  0  0  0  0  0  0  0
    5.4080    6.4558  -19.3596 H   0  0  0  0  0  0  0  0  0  0  0  0
    6.6986    5.3799  -18.7242 H   0  0  0  0  0  0  0  0  0  0  0  0
    9.4501    1.5778  -17.0648 H   0  0  0  0  0  0  0  0  0  0  0  0
    8.9315    2.5330  -15.6346 H   0  0  0  0  0  0  0  0  0  0  0  0
    4.5592    6.8823  -15.5982 H   0  0  0  0  0  0  0  0  0  0  0  0
    4.1064    7.9665  -16.9569 H   0  0  0  0  0  0  0  0  0  0  0  0
    6.6558    1.8198  -15.8561 H   0  0  0  0  0  0  0  0  0  0  0  0
    6.5575    6.2966  -16.5409 H   0  0  0  0  0  0  0  0  0  0  0  0
    5.1764    4.3834  -17.1019 H   0  0  0  0  0  0  0  0  0  0  0  0
   14.0106    1.0843  -14.9092 H   0  0  0  0  0  0  0  0  0  0  0  0
   13.3085    0.8059  -13.2794 H   0  0  0  0  0  0  0  0  0  0  0  0
   12.8129   -0.2309  -14.6600 H   0  0  0  0  0  0  0  0  0  0  0  0
    4.1698    2.4271  -21.2696 H   0  0  0  0  0  0  0  0  0  0  0  0
    3.6050    1.5406  -19.8130 H   0  0  0  0  0  0  0  0  0  0  0  0
    6.0527   10.0353  -17.9823 H   0  0  0  0  0  0  0  0  0  0  0  0
    4.8326    8.7755  -18.3710 H   0  0  0  0  0  0  0  0  0  0  0  0
   12.2546    2.7849  -14.3873 H   0  0  0  0  0  0  0  0  0  0  0  0
   11.7589    1.7481  -15.7679 H   0  0  0  0  0  0  0  0  0  0  0  0
   10.9335    1.1585  -12.8782 H   0  0  0  0  0  0  0  0  0  0  0  0
    9.9620    2.2058  -13.9674 H   0  0  0  0  0  0  0  0  0  0  0  0
   10.7618   -0.4054  -15.1660 H   0  0  0  0  0  0  0  0  0  0  0  0
    9.6929   -0.5509  -13.7297 H   0  0  0  0  0  0  0  0  0  0  0  0
    3.2826    3.4609  -18.3906 H   0  0  0  0  0  0  0  0  0  0  0  0
    5.9011    3.5778  -19.9784 H   0  0  0  0  0  0  0  0  0  0  0  0
    5.0512    1.8404  -17.6878 H   0  0  0  0  0  0  0  0  0  0  0  0
    3.1971    5.4246  -16.5942 H   0  0  0  0  0  0  0  0  0  0  0  0
    3.1148    6.2599  -17.9949 H   0  0  0  0  0  0  0  0  0  0  0  0
    3.1100    4.1496  -20.6077 H   0  0  0  0  0  0  0  0  0  0  0  0
  1  2  2  0
  1  3  1  0
  2  4  1  0
  3  5  2  0
  4  9  2  0
  5  9  1  0
  6 10  2  0
  6 11  1  0
  7 10  1  0
  7 12  2  0
  8 11  2  0
  8 12  1  0
  9 24  1  0
 10 23  1  0
 11 37  1  0
 12 38  1  0
 13 15  1  0
 13 30  1  0
 13 33  2  0
 14 19  1  0
 14 31  1  0
 14 34  2  0
 15 19  1  0
 16 20  1  0
 16 21  1  0
 17 19  1  0
 17 30  1  0
 18 20  1  0
 18 32  1  0
 20 36  1  0
 21 28  1  0
 21 32  1  0
 22 25  1  0
 23 29  1  0
 24 36  1  0
 25 26  1  0
 26 27  1  0
 27 30  1  0
 28 29  1  0
 28 35  1  0
 29 31  1  0
  1 39  1  0
  2 40  1  0
  3 41  1  0
  4 42  1  0
  5 43  1  0
  6 44  1  0
  7 45  1  0
  8 46  1  0
 15 47  1  0
 15 48  1  0
 16 49  1  0
 16 50  1  0
 17 51  1  0
 17 52  1  0
 18 53  1  0
 18 54  1  0
 19 55  1  1
 20 56  1  1
 21 57  1  1
 22 58  1  0
 22 59  1  0
 22 60  1  0
 23 61  1  0
 23 62  1  0
 24 63  1  0
 24 64  1  0
 25 65  1  0
 25 66  1  0
 26 67  1  0
 26 68  1  0
 27 69  1  0
 27 70  1  0
 28 71  1  1
 29 72  1  6
 31 73  1  0
 32 74  1  0
 32 75  1  0
 35 76  1  0
M  CHG  1  32   1
M  END
>  <OMEGA_C>  (21) 
iQXnQAHCFUFU4bPByLoCQaooFEGhl6vBBvu6QMFYFEG6jrHB6OD3QEVlEUEp9KDBKFmtQI2cEUHH
7KbBGEzVQLBukz8XhKrBREaoQLQI5L4A66DBKVHsQIs/lb+3k6jBJMrLQPJJEEFinZ7BCF2vQFoJ
XD8c3aTBI7fzQDjRED5eXKzBlK/GQEWlur+n0KLByLoBQVKBGb8X7n/B7RjgQGDhGECoGI/BVRnl
QOBufz1G3YfBorS4QFxWvUCjx5PBevsLQRMvzz/0voHBwgORQM+V30DgioXB0mbqQGOCxT/weIXB
k5y+QFvY2kBVSYrBtMqWQFGIn0AQLY/BZK5RQTpOST+5w2XBuHOPQKui+z//kaLBO+O8QEh1EEEt
MpPBIlI/QaVo4j98+mrBONEqQVZdrz8/017BfDwgQTDJ5T03vWjB8jiCQDj4gEBCQZfBot6jQLaD
QkA8XZvBzaYNQezF1j6JEnbBAMe1QKRdF0C3FpLBvsNuQFK0vECVXYrBWK8DQW2r57/vlH3B5AX7
QLLWRUDJhJPBQEBgQPQwmEC87p/BwDzUQHEvAUHAxIzBRgYMQaiX2z6NwrHBvALAQPY6LcA1AZ/B
5HzxQCgSGEFoCLzBGZkTQT8OFUGRaa3BYb6jQEJdFUHJ7rfBcJIHQR4gEEGtmJrBnJ6LQEaGEEEU
H6XBn/zaQE7ICUAubq3BlY6LQM6rKr/ycpzBF78BQSLj+L/WF6rB70/uQDVNKb7xKJDBw+jDQCK3
hb75fIbBhw6tQDqWzkBh4JrBi1rWQHMorEA7y5XBwDMXQYb0yT+ghIjBoOcOQeQbIkBMJ3rB2+SR
QPI73EAHknnB7WeDQNDt/kC1p4fB6/vUQNju6D+5sn3BG9fRQB1+yUDIU4TBMqWlQL5EjEDA0IjB
TStgQXzLij/8i27ByO9UQVRSTj+ZeFTBkQFNQSdwbL5hj2rBM2+FQK1VG0AiKKrBnrdmQMMwxT8R
gZ7BdK/BQLiQIEGy24/B6aSaQJtoDEHH95LB0BJEQR88MkBvMmbBmCQ8QQ/B3z83SXzBge8uQflJ
lD9FDU7BZ2QfQUcrDUBNel/BRTAsQayKz77Ap3LB8BUbQaUGDb/GrFvBwBVSQMZ+XUDeH5PBNta8
QJH6ZEDX05/B0KOhQKuR6z+agI3Bwp1MQJKWrUDTwITBYVhHQDZRyECg9Y/B9gpHQFfJhECd3KTB

>  <OMEGA_E>  (21) 
MDVGPw==

>  <OMEGA_NBR>  (21) 
     25772

$$$$
50210671
     RDKit          3D

 73 77  0  0  1  0  0  0  0  0999 V2000
    6.4803    9.7144  -22.9040 C   0  0  0  0  0  0  0  0  0  0  0  0
    7.7617    9.4648  -22.3739 C   0  0  0  0  0  0  0  0  0  0  0  0
    5.3407    9.5856  -22.0859 C   0  0  0  0  0  0  0  0  0  0  0  0
    7.9049    9.0869  -21.0256 C   0  0  0  0  0  0  0  0  0  0  0  0
    5.4811    9.2128  -20.7355 C   0  0  0  0  0  0  0  0  0  0  0  0
    6.7615    1.2256  -21.3745 C   0  0  0  0  0  0  0  0  0  0  0  0
    4.9871   -0.3140  -20.7007 C   0  0  0  0  0  0  0  0  0  0  0  0
    7.0942   -1.1848  -21.5635 C   0  0  0  0  0  0  0  0  0  0  0  0
    7.2166   -4.0275  -18.0280 C   0  0  0  0  0  0  0  0  0  0  0  0
    5.9036   -4.3394  -17.7663 C   0  0  0  0  0  0  0  0  0  0  0  0
    6.7682    8.9549  -20.2014 C   0  0  0  0  0  0  0  0  0  0  0  0
    5.4669    1.0019  -20.8568 C   0  0  0  0  0  0  0  0  0  0  0  0
    7.5761    0.1311  -21.7216 C   0  0  0  0  0  0  0  0  0  0  0  0
    5.7985   -1.4056  -21.0543 C   0  0  0  0  0  0  0  0  0  0  0  0
    6.9563   -2.8611  -16.0888 C   0  0  0  0  0  0  0  0  0  0  0  0
    8.3739    0.3837  -14.8769 C   0  0  0  0  0  0  0  0  0  0  0  0
    7.1576    2.2605  -17.9042 C   0  0  0  0  0  0  0  0  0  0  0  0
    8.3058    1.6646  -15.7115 C   0  0  0  0  0  0  0  0  0  0  0  0
    5.9820    5.7945  -18.1325 C   0  0  0  0  0  0  0  0  0  0  0  0
    6.8627    0.0537  -16.6309 C   0  0  0  0  0  0  0  0  0  0  0  0
    4.5268    6.8764  -16.5086 C   0  0  0  0  0  0  0  0  0  0  0  0
    7.7902    1.1681  -17.0520 C   0  0  1  0  0  0  0  0  0  0  0  0
    5.8311    7.0604  -17.2837 C   0  0  2  0  0  0  0  0  0  0  0  0
    4.8150    4.8976  -17.6940 C   0  0  2  0  0  0  0  0  0  0  0  0
    4.5891    2.1627  -20.4541 C   0  0  0  0  0  0  0  0  0  0  0  0
    6.9661    8.6129  -18.7407 C   0  0  0  0  0  0  0  0  0  0  0  0
    7.2807   -1.8935  -14.9787 C   0  0  0  0  0  0  0  0  0  0  0  0
    4.2234    4.0193  -18.8074 C   0  0  2  0  0  0  0  0  0  0  0  0
    5.2609    3.0417  -19.3761 C   0  0  1  0  0  0  0  0  0  0  0  0
    7.7748   -3.1808  -17.0679 N   0  0  0  0  0  0  0  0  0  0  0  0
    7.6362   -0.5967  -15.5589 N   0  0  0  0  0  0  0  0  0  0  0  0
    5.8209    2.1952  -18.2975 N   0  0  0  0  0  0  0  0  0  0  0  0
    3.7879    5.8316  -17.2217 N   0  0  0  0  0  0  0  0  0  0  0  0
    8.9807    0.2600  -13.8197 O   0  0  0  0  0  0  0  0  0  0  0  0
    7.8962    3.1470  -18.3120 O   0  0  0  0  0  0  0  0  0  0  0  0
    3.7275    4.8471  -19.8635 O   0  0  0  0  0  0  0  0  0  0  0  0
    5.7229    8.2104  -18.1292 O   0  0  0  0  0  0  0  0  0  0  0  0
    8.8217    0.3429  -22.2030 F   0  0  0  0  0  0  0  0  0  0  0  0
    5.3336   -2.6652  -20.8976 F   0  0  0  0  0  0  0  0  0  0  0  0
    5.3888   -3.5835  -16.2969 S   0  0  0  0  0  0  0  0  0  0  0  0
    6.3717   10.0048  -23.9385 H   0  0  0  0  0  0  0  0  0  0  0  0
    8.6344    9.5635  -23.0024 H   0  0  0  0  0  0  0  0  0  0  0  0
    4.3588    9.7730  -22.4948 H   0  0  0  0  0  0  0  0  0  0  0  0
    8.8882    8.8975  -20.6210 H   0  0  0  0  0  0  0  0  0  0  0  0
    4.6077    9.1234  -20.1066 H   0  0  0  0  0  0  0  0  0  0  0  0
    7.1259    2.2340  -21.5038 H   0  0  0  0  0  0  0  0  0  0  0  0
    3.9950   -0.4837  -20.3091 H   0  0  0  0  0  0  0  0  0  0  0  0
    7.7184   -2.0239  -21.8328 H   0  0  0  0  0  0  0  0  0  0  0  0
    7.7589   -4.3980  -18.8853 H   0  0  0  0  0  0  0  0  0  0  0  0
    5.2823   -4.9664  -18.3885 H   0  0  0  0  0  0  0  0  0  0  0  0
    7.6116    2.3917  -15.2650 H   0  0  0  0  0  0  0  0  0  0  0  0
    9.3004    2.1231  -15.8150 H   0  0  0  0  0  0  0  0  0  0  0  0
    5.9079    6.0333  -19.2037 H   0  0  0  0  0  0  0  0  0  0  0  0
    6.9461    5.3043  -17.9319 H   0  0  0  0  0  0  0  0  0  0  0  0
    5.9084    0.4488  -16.2525 H   0  0  0  0  0  0  0  0  0  0  0  0
    6.6684   -0.6406  -17.4617 H   0  0  0  0  0  0  0  0  0  0  0  0
    4.7354    6.5618  -15.4754 H   0  0  0  0  0  0  0  0  0  0  0  0
    3.9514    7.8138  -16.4974 H   0  0  0  0  0  0  0  0  0  0  0  0
    8.6319    0.7332  -17.6110 H   0  0  0  0  0  0  0  0  0  0  0  0
    6.6766    7.1501  -16.5858 H   0  0  0  0  0  0  0  0  0  0  0  0
    5.1476    4.2536  -16.8666 H   0  0  0  0  0  0  0  0  0  0  0  0
    4.3858    2.7802  -21.3414 H   0  0  0  0  0  0  0  0  0  0  0  0
    3.6417    1.7713  -20.0549 H   0  0  0  0  0  0  0  0  0  0  0  0
    7.6901    7.7887  -18.6595 H   0  0  0  0  0  0  0  0  0  0  0  0
    7.3560    9.4966  -18.2143 H   0  0  0  0  0  0  0  0  0  0  0  0
    6.4039   -1.7761  -14.3249 H   0  0  0  0  0  0  0  0  0  0  0  0
    8.1274   -2.2781  -14.3911 H   0  0  0  0  0  0  0  0  0  0  0  0
    3.3970    3.4329  -18.3795 H   0  0  0  0  0  0  0  0  0  0  0  0
    6.0703    3.6189  -19.8471 H   0  0  0  0  0  0  0  0  0  0  0  0
    5.2154    1.5498  -17.8317 H   0  0  0  0  0  0  0  0  0  0  0  0
    3.1491    5.3700  -16.6061 H   0  0  0  0  0  0  0  0  0  0  0  0
    3.2848    6.2208  -17.9933 H   0  0  0  0  0  0  0  0  0  0  0  0
    3.3627    4.3009  -20.5498 H   0  0  0  0  0  0  0  0  0  0  0  0
  1  2  2  0
  1  3  1  0
  2  4  1  0
  3  5  2  0
  4 11  2  0
  5 11  1  0
  6 12  2  0
  6 13  1  0
  7 12  1  0
  7 14  2  0
  8 13  2  0
  8 14  1  0
  9 10  2  0
  9 30  1  0
 10 40  1  0
 11 26  1  0
 12 25  1  0
 13 38  1  0
 14 39  1  0
 15 27  1  0
 15 30  2  0
 15 40  1  0
 16 18  1  0
 16 31  1  0
 16 34  2  0
 17 22  1  0
 17 32  1  0
 17 35  2  0
 18 22  1  0
 19 23  1  0
 19 24  1  0
 20 22  1  0
 20 31  1  0
 21 23  1  0
 21 33  1  0
 23 37  1  0
 24 28  1  0
 24 33  1  0
 25 29  1  0
 26 37  1  0
 27 31  1  0
 28 29  1  0
 28 36  1  0
 29 32  1  0
  1 41  1  0
  2 42  1  0
  3 43  1  0
  4 44  1  0
  5 45  1  0
  6 46  1  0
  7 47  1  0
  8 48  1  0
  9 49  1  0
 10 50  1  0
 18 51  1  0
 18 52  1  0
 19 53  1  0
 19 54  1  0
 20 55  1  0
 20 56  1  0
 21 57  1  0
 21 58  1  0
 22 59  1  6
 23 60  1  1
 24 61  1  1
 25 62  1  0
 25 63  1  0
 26 64  1  0
 26 65  1  0
 27 66  1  0
 27 67  1  0
 28 68  1  1
 29 69  1  6
 32 70  1  0
 33 71  1  0
 33 72  1  0
 36 73  1  0
M  CHG  1  33   1
M  END
>  <OMEGA_C>  (22) 
mF7PQC5uG0FYO7fBDmD4QM9vF0HJ/bLBveaqQLNeGUHnr7DBVvX8QPdjEUFrNKjBQGWvQMNnE0Fm
4qXBWF7YQIrgnD/h/qrBPZafQO7IoL4Sm6XBlQPjQAmml78dgqzBBu7mQEbhgMBDOZDBY+q8QFXc
isBgIY7B7ZTYQGRHD0GKnKHB3PCuQNg+gD+q2qbBHm/yQCc4Bj7Qxa3BiY25QBLrs79Kb6jB8Jne
QMwcN8DdtYDBavsFQY5uxD7IB27B1wrlQG2rEEDfO4/BneQEQY8S1T9UYnvBUGy/QMhsuUBPD5HB
GJvbQGzDWz0fDIXBg9uQQDIL3ECjEYTBhEn5QEGFlT+ZaojBEpi6QKTu4UDuRIrBkRSaQEq5nEBW
jY3Bw9mSQChqCkDwoaPBqereQHTOCUEA7ZXByvvoQMxc8r++qG/BSiaHQFGegECWdZbBp1moQLWr
QkBMApvBIsv4QPGSS8AMi4jBYlv0QIi+GL9q8XjBr0S6QIJ9DEA6YZLBRmxyQE+cukANxonBw7AP
QWgchT5jHV3BZK38QJZoSUAQf5LBGJBuQGIbm0Bo6J7BHCK3QJtdA0GfCJHBoCUNQXaUrz7Gn7HB
Oa2qQP6SKsBDLqfBuHCsQJJXZcAeYILBk+TLQHYTIEEagr/BoiYKQfgDGUECBbjBFHuLQAZeHEFR
9bPBMzYOQRJcDkHh96TBqHKTQGH5EUE32qDBtAfkQOL5DkC/B6zBWq5/QMmq9771eKLBAf32QGKI
AcCrqa7BRkn4QGG8jMD+FJfBUwipQMnsnsC8G5PBF5LzQKURGUBAPXTBR84UQWLgB0AuCn3BdA29
QA4RwUAkoZnBFUbeQOO8qUCMdI/BthG9QNPL5T4YBYLBVGPVQB7/I7+dsYvBbIiXQF360UA3m3fB
ZOR8QOgK+kCy+oPBMRwKQS2wOz9N44zBeKbVQKjN5EChr4TBDLmkQE0diEDP7obBdliMQIXvMUAv
u6rBaRJpQIO54j9zcKDBEBX2QOw8+UCmRpXBo2TrQADyF0HutpHB0OzMQKBX47/xMmXBtwkCQeDL
EcDoQWbBQ2hZQKu0W0A3CZPBGkDCQGubZ0Ddxp7Bc+SmQHxhxj9Rp47BgIpJQErXq0Bb2YTBfzpS
QBYRx0Bg8o/BMTZXQBahiUAIZqTBKkT2QBHXF0F7E7XBugoDQd55EkFe3KrBWt7JQJDzGUGrxLbB
+onpQHSJD0GjSaLBZkGtQJfoFkHPN67BoJfWQOMgoT9wIqvBQjqgQB4hvr7t6aXB9iDlQKppkL8F
z6zB1kvpQJ4Pf8BU/4/B+g+/QKuUicAjOo7BDCC9QBQbEkGK76PBUoCtQAcMeD90BKfB0n7yQJPI
Vz616q3BuPK7QCh9tb/I1ajBFNjeQDAsM8D+p4DBjasFQdyq6z4H+m3BiLnjQP8UFEDdRY/BtW0E
QSM23z80UHvBSKzBQNR8tUBat5DBnP/bQFzy3D0yLIXBUGmSQPl/30BmUYbBKhL5QNsmnz/ab4jB
GNWyQG334kDZTY/BlKiaQEQAmkBLVY3BsvyPQH6KBUBjf6PBQGaeQKWTDkHH3prBskroQB2/6L8d
l2/BvhyGQI/Mf0BIeZbBRj+mQHGlP0ARN5vBzg36QPgsSMARPojBSlz0QCLEB7/1AHnBnGu5QEjk
CkCmpZLBaVV1QHEtuECO5IjBl0EPQdQ/rz4h+1zBmP35QHKJT0A0ZJLBnTxuQMihm0BowZ7B9ied
QAci8ECf45jBzBUNQWgw+z7tm7HBFCKvQG7jLMAGuKfBvPKsQIDZYcCsrYLBLh4GQR9XGkGioLvB
0goUQSmgEEGgnqnBQ9a9QOjmHUGKn77B4oz1QJ9TC0HsdprB1zKLQHY/GEGAhq/BKJPgQAo+EkAi
JazBjsGAQD1GGL/Q0qLBEnP6QPxg979TAa/BR5X7QFyWi8AyrpbB0uurQFjwncClT5PBciXyQPxp
HUAWRHTB/z8UQRPjDUAAxnzBSUDKQIZDr0CeG5nBWGTdQDzHrkDmjovBzP+8QE9x9z72R4LB97XW
QH3hFr9p2YvBCnqiQB+u3EAdCn3BO/B5QNhp+0CIPIbBeDQKQTPEVD9m5IzBtW7NQLFX+EBJJY3B
fPCkQOO5g0DKBYfBrv6GQDgSLEDagqrBfR1mQF5r0z9O45/BBYGpQBMXF0Gcr5PBmL18QFBgFEFT
Fp3BVKXLQJo62L+mkmXBQ2MBQReoDMCPtmXBfCRWQDCDW0DfIZPBZKy/QLy4Y0A0TZ/BrDanQHYW
vT+tGo/Bf6JaQCD9q0CiSoLB+8VHQAFEvkAWTY7Byi5VQCgSi0BjTqTB

>  <OMEGA_E>  (22) 
YOjnPlA7Fz8=

>  <OMEGA_NBR>  (22) 
     28419

$$$$
50210675
     RDKit          3D

 79 82  0  0  1  0  0  0  0  0999 V2000
    6.1443    9.6972  -23.1156 C   0  0  0  0  0  0  0  0  0  0  0  0
    5.0428    9.5320  -22.2529 C   0  0  0  0  0  0  0  0  0  0  0  0
    7.4556    9.5408  -22.6245 C   0  0  0  0  0  0  0  0  0  0  0  0
    5.2512    9.2162  -20.8968 C   0  0  0  0  0  0  0  0  0  0  0  0
    7.6669    9.2177  -21.2710 C   0  0  0  0  0  0  0  0  0  0  0  0
    6.9394    1.2453  -21.3355 C   0  0  0  0  0  0  0  0  0  0  0  0
    5.1922   -0.2676  -20.5396 C   0  0  0  0  0  0  0  0  0  0  0  0
    7.2806   -1.1692  -21.4159 C   0  0  0  0  0  0  0  0  0  0  0  0
    6.5689    9.0490  -20.4024 C   0  0  0  0  0  0  0  0  0  0  0  0
    5.6616    1.0408  -20.7774 C   0  0  0  0  0  0  0  0  0  0  0  0
    7.7487    0.1398  -21.6536 C   0  0  0  0  0  0  0  0  0  0  0  0
    6.0014   -1.3718  -20.8591 C   0  0  0  0  0  0  0  0  0  0  0  0
    8.1129   -0.4955  -15.1272 C   0  0  0  0  0  0  0  0  0  0  0  0
    7.1948    2.1874  -17.6461 C   0  0  0  0  0  0  0  0  0  0  0  0
    8.2591    0.9580  -15.6237 C   0  0  0  0  0  0  0  0  0  0  0  0
    6.0399    5.9063  -18.1957 C   0  0  0  0  0  0  0  0  0  0  0  0
    6.7262   -0.2179  -16.9714 C   0  0  0  0  0  0  0  0  0  0  0  0
    4.5734    6.9789  -16.5703 C   0  0  0  0  0  0  0  0  0  0  0  0
    7.7692    0.8818  -17.0592 C   0  0  1  0  0  0  0  0  0  0  0  0
    5.8447    7.1981  -17.3921 C   0  0  2  0  0  0  0  0  0  0  0  0
    4.9333    4.9742  -17.6836 C   0  0  2  0  0  0  0  0  0  0  0  0
    9.0770   -3.8091  -17.2748 C   0  0  0  0  0  0  0  0  0  0  0  0
    4.8041    2.2210  -20.4049 C   0  0  0  0  0  0  0  0  0  0  0  0
    6.8374    8.7575  -18.9423 C   0  0  0  0  0  0  0  0  0  0  0  0
    7.8172   -3.6702  -18.1546 C   0  0  0  0  0  0  0  0  0  0  0  0
    6.5369   -4.1923  -17.4540 C   0  0  0  0  0  0  0  0  0  0  0  0
    5.7142   -3.1044  -16.7214 C   0  0  0  0  0  0  0  0  0  0  0  0
    6.4790   -2.3683  -15.5814 C   0  0  0  0  0  0  0  0  0  0  0  0
    4.3658    4.0281  -18.7432 C   0  0  2  0  0  0  0  0  0  0  0  0
    5.4417    3.0688  -19.2756 C   0  0  1  0  0  0  0  0  0  0  0  0
    7.2696   -1.1911  -16.0192 N   0  0  0  0  0  0  0  0  0  0  0  0
    5.9082    2.1781  -18.1929 N   0  0  0  0  0  0  0  0  0  0  0  0
    3.8700    5.8734  -17.2235 N   0  0  0  0  0  0  0  0  0  0  0  0
    8.5954   -0.9321  -14.0886 O   0  0  0  0  0  0  0  0  0  0  0  0
    7.9297    3.1604  -17.7614 O   0  0  0  0  0  0  0  0  0  0  0  0
    3.8064    4.7885  -19.8198 O   0  0  0  0  0  0  0  0  0  0  0  0
    5.6410    8.3043  -18.2778 O   0  0  0  0  0  0  0  0  0  0  0  0
    8.9766    0.3360  -22.1836 F   0  0  0  0  0  0  0  0  0  0  0  0
    5.5533   -2.6246  -20.6201 F   0  0  0  0  0  0  0  0  0  0  0  0
    5.9834    9.9441  -24.1546 H   0  0  0  0  0  0  0  0  0  0  0  0
    4.0382    9.6476  -22.6320 H   0  0  0  0  0  0  0  0  0  0  0  0
    8.2989    9.6689  -23.2869 H   0  0  0  0  0  0  0  0  0  0  0  0
    4.4069    9.1014  -20.2333 H   0  0  0  0  0  0  0  0  0  0  0  0
    8.6729    9.0987  -20.8966 H   0  0  0  0  0  0  0  0  0  0  0  0
    7.2962    2.2481  -21.5184 H   0  0  0  0  0  0  0  0  0  0  0  0
    4.2122   -0.4211  -20.1125 H   0  0  0  0  0  0  0  0  0  0  0  0
    7.9029   -2.0174  -21.6606 H   0  0  0  0  0  0  0  0  0  0  0  0
    7.6362    1.6429  -15.0296 H   0  0  0  0  0  0  0  0  0  0  0  0
    9.3081    1.2863  -15.5812 H   0  0  0  0  0  0  0  0  0  0  0  0
    5.9232    6.0956  -19.2730 H   0  0  0  0  0  0  0  0  0  0  0  0
    7.0333    5.4744  -18.0048 H   0  0  0  0  0  0  0  0  0  0  0  0
    5.7703    0.1859  -16.6064 H   0  0  0  0  0  0  0  0  0  0  0  0
    6.5749   -0.6849  -17.9558 H   0  0  0  0  0  0  0  0  0  0  0  0
    4.8271    6.7137  -15.5334 H   0  0  0  0  0  0  0  0  0  0  0  0
    3.9516    7.8862  -16.5751 H   0  0  0  0  0  0  0  0  0  0  0  0
    8.5950    0.5409  -17.7010 H   0  0  0  0  0  0  0  0  0  0  0  0
    6.7042    7.3639  -16.7260 H   0  0  0  0  0  0  0  0  0  0  0  0
    5.3202    4.3835  -16.8402 H   0  0  0  0  0  0  0  0  0  0  0  0
    9.9508   -3.4245  -17.8213 H   0  0  0  0  0  0  0  0  0  0  0  0
    8.9419   -3.2330  -16.3475 H   0  0  0  0  0  0  0  0  0  0  0  0
    9.2366   -4.8691  -17.0279 H   0  0  0  0  0  0  0  0  0  0  0  0
    4.6693    2.8562  -21.2928 H   0  0  0  0  0  0  0  0  0  0  0  0
    3.8245    1.8547  -20.0640 H   0  0  0  0  0  0  0  0  0  0  0  0
    7.6084    7.9765  -18.8672 H   0  0  0  0  0  0  0  0  0  0  0  0
    7.1957    9.6748  -18.4523 H   0  0  0  0  0  0  0  0  0  0  0  0
    7.6752   -2.6075  -18.4005 H   0  0  0  0  0  0  0  0  0  0  0  0
    7.9700   -4.2436  -19.0809 H   0  0  0  0  0  0  0  0  0  0  0  0
    5.8926   -4.6543  -18.2165 H   0  0  0  0  0  0  0  0  0  0  0  0
    6.8349   -4.9520  -16.7164 H   0  0  0  0  0  0  0  0  0  0  0  0
    5.3999   -2.3550  -17.4627 H   0  0  0  0  0  0  0  0  0  0  0  0
    4.8255   -3.5831  -16.2843 H   0  0  0  0  0  0  0  0  0  0  0  0
    5.7418   -2.0282  -14.8393 H   0  0  0  0  0  0  0  0  0  0  0  0
    7.1671   -3.0868  -15.1120 H   0  0  0  0  0  0  0  0  0  0  0  0
    3.5750    3.4247  -18.2735 H   0  0  0  0  0  0  0  0  0  0  0  0
    6.2826    3.6485  -19.6841 H   0  0  0  0  0  0  0  0  0  0  0  0
    5.2539    1.5184  -17.8233 H   0  0  0  0  0  0  0  0  0  0  0  0
    3.2691    5.4059  -16.5751 H   0  0  0  0  0  0  0  0  0  0  0  0
    3.3308    6.2066  -17.9970 H   0  0  0  0  0  0  0  0  0  0  0  0
    3.4549    4.1981  -20.4759 H   0  0  0  0  0  0  0  0  0  0  0  0
  1  2  2  0
  1  3  1  0
  2  4  1  0
  3  5  2  0
  4  9  2  0
  5  9  1  0
  6 10  2  0
  6 11  1  0
  7 10  1  0
  7 12  2  0
  8 11  2  0
  8 12  1  0
  9 24  1  0
 10 23  1  0
 11 38  1  0
 12 39  1  0
 13 15  1  0
 13 31  1  0
 13 34  2  0
 14 19  1  0
 14 32  1  0
 14 35  2  0
 15 19  1  0
 16 20  1  0
 16 21  1  0
 17 19  1  0
 17 31  1  0
 18 20  1  0
 18 33  1  0
 20 37  1  0
 21 29  1  0
 21 33  1  0
 22 25  1  0
 23 30  1  0
 24 37  1  0
 25 26  1  0
 26 27  1  0
 27 28  1  0
 28 31  1  0
 29 30  1  0
 29 36  1  0
 30 32  1  0
  1 40  1  0
  2 41  1  0
  3 42  1  0
  4 43  1  0
  5 44  1  0
  6 45  1  0
  7 46  1  0
  8 47  1  0
 15 48  1  0
 15 49  1  0
 16 50  1  0
 16 51  1  0
 17 52  1  0
 17 53  1  0
 18 54  1  0
 18 55  1  0
 19 56  1  6
 20 57  1  1
 21 58  1  1
 22 59  1  0
 22 60  1  0
 22 61  1  0
 23 62  1  0
 23 63  1  0
 24 64  1  0
 24 65  1  0
 25 66  1  0
 25 67  1  0
 26 68  1  0
 26 69  1  0
 27 70  1  0
 27 71  1  0
 28 72  1  0
 28 73  1  0
 29 74  1  1
 30 75  1  6
 32 76  1  0
 33 77  1  0
 33 78  1  0
 36 79  1  0
M  CHG  1  33   1
M  END
>  <OMEGA_C>  (23) 
Vp7EQO0nG0HJ7LjBBV+hQPqCGEH7BbLB65PuQCmnGEH6/rTB8gmoQJt1E0G4LKfB8Fb1QL17E0EE
K6rBgw/eQNxlnz8er6rB4SamQMH+iL4pUaTBEfvoQCuplb+1U6vBiTTSQLLIEEElOKPBcyu1QI04
hT8nOKbBrPX3QGgrDz6fOq3BhQvAQBKWr7+D36bBoc4BQQe1/b4JCXLBcjvmQPz+C0BMK43BXSUE
Qbw+dT+3+nnBrEbBQLoAvUDLkJHBqTzXQFwWX754xYfBcFmSQPRS30ASkITBj534QKa/YT8ueYjB
yAe7QLpW5kAEI4vBiN2dQIIsn0AXeI3BeTsRQbLIc8DMMorB9rqZQD0lDkBTPaPBFMzaQJMeDEHe
iZfBZCb6QPjkasC2PJHBfS7RQAMnhsDMoYvB3tq2QMOuRsBUxYXBW1TPQPaSF8BiTXnBjbSLQM7l
gEAB8pXBLyKuQNpnREBoNJrBraDoQMx2mL9aJ4DByw+9QKhlC0Ali5HBoq13QIryu0CkyYnBp4YJ
QUaebr8Wa2HBuL/9QKBESkBSF47Bj5tzQFo7mUACj57B/YK0QIzeBEHoOJLBRqAPQUUJrD4IeLHB
v7SxQJn5J8Dh9aTB9Xe/QDkbH0GtPMHB7TiBQGdcGkFiDrXBUsgEQbOzGkGNS7rBOQWNQE+fEUG4
3aHBC8QKQRWUEUE0LKfBjHrpQPLgD0C5JazBsMqGQCuY175v5qDBdeT8QGscAcDiSK3BI1z0QDNJ
0j8yeXDBG+4UQeakpD/ITHnBuYq9QOoOw0AaL5rBBhHhQOktr0DTCZDBFqa4QDJoPj7r2YTBmmXS
QO9XL79vpY/B6neaQInW1kC5iHjBuuZ8QAdc/EDUmYTBB4UJQb15Cj+em43BH4nWQMuk60DPzoXB
+D6qQLJFjECyuIbBTTYfQTwqW8DvkY7B1REPQZTpTsDDx4LBRMkTQcXPm8AyOYjBi2qVQJfMNkCz
V6rBhsR0QGxm7T8eg6DBMXjzQHw//0AY8JbBTEPmQN7LGkE2npPBVpv1QB3hJsAxNJPBNAr/QInL
h8CfpZjBgZC8QGPwlMBbu5HBwbfaQKZ2nsA/u4XB+susQJW4FsCes4vBGWqaQA9RZcBRRoLBwry3
QAzOAcCebW3BH1nlQJiORcDGynHBi8xkQL0tW0A0MJLBHwvJQF+AaUABeZ3Bmx+oQHhawj8Glo7B
ujhRQNP8rEDHmYTBcyxVQD6cxkDE+Y/BLx1dQD5XhkCzzqPBD4jpQMSdGEETirfB4K38QEeaE0Hk
o63BU6y8QENZGkEdXbjBWADjQNqdEEGghaTBO+yiQFVBF0FcRK/BEJ/aQBq/nz8L3arBGwqlQEZf
qr4kUKTBHfToQC0ck79IW6vB9CK2QIrGEkECUKXBvyCyQKRHfj9uTabBgg72QEYDNT5JWq3BAGnA
QLqOs7/O2KbBZQgCQRBdvr5eF3LBemPkQCQpDkBAqY3BqqEDQabEiT/1dXrBJwjDQJqruEBc/pDB
4RnYQOrlN76U7ofBZ5aSQBmH4kBK14bBVTT4QNwbdD8Au4jB66+yQNra5UAO6Y/B/BCdQM13nEBp
Q43BSacSQXgkb8AMqYnBp1eVQKrqCEAHJqPBBZWaQKj6DkGorJvB00b9QPozaMA615DB6DnUQDzb
hMDISIvBnYS5QIIpRMAahoXBR8PRQFZIE8AgAXnB4XOJQOuVgEATI5bBcZeqQCwyQUAge5rBl0fq
QOHFjr/PJ4DBUM26QOh6CkBEwpHBriR4QNQsukAVEonB/cgJQVz1RL8VPmHBCiz7QLTzTEA2E4/B
iJJzQBqsmkAxrZ7BlEKcQEAR8UAGiZnBaIgOQfA82D7smLHB3uOzQAQDK8Bi1qTB8Ur9QGojG0G2
g77B14IPQY8OEkE+D63BvReuQIAMHkG++b/Bu47xQO2uDEG/75zBm4WAQApPGEHz56/Bc4nkQKjf
EEDccKzBSQCGQCPPBr8X2KDBKf/9QL5X/L/JSK3BMlnyQPv63z/kR3HBUTUUQQ+yuD8WtnnBrHDL
QOqYsUCZWpnBcC7fQKSQs0DZ3YvBKfy4QL5wST6vIIXBawvUQCc8K792v4/Bk+iiQCs14UAlGn7B
HIp4QMG+/UCo8YbBf5sJQfyhIT8ZwI3Bkp7MQOFd/EA8+o3BfjioQEB9h0A9xYbBOKsgQUKIVsAS
AY7BLTUQQY5KScCMV4LBO1kVQbBHmcCbg4fBTr+OQG1lMEDePqrBUTpuQLgy3j/u/5/BUvWmQLsG
GEEUypTBdOZyQPjrE0E2U53BhXP4QFKYJMA1+pLB0F0BQZLuhsBEJpjBSd+/QMrmk8BdZpHBPrfd
QPj4nMBLVIXBvA6vQLsqFcATiIvBoFWdQPEsY8Bl84HBuhq6QCCf+78hIW3BG0joQDgWQMCMa3HB
561dQBuBXEAdppLB2jfFQNrlZECtHZ7BcKqmQEWsvz/jjo7BWDxeQMF3rkDPXYLBuDdKQFrMvkBs
hY7BaJlbQDX4iEBjFKTBuqIJQdrZHEEjdqvB6SkSQX1+G0HgCqHBbMrnQAAhGEFeVK3BHfIEQbNw
FUEzeZjB3ETNQHsXEkEsw6TB/SPYQOpfmz+2rarBFc+lQKh+tb4hiaLBbGzqQP5fk798UqnBRmfe
QKisEEHVWZrBbi+wQDyLdD9v2KXBMSv1QOAlJT7WbqzBo9fCQKAktL/gUKTBv+YGQTRgAL9gs3zB
uOzbQAaMB0C7qI7BuajsQBjUDL61tYbBumy+QFBPtUCEupDBphYEQWo17D+wuXvBCUSRQF6q20Cc
EITBaNDiQP+OqT96dYTBS2fAQGwI1ED6VIfBYwGWQGZKnEANDo7Bh1j1QHps3L+a2C7B6ZKRQFoo
BkA2oaPBMYDBQEatC0HVJpHBau8GQXDl0b6w0TLBTWIMQehFor5Mj0rBxeAZQaYjbT+B4U/BN6Ii
QZc1Tj9x3WbBIs+DQJhSgkBfbZfBVeGkQAbQQkDjQJvBa1QRQTKaMD/npXbBSymyQCl1EEDz+pHB
YjtvQGT9vECrXorBN0kLQaqf07/foHfBTPf5QKLzJkCRopPB1qZwQObvnUAtCKDBPyLXQFiA+kCf
6InBn6QNQXCx0j6EI7HBz8m4QLhnKsCdLKHB3c0TQauHIUE1C7LBBNUiQXMaH0HVpp/BPOLaQPEl
GUEEVLXBh2cLQd1vFEGweZDBSearQIaNDkE+JqbBfnDgQBwXDkAWCK3BcpmHQI+CDL9Lo57Bv0MA
QREQ+795xqrBwKz5QALihr7l0o7Bh8TPQGx6Qb+dz4XBZFK7QPJ0xkDnX5jBjrLaQL9eoEAtAZHB
xVYNQY4UJUC2gYLB4W/8QK81FEAy8GzBFgONQJ/B1UAP6XbBErCHQNWx/EAm8YXBnJDFQKHLsD/0
Kn/By4fQQPO9w0Bdp4DBLx6dQDI0hkACcIfBgUHtQBPR5r8+xB3B68bXQMrZ3L8WZTjBc70EQcTQ
JMAkizPB26+LQNe2KUC1FKvBUFpmQEaB2D+OmKDByk+5QJSMGkEn6ozB4xKkQJkVBEHZIpTBWs35
QO1F5D5cLC7BqsAVQQ7Zzr5qUinBx24VQSyDm7+tME/Bp8v6QIdwi77UwlPBZdkPQTHU6T+0nE7B
M04nQYUJgD99kETBqzIsQQCU2T8qi2rB89YsQXH0tL2N5GfBKLpOQAvvYUBnl5TBiXzAQJFjZEDP
vp7BxW6bQEYJ5T+0xY3BmdVBQLe8r0CMzoXB7wNUQAyry0CRnJDBI0FaQNVvjUCvxKXB

>  <OMEGA_E>  (23) 
WHXNPpYSBD8eoGQ/

>  <OMEGA_NBR>  (23) 
     32429

$$$$
50209150
     RDKit          3D

 85 88  0  0  1  0  0  0  0  0999 V2000
    7.4319    9.3205  -21.9162 C   0  0  0  0  0  0  0  0  0  0  0  0
    6.0341    9.2132  -22.0467 C   0  0  0  0  0  0  0  0  0  0  0  0
    8.0517    8.9934  -20.6950 C   0  0  0  0  0  0  0  0  0  0  0  0
    5.2562    8.7759  -20.9581 C   0  0  0  0  0  0  0  0  0  0  0  0
    7.2770    8.5515  -19.6051 C   0  0  0  0  0  0  0  0  0  0  0  0
    6.8529   -0.0178  -16.7746 C   0  0  0  0  0  0  0  0  0  0  0  0
    8.4173    1.5843  -15.7989 C   0  0  0  0  0  0  0  0  0  0  0  0
    8.1511   -0.6210  -14.7985 C   0  0  0  0  0  0  0  0  0  0  0  0
    6.8464    1.2884  -21.4006 C   0  0  0  0  0  0  0  0  0  0  0  0
    5.0327   -0.2229  -20.7704 C   0  0  0  0  0  0  0  0  0  0  0  0
    7.1500   -1.1274  -21.5736 C   0  0  0  0  0  0  0  0  0  0  0  0
    7.4576    1.2594  -16.7832 C   0  0  0  0  0  0  0  0  0  0  0  0
    7.2169   -0.9668  -15.7959 C   0  0  0  0  0  0  0  0  0  0  0  0
    8.7662    0.6449  -14.8098 C   0  0  0  0  0  0  0  0  0  0  0  0
    5.5326    1.0868  -20.9230 C   0  0  0  0  0  0  0  0  0  0  0  0
    5.8656    8.4322  -19.7341 C   0  0  0  0  0  0  0  0  0  0  0  0
    7.6567    0.1806  -21.7165 C   0  0  0  0  0  0  0  0  0  0  0  0
    5.8366   -1.3273  -21.1030 C   0  0  0  0  0  0  0  0  0  0  0  0
    7.0730    2.2535  -17.7983 C   0  0  0  0  0  0  0  0  0  0  0  0
    6.5810   -2.2967  -15.7599 C   0  0  0  0  0  0  0  0  0  0  0  0
    6.0501    5.8436  -18.0733 C   0  0  0  0  0  0  0  0  0  0  0  0
    4.5340    6.9794  -16.6049 C   0  0  0  0  0  0  0  0  0  0  0  0
    5.6258    7.2513  -17.6249 C   0  0  2  0  0  0  0  0  0  0  0  0
    4.8686    4.9246  -17.6728 C   0  0  2  0  0  0  0  0  0  0  0  0
    9.7429    1.0203  -13.7180 C   0  0  0  0  0  0  0  0  0  0  0  0
    3.8296   -3.5042  -17.6860 C   0  0  0  0  0  0  0  0  0  0  0  0
    9.5591   -3.9767  -16.9961 C   0  0  0  0  0  0  0  0  0  0  0  0
    4.6661    2.2668  -20.5356 C   0  0  0  0  0  0  0  0  0  0  0  0
    4.8541   -4.6456  -17.8155 C   0  0  0  0  0  0  0  0  0  0  0  0
    8.6374   -3.9518  -18.2281 C   0  0  0  0  0  0  0  0  0  0  0  0
    5.9621   -4.5290  -16.7529 C   0  0  0  0  0  0  0  0  0  0  0  0
    7.4881   -2.9422  -18.0487 C   0  0  0  0  0  0  0  0  0  0  0  0
    4.2816    4.0843  -18.8243 C   0  0  2  0  0  0  0  0  0  0  0  0
    5.3163    3.1008  -19.4096 C   0  0  1  0  0  0  0  0  0  0  0  0
    5.7980    2.1967  -18.3505 N   0  0  0  0  0  0  0  0  0  0  0  0
    6.6693   -3.2178  -16.8307 N   0  0  0  0  0  0  0  0  0  0  0  0
    3.8194    5.8195  -17.1449 N   0  0  0  0  0  0  0  0  0  0  0  0
    7.8656    3.1303  -18.1263 O   0  0  0  0  0  0  0  0  0  0  0  0
    5.9997   -2.6017  -14.7239 O   0  0  0  0  0  0  0  0  0  0  0  0
    3.8017    4.9485  -19.8553 O   0  0  0  0  0  0  0  0  0  0  0  0
    5.0309    8.0037  -18.7122 O   0  0  0  0  0  0  0  0  0  0  0  0
    8.9235    0.3720  -22.1490 F   0  0  0  0  0  0  0  0  0  0  0  0
    5.3473   -2.5795  -20.9617 F   0  0  0  0  0  0  0  0  0  0  0  0
    8.0286    9.6537  -22.7525 H   0  0  0  0  0  0  0  0  0  0  0  0
    5.5585    9.4666  -22.9826 H   0  0  0  0  0  0  0  0  0  0  0  0
    9.1234    9.0816  -20.5939 H   0  0  0  0  0  0  0  0  0  0  0  0
    4.1836    8.7031  -21.0613 H   0  0  0  0  0  0  0  0  0  0  0  0
    7.7556    8.3027  -18.6695 H   0  0  0  0  0  0  0  0  0  0  0  0
    6.1109   -0.2679  -17.5184 H   0  0  0  0  0  0  0  0  0  0  0  0
    8.8856    2.5575  -15.8050 H   0  0  0  0  0  0  0  0  0  0  0  0
    8.3960   -1.3308  -14.0221 H   0  0  0  0  0  0  0  0  0  0  0  0
    7.2292    2.2908  -21.5235 H   0  0  0  0  0  0  0  0  0  0  0  0
    4.0310   -0.3778  -20.3976 H   0  0  0  0  0  0  0  0  0  0  0  0
    7.7686   -1.9763  -21.8249 H   0  0  0  0  0  0  0  0  0  0  0  0
    6.2105    5.8159  -19.1612 H   0  0  0  0  0  0  0  0  0  0  0  0
    6.9721    5.5351  -17.5588 H   0  0  0  0  0  0  0  0  0  0  0  0
    4.9680    6.7471  -15.6212 H   0  0  0  0  0  0  0  0  0  0  0  0
    3.8609    7.8446  -16.5136 H   0  0  0  0  0  0  0  0  0  0  0  0
    6.4706    7.7857  -17.1659 H   0  0  0  0  0  0  0  0  0  0  0  0
    5.2072    4.2447  -16.8771 H   0  0  0  0  0  0  0  0  0  0  0  0
    9.1967    1.4684  -12.8748 H   0  0  0  0  0  0  0  0  0  0  0  0
   10.2726    0.1196  -13.3744 H   0  0  0  0  0  0  0  0  0  0  0  0
   10.4703    1.7461  -14.1106 H   0  0  0  0  0  0  0  0  0  0  0  0
    3.0542   -3.6175  -18.4579 H   0  0  0  0  0  0  0  0  0  0  0  0
    3.3637   -3.5411  -16.6902 H   0  0  0  0  0  0  0  0  0  0  0  0
    4.3388   -2.5380  -17.8170 H   0  0  0  0  0  0  0  0  0  0  0  0
   10.3669   -4.7058  -17.1565 H   0  0  0  0  0  0  0  0  0  0  0  0
    9.9925   -2.9774  -16.8423 H   0  0  0  0  0  0  0  0  0  0  0  0
    8.9766   -4.2643  -16.1084 H   0  0  0  0  0  0  0  0  0  0  0  0
    4.5207    2.9083  -21.4173 H   0  0  0  0  0  0  0  0  0  0  0  0
    3.6909    1.8952  -20.1877 H   0  0  0  0  0  0  0  0  0  0  0  0
    4.3361   -5.6076  -17.6884 H   0  0  0  0  0  0  0  0  0  0  0  0
    5.3112   -4.6046  -18.8152 H   0  0  0  0  0  0  0  0  0  0  0  0
    9.2282   -3.6685  -19.1117 H   0  0  0  0  0  0  0  0  0  0  0  0
    8.2124   -4.9553  -18.3777 H   0  0  0  0  0  0  0  0  0  0  0  0
    5.5105   -4.6312  -15.7551 H   0  0  0  0  0  0  0  0  0  0  0  0
    6.6920   -5.3369  -16.9096 H   0  0  0  0  0  0  0  0  0  0  0  0
    7.9157   -1.9322  -17.9650 H   0  0  0  0  0  0  0  0  0  0  0  0
    6.8342   -2.9915  -18.9318 H   0  0  0  0  0  0  0  0  0  0  0  0
    3.4445    3.4953  -18.4215 H   0  0  0  0  0  0  0  0  0  0  0  0
    6.1582    3.6723  -19.8274 H   0  0  0  0  0  0  0  0  0  0  0  0
    5.1690    1.4990  -18.0075 H   0  0  0  0  0  0  0  0  0  0  0  0
    3.2993    5.3618  -16.4237 H   0  0  0  0  0  0  0  0  0  0  0  0
    3.1983    6.1005  -17.8766 H   0  0  0  0  0  0  0  0  0  0  0  0
    3.4407    4.4277  -20.5631 H   0  0  0  0  0  0  0  0  0  0  0  0
  1  2  2  0
  1  3  1  0
  2  4  1  0
  3  5  2  0
  4 16  2  0
  5 16  1  0
  6 12  2  0
  6 13  1  0
  7 12  1  0
  7 14  2  0
  8 13  2  0
  8 14  1  0
  9 15  2  0
  9 17  1  0
 10 15  1  0
 10 18  2  0
 11 17  2  0
 11 18  1  0
 12 19  1  0
 13 20  1  0
 14 25  1  0
 15 28  1  0
 16 41  1  0
 17 42  1  0
 18 43  1  0
 19 35  1  0
 19 38  2  0
 20 36  1  0
 20 39  2  0
 21 23  1  0
 21 24  1  0
 22 23  1  0
 22 37  1  0
 23 41  1  0
 24 33  1  0
 24 37  1  0
 26 29  1  0
 27 30  1  0
 28 34  1  0
 29 31  1  0
 30 32  1  0
 31 36  1  0
 32 36  1  0
 33 34  1  0
 33 40  1  0
 34 35  1  0
  1 44  1  0
  2 45  1  0
  3 46  1  0
  4 47  1  0
  5 48  1  0
  6 49  1  0
  7 50  1  0
  8 51  1  0
  9 52  1  0
 10 53  1  0
 11 54  1  0
 21 55  1  0
 21 56  1  0
 22 57  1  0
 22 58  1  0
 23 59  1  1
 24 60  1  1
 25 61  1  0
 25 62  1  0
 25 63  1  0
 26 64  1  0
 26 65  1  0
 26 66  1  0
 27 67  1  0
 27 68  1  0
 27 69  1  0
 28 70  1  0
 28 71  1  0
 29 72  1  0
 29 73  1  0
 30 74  1  0
 30 75  1  0
 31 76  1  0
 31 77  1  0
 32 78  1  0
 32 79  1  0
 33 80  1  1
 34 81  1  6
 35 82  1  0
 37 83  1  0
 37 84  1  0
 40 85  1  0
M  CHG  1  37   1
M  END
>  <OMEGA_C>  (24) 
e9LtQPAgFUFKVK/BvxfBQGRpE0GiX7DB69MAQRTlD0Fij6XBmDKoQBdqDEElqqfBAN3oQOXSCEFG
15zBMUvbQMRykbxbMobBdq0GQWPKyj8ayHzB82oCQc38Hr+kxmzB1hXbQI3ppD+HNKvB/QuhQCpD
ZL7FKabBKc3kQEFNkL+/lqzB16TuQEg0oT/yQ4bBi/DmQG1/d78rvHzBUEIMQQMWJT/O9GzBPQux
QDsdiz9PYqfBZ7O7QDnqBkFa353BpAP1QOrtOD5xu63Bm8W6QOnkqb/Y0qjBWVbiQKY5EEAEY47B
QZfSQHr9EsCWKHzBrZrBQCf/ukAvlpDBQxaRQBhX30DF1oTBWAa0QNMK6EDa/4zB4MubQHSWnUDs
YY3B4+IbQXqagj/NfFvBrBh1QL9EYMD1fI3B/vEYQYSBfsD594fBlVCVQLgSEUDySKTBDlWbQOCo
lMAsho7BzzIKQZzqfMBA05HBf8m+QL3tkMD9BYbBYp7vQAhNPMCsY5DB5QKJQO+ygkBDmJbBDB+q
QNpzRkDbRpvBH4m5QCCXDEDTzZLBp2rVQKrvTcBgpYbBUnB0QDg5ukC/KInBy7L7QJVXSECqApHB
5f2/QNiBJsAzlWvBxE5zQO1ZnkCS157BLP2gQFsPAEGbspXBksYOQRp6vj4cMbHBdR2rQFUXJcCL
safB8nQAQX51GkEgBbbBad+xQDd3F0Fv3LfBWPkRQStOEUFTwKTBAOCFQMI/C0GffajBnC34QLjX
BEEQW5XBp4zDQE8nib6wJYzBPysOQU6uI0BF4XzBCFYGQbxWqr+5WmDBpFXnQN6bEkAmMKzBBf6A
QD5vwb47LqPB+5f4QM73/L9Lma7BQbzGQAMcukAySpnBqxvfQHgfsUB5eIzB9fmeQPLn10Bf8HnB
EBl3QC8H+0DFG4TBUg/PQIEk+UDZU4nB/6CmQFjUh0BnBIfBkSUTQRnzuz81/03Bm1wkQWvs9D11
/VXBR4YnQeGA3z/xxGHBn3dDQN6EZ8DRqZPBcEdXQM2gYsCYhYXBydeKQJFuIsBMiY7B3t4lQRaW
lsB2QInBJeEfQX6NPsAavYbBTqAPQc10iMDt3YDB3qmQQDUhOkCaVqvBQjhsQCOW8j9+gKHBfMGK
QNVxs8DXgY3BjfWpQLdYk8CKhZbB46YTQeTHasC05JjBDGYDQQCSnsCHBZPBO1awQCMzlMDtFHzB
wiTWQCDIqsDWRofBwk39QCpS979iuI/Br7HaQER1P8BndJfBjnJcQLeyX0BQX5PBLxDFQNoGa0CH
np7Bn2ilQK7gvz9hD5DBMShTQD2Uq0C3Y4PBOrFMQGE3w0AzA4/B3DRcQMavjUAvgaTBHcHtQAA8
FEEjOK/Be/MAQSY2DkHDmqXB6dLAQJy1E0GoA7DBtjPpQDCRB0FkyZzBzQaoQNsmDUEpNKfBw+za
QLTh5Ly5N4bBrrgGQfo6yD8n6HzBuVQCQajiI79N7GzBQAnbQMpyoj8cMavBogqhQDp8dL7fDabB
IZTkQN/Ykr+YlazBH4TuQEmMnz9lS4bB9pPmQFLZer/g0HzBK0oMQYolHz++IG3BJxSxQI74iD/J
T6fBNNO7QMjhBkHtkJ3Bh9H0QFarIz4yxK3BaKa6QFojrL8AvqjBzF3iQMWTD0CkaY7B5i/SQF6+
E8BnMHzB0DzBQK66ukDMjJDB2LqQQLeQ3kDlr4TB3/izQICn50C0vozBUlabQItanUC4b43B/Rkc
QcQDfT+3xlvBVZh2QNWPXsA4F43BHGkZQQt4fsCYB4jBOWKVQBclEECUQaTB3taaQEHslMA8HI7B
gGwKQckrfsCTy5HBBUa/QPPPkcDr2IXBlNPvQDcsPsAHT5DB6eKIQPuHgkD6sZbBvyaqQCIQRkDA
S5vBZ3W5QJqYDECyxZLBgQTWQJjjT8BTgYbB1nBzQOsCukCxQonBjfj7QFUTR0AMGZHBbBu/QBqL
JsDHsmvBlrBzQIcvnkBc+57B6jmhQMBgAEFGTZXByp4OQUu6sj7IULHBc/mqQN4pJsCekqfBwGEA
QahBGUHf+7XBTy4SQTWwDkG6/aTBcmCxQDlXGEFeY7fBMcD4QMb7AkExa5XBn4+FQOjrDEHl1KfB
EAXDQFbdi74TJIzBNE4OQXM4IkC3BX3B6TsGQVoJrb9zhmDBYlbnQAJUEUAKL6zB5AyBQGqAyL7T
BaPB50X4QGao/7+mn67ByDbGQLJsukDiQpnBVMDeQPNjsECrgozBfVOeQPRV1kCUq3nBBMl2QItb
+kBI2IPBChLPQKQs+EBK8IjB4fSlQCKMh0AWD4fBFIYTQWczuD+HNE7B2IMkQUltqj1HXlbBEMYn
QX7M2j+CImLBBKdDQAJFZcA4G5PBTi1aQHqkXsAeCoXB3XKMQBP6IcBDZY7B42smQQZalsBBV4nB
KjYgQd0nPsCH6YbB5U8QQUdfiMD92YDByrKQQPHXOEAoV6vBh2NsQEHw8D/McqHBnl2JQO0Ns8Aj
14zB07moQLm4lMBHMpbBpacTQQonbMDt8JjBYcEDQd1en8Bk4ZLBRLexQEpplcBxjXvB5lfWQNy2
q8BvWIfBM0D9QM2M+r+Ts4/BOK7aQNjtQcABVJfB2+1bQL1iX0AFipPBOxnFQKyFakDDp57B+CKl
QGlMwT8Z8Y/BqP1QQG8tq0BDoYPBcsVMQN6Zw0DIKo/B2QFdQMGEjUCdq6TBckztQA9HFUF0SK/B
9o0AQTztD0F9hqXBGILAQMvmE0GHSrDBgTXoQF0jCUEXxZzBZ4GnQNE6DUFTiqfBBQ3eQIJDkj3L
1YXB8gIHQVyB3D+42XvBvrYDQYwP+r7UyWvBYujcQHE3rT8x2qrBcvCjQN2kT74D7KXBW6voQHrG
hr86LazBKgjwQDrgrj8K5IXB1ZbqQPFKXb/s/nvBwHAMQV7XTj+Xk2vBEfGyQH8+jz8rGqfBd/m6
QKKuB0HWwJ3Bv9T3QIdxiD6QS63BRbO+QOuQpL8OhajBwDLjQJTnFUB8Ho7BxuLXQKdoDcD+snvB
iJTAQBDivECUjJDB7UqPQPm44EAl5oTBi86yQBvP6UBl4IzBML+aQPhTn0Dweo3B4GwcQSW1mD/1
gFrBQ18YQfAlkMAPGYnB3AFiQFrEjsATN4zB00SWQBPMEUCDD6TBA34UQYKiQ8ApwozBnayaQJ8s
cMA68o7BacD5QN5ONcC9pI/BLRO/QE1ch8DlnIfBEO6IQJvyg0DptpbBt6GqQB4bSUDOKZvBw2C6
QAPPEEDUiZLBCu7cQGHdRsA1c4bBx3VxQG3qu0CZeonBezb8QFlTTkBx15DB8uzBQAqnIMCsJmzB
wwJ0QLcln0BCHJ/BoCugQBcvAUFjiZXBhSoQQXg/+j7WprDBHR+wQMsrI8AAfafBLjsAQf9vGkGG
/rXB7LoRQdwHEUEkwaTBzFSxQKb3F0FRyLfBpX73QD0IBUE/TJXBgCKFQIhaDEF7VKjBxqfGQKTy
T76gzYvBRFgOQRrULECHJXzBahYIQf8emb8Afl/B+VXoQMRaF0Be2KvBS+aDQIhKxL7oBaPBiTz9
QGtp8b/EH67BffTFQO9TvECtPpnB7vvdQIfmskClZ4zBWZmcQFfH2EDZ/nnBbn5zQHxm/EC1KITB
K5rNQDe2+kCUConBVDilQDniiUD3AofBDPETQam30D+ww0zBzDwlQbrXmD4lSFXBdLwnQb0N9z+n
CmHBx18pQVxjlMDpFYfBOYUOQavwlsCTAYLBCf4TQTZFpsBDlY/BTOwuQDBZg8AgjpHB5zdqQCR7
scDkP43Bg55QQC3hh8AJ3YPBNdeQQA/xOUA/KavBUfpuQAAe8T8gL6HBzPYYQUi+F8BlQIbBnG8e
QV5nNsAW1JPBXyWjQJr9fcClT5fBrliWQKzJKsDK7I3BH3X1QMbO5L+0KZLBIijxQM80YMAvSJbB
OjayQKeKkMDPf3/BLn/PQI7uosCKOovBMBNcQNkDYkC5lJPBQF/FQL3cbUAzk57BBnmmQKxeyD85
sI/B7otOQPsorUBS4YPBullLQBo3xUCCeI/BUxleQMAojkBmyaTBtVvrQOeBFUF7uq/BDxwAQe5w
EEGoEabBVIe+QJLOE0Htd7DBeVfoQDSWCUHzJZ3BuI6mQEoGDUFKj6fB0GHdQMi4rrzOmIXBD4AI
Qcapyz+uUn3BX7cEQbGnFb8VLGzBEH3aQJDKpz/ZRqvBseahQDM+Zb42raXBSFzlQGXljL+bhqzB
9vTwQPY5oD9rKYbBxcbpQAMWcL/WJXvBR60OQRDDLD9pXW3B5wqxQFzNiz+dIqfBoRm7QNu5B0H8
353Bj7T0QJzbWj7t5a3BFPa7QJa9qL88aajBRJrjQCQyD0DCT47BZGrTQD1WDsAKMHnBj8vBQDFA
vEBA6JDBBkySQDJT4EDOyoTBR+K0QH066UB5CY3BnpGcQCHCnkDDW43BuM0eQTKIij9QkVzBqox7
QGriesBXeIzBbOYMQdCIhcDEopfB6TmVQK6+EEAC5qPB2vWtQHyIgcDTl47BpV8MQSJkP8Cqzo/B
keHGQHc/j8BBZITB7/IIQX3HXsDsOoTBKmeJQC3IgkAITZbBnWuqQBUwRkBV8prBGj66QNleDECW
c5LBTXbkQKMcWsBh4oDBvS92QPyJu0DdKonB6Kr8QMJIR0BzHpHBBUSvQEN7DcDal3HBy2VyQDOO
nUA+o57BmUmhQO8cAUEDfZXBCWEOQWPT1z5XorHBplqtQGT7JMCc/KbBz779QG+yGkGJkbbBIEwR
QXvQEUETgKXB94euQEu1F0Hg37fB12z4QGa9BUEpv5XBryeEQNHeC0HbJajBsO/EQGUYlr7STYvB
ghEQQTPkI0A3Gn7BFDkJQfTto7++wF/BihDmQAxdFECnbqzBYUeCQPdUyL5PdaLBF1n5QPaH+L8p
oa7B/FjFQP29u0BQqZnBLgDgQBEtskDmJ43BaISgQOhw2EB++XnB1tl5QLoS/EAB6oPBzlHQQLDJ
+UBfZYnB0hSoQL/FiUD/54bBGHcWQR4Wxz/OCk/B/3InQUyxRD7h5VbBxT0qQYHf5T+PiWPB8NFa
QN5tZ8A635PBnixiQPt1nMBQx4nB94xwQARxSsAJPIbBeloPQdkfc8Db0Z/BKRYaQUsvm8BbeZXB
Bkb7QG/7lsDQOJfByPOPQNbtOUCn6arBc5tsQPu78D9sAKHBQRWzQIOpmcD23pTBbUW6QBPYRMCw
U5HBEKYbQfmfHMBYR5DB1WX+QEA4FMDNBpLBZeqvQO7tlcDH3nvBDmjZQH5WrMAcJ4bBO1MOQfjT
kMCKp4PB3IwSQQO+NsAqoH3BGANeQBIaYECh15LBdUjFQKyJakDFXZ7B0wymQAlWwT+egY/BJmNU
QOb2rEAQb4PBB91OQAbLxEA7Co/B7cRaQDlHjEBEJqTBs/rqQPFuFUFUra/B5zu+QCZQE0F6d7DB
fdD/QL24EEEp+KXBYFGmQCJ6DEG2jqfBXgDoQObKCUFIDZ3BvRneQJgZKb0Oe4XBwOIIQQB1yj+U
a33BCjoFQd9+Fb9y8GvBSZraQMtGpj+mU6vB48SiQPtHfr6MeqXBrxPmQOERjr8mi6zBsaDxQLjf
nT+/KYbBm3zqQJGXcb/Xq3rBLjEPQUpkLD+0ZG3BU3GxQBIXiT9wC6fBOtm6QKKGB0EC053B+PP0
QDYEVT6sBa7BvPW8QKUdq79aSajBbubjQF8BDkBWTI7Buf/RQJlBC8C/KXfBk7bBQKm2u0Do9pDB
r3KSQMKA30CyvYTBet60QKSZ6ECnBI3B9JucQKIknkBSYI3BrE0fQem+iz9+pVzBTEp1QA2zkcDL
gpDBygIaQePWcMBelpXBE2GVQKQGD0DH0qPBJFGaQJPjY8BKu4vBD0IEQUyiVMDDRJHBCK64QBIH
icBW24PB3D8DQXqraMCkQoXBlWWJQFcYgkBsSpbBxXuqQIbJRED35ZrBzmu6QMcwC0AkYJLBpazb
QBaxV8Da5IDB6lN2QCLZukCYJonBbsz8QM1ORkAhIpHBZ7exQPw+BsBYGGzBxEVyQGnInEDNpJ7B
DCKhQCbeAEEvbZXBx0cOQQbV2T6uArLBC6KuQH9jJsBN4abBylH9QC2sGkH6g7bBpkGuQOXuFkE6
6bfBWw8RQa9sEkFnXKXBFvmDQHYDC0HHLqjBZRL4QGMyBkH6nZXBecDFQCEtpr6VLYvB/WQQQSNg
I0BPVH7BoNwJQQIao7/Xe1/BDtzlQLzFE0B3iKzBU2qDQLtu2L5xH6LBdjX6QO4h+b/UrK7BJQDF
QC9du0DAuZnBGQrgQLqYsUAdSI3BfdKgQMFo10A073nBgDR6QKA7+0BQyoPB/V7QQGgY+UDnY4nB
r0ioQNcziUDe7obBPfIWQSwNyT+HL0/BlvonQbKlUj5921bBs7cqQafR5j95tWPBW3RKQLztgMCH
GJbBQTiMQOTZqsDL0pTB9D1PQGdCoMA6EIrBJuoaQXfFYsCyMp7BssUmQdcKTsARXpHBaAMcQTAD
m8DiTZTB+eyPQI8IOEBd2KrBahxtQMyU7D946KDBikCtQF3LRsCAMpLBQ6eIQGOcMcDub4fBKDkC
Qb9vD8Bah5LBve3uQEhrd8Ard5XBedWmQN1dksCbR3nBIf3FQHnCpcBRs4fB1zAHQXRHlsCaBITB
OPoOQbJ+QMCHCYHBxw5eQGTCXkAl0JLBf0/FQMkmaUBCVZ7BtTymQOt3vz/TXo/BModUQPAvrEBV
boPBGv5OQGM7xEBXAo/BJ5VaQDdxi0CUI6TB

>  <OMEGA_E>  (24) 
YH4nPaA0Dj3gzzo+uBGLPrjhpD4=

>  <OMEGA_NBR>  (24) 
      6786

$$$$
50210663
     RDKit          3D

 84 88  0  0  1  0  0  0  0  0999 V2000
    7.4609    9.3007  -21.9134 C   0  0  0  0  0  0  0  0  0  0  0  0
    8.0921    8.9934  -20.6927 C   0  0  0  0  0  0  0  0  0  0  0  0
    6.0589    9.2252  -22.0200 C   0  0  0  0  0  0  0  0  0  0  0  0
    7.3239    8.6011  -19.5795 C   0  0  0  0  0  0  0  0  0  0  0  0
    5.2874    8.8445  -20.9065 C   0  0  0  0  0  0  0  0  0  0  0  0
    6.7745    0.0703  -16.6642 C   0  0  0  0  0  0  0  0  0  0  0  0
    7.9594   -0.4512  -14.5969 C   0  0  0  0  0  0  0  0  0  0  0  0
    8.2280    1.7384  -15.6325 C   0  0  0  0  0  0  0  0  0  0  0  0
    6.6560    1.1490  -21.4749 C   0  0  0  0  0  0  0  0  0  0  0  0
    4.8156   -0.2521  -20.6866 C   0  0  0  0  0  0  0  0  0  0  0  0
    6.8144   -1.2820  -21.6293 C   0  0  0  0  0  0  0  0  0  0  0  0
    7.0998   -0.8448  -15.6417 C   0  0  0  0  0  0  0  0  0  0  0  0
    7.3403    1.3639  -16.6655 C   0  0  0  0  0  0  0  0  0  0  0  0
    8.5173    0.8407  -14.5862 C   0  0  0  0  0  0  0  0  0  0  0  0
    5.3714    1.0264  -20.9038 C   0  0  0  0  0  0  0  0  0  0  0  0
    5.9088    8.5178  -19.6847 C   0  0  0  0  0  0  0  0  0  0  0  0
    7.3766   -0.0058  -21.8362 C   0  0  0  0  0  0  0  0  0  0  0  0
    5.5332   -1.4036  -21.0555 C   0  0  0  0  0  0  0  0  0  0  0  0
    6.5313   -2.2023  -15.6428 C   0  0  0  0  0  0  0  0  0  0  0  0
    6.9967    2.3151  -17.7342 C   0  0  0  0  0  0  0  0  0  0  0  0
    7.8384   -4.0872  -18.4824 C   0  0  0  0  0  0  0  0  0  0  0  0
    6.8765   -5.1227  -17.8836 C   0  0  0  0  0  0  0  0  0  0  0  0
    6.0382    5.8938  -18.1631 C   0  0  0  0  0  0  0  0  0  0  0  0
    7.3130   -2.7306  -18.0209 C   0  0  0  0  0  0  0  0  0  0  0  0
    4.5642    6.9870  -16.6055 C   0  0  0  0  0  0  0  0  0  0  0  0
    5.6595    7.2833  -17.6175 C   0  0  2  0  0  0  0  0  0  0  0  0
    5.9688   -4.3413  -16.9132 C   0  0  2  0  0  0  0  0  0  0  0  0
    4.8834    4.9635  -17.7226 C   0  0  2  0  0  0  0  0  0  0  0  0
    9.4906    1.2317  -13.4978 C   0  0  0  0  0  0  0  0  0  0  0  0
    2.4851   -2.9730  -17.2437 C   0  0  0  0  0  0  0  0  0  0  0  0
    4.5806    2.2589  -20.5242 C   0  0  0  0  0  0  0  0  0  0  0  0
    4.5492   -4.1859  -17.4943 C   0  0  0  0  0  0  0  0  0  0  0  0
    4.2740    4.1041  -18.8461 C   0  0  2  0  0  0  0  0  0  0  0  0
    5.2861    3.0965  -19.4329 C   0  0  1  0  0  0  0  0  0  0  0  0
    6.6077   -3.0229  -16.7701 N   0  0  0  0  0  0  0  0  0  0  0  0
    5.7619    2.2016  -18.3645 N   0  0  0  0  0  0  0  0  0  0  0  0
    3.8395    5.8514  -17.1797 N   0  0  0  0  0  0  0  0  0  0  0  0
    6.0283   -2.6322  -14.6108 O   0  0  0  0  0  0  0  0  0  0  0  0
    7.7902    3.1961  -18.0460 O   0  0  0  0  0  0  0  0  0  0  0  0
    3.7698    4.9514  -19.8799 O   0  0  0  0  0  0  0  0  0  0  0  0
    5.0845    8.1295  -18.6414 O   0  0  0  0  0  0  0  0  0  0  0  0
    3.7695   -3.2883  -16.6815 O   0  0  0  0  0  0  0  0  0  0  0  0
    8.6071    0.1101  -22.3842 F   0  0  0  0  0  0  0  0  0  0  0  0
    4.9961   -2.6266  -20.8477 F   0  0  0  0  0  0  0  0  0  0  0  0
    8.0523    9.5945  -22.7681 H   0  0  0  0  0  0  0  0  0  0  0  0
    9.1670    9.0586  -20.6101 H   0  0  0  0  0  0  0  0  0  0  0  0
    5.5754    9.4595  -22.9569 H   0  0  0  0  0  0  0  0  0  0  0  0
    7.8104    8.3634  -18.6450 H   0  0  0  0  0  0  0  0  0  0  0  0
    4.2113    8.8025  -20.9888 H   0  0  0  0  0  0  0  0  0  0  0  0
    6.0908   -0.2192  -17.4484 H   0  0  0  0  0  0  0  0  0  0  0  0
    8.1909   -1.1437  -13.8012 H   0  0  0  0  0  0  0  0  0  0  0  0
    8.6865    2.7162  -15.6449 H   0  0  0  0  0  0  0  0  0  0  0  0
    7.0858    2.1269  -21.6347 H   0  0  0  0  0  0  0  0  0  0  0  0
    3.8383   -0.3463  -20.2367 H   0  0  0  0  0  0  0  0  0  0  0  0
    7.3659   -2.1668  -21.9108 H   0  0  0  0  0  0  0  0  0  0  0  0
    8.8605   -4.2509  -18.1100 H   0  0  0  0  0  0  0  0  0  0  0  0
    7.8343   -4.1480  -19.5807 H   0  0  0  0  0  0  0  0  0  0  0  0
    6.2755   -5.5909  -18.6770 H   0  0  0  0  0  0  0  0  0  0  0  0
    7.4376   -5.8986  -17.3423 H   0  0  0  0  0  0  0  0  0  0  0  0
    6.1187    5.9178  -19.2599 H   0  0  0  0  0  0  0  0  0  0  0  0
    6.9926    5.5562  -17.7328 H   0  0  0  0  0  0  0  0  0  0  0  0
    8.1429   -2.0301  -17.8459 H   0  0  0  0  0  0  0  0  0  0  0  0
    6.6249   -2.3050  -18.7662 H   0  0  0  0  0  0  0  0  0  0  0  0
    4.9967    6.7202  -15.6299 H   0  0  0  0  0  0  0  0  0  0  0  0
    3.8984    7.8545  -16.4866 H   0  0  0  0  0  0  0  0  0  0  0  0
    6.5249    7.7566  -17.1306 H   0  0  0  0  0  0  0  0  0  0  0  0
    5.9216   -4.8609  -15.9448 H   0  0  0  0  0  0  0  0  0  0  0  0
    5.2515    4.2975  -16.9282 H   0  0  0  0  0  0  0  0  0  0  0  0
   10.5119    0.9608  -13.8037 H   0  0  0  0  0  0  0  0  0  0  0  0
    9.4345    2.3172  -13.3285 H   0  0  0  0  0  0  0  0  0  0  0  0
    9.2337    0.7020  -12.5686 H   0  0  0  0  0  0  0  0  0  0  0  0
    1.9488   -2.2866  -16.5719 H   0  0  0  0  0  0  0  0  0  0  0  0
    2.6218   -2.4938  -18.2243 H   0  0  0  0  0  0  0  0  0  0  0  0
    1.9014   -3.8973  -17.3655 H   0  0  0  0  0  0  0  0  0  0  0  0
    4.4485    2.8840  -21.4196 H   0  0  0  0  0  0  0  0  0  0  0  0
    3.5958    1.9451  -20.1476 H   0  0  0  0  0  0  0  0  0  0  0  0
    4.6178   -3.7831  -18.5156 H   0  0  0  0  0  0  0  0  0  0  0  0
    4.0585   -5.1700  -17.5204 H   0  0  0  0  0  0  0  0  0  0  0  0
    3.4424    3.5285  -18.4136 H   0  0  0  0  0  0  0  0  0  0  0  0
    6.1296    3.6431  -19.8798 H   0  0  0  0  0  0  0  0  0  0  0  0
    5.1559    1.4618  -18.0721 H   0  0  0  0  0  0  0  0  0  0  0  0
    3.3098    5.3802  -16.4744 H   0  0  0  0  0  0  0  0  0  0  0  0
    3.2264    6.1583  -17.9077 H   0  0  0  0  0  0  0  0  0  0  0  0
    3.3946    4.4191  -20.5715 H   0  0  0  0  0  0  0  0  0  0  0  0
  1  2  2  0
  1  3  1  0
  2  4  1  0
  3  5  2  0
  4 16  2  0
  5 16  1  0
  6 12  2  0
  6 13  1  0
  7 12  1  0
  7 14  2  0
  8 13  2  0
  8 14  1  0
  9 15  2  0
  9 17  1  0
 10 15  1  0
 10 18  2  0
 11 17  2  0
 11 18  1  0
 12 19  1  0
 13 20  1  0
 14 29  1  0
 15 31  1  0
 16 41  1  0
 17 43  1  0
 18 44  1  0
 19 35  1  0
 19 38  2  0
 20 36  1  0
 20 39  2  0
 21 22  1  0
 21 24  1  0
 22 27  1  0
 23 26  1  0
 23 28  1  0
 24 35  1  0
 25 26  1  0
 25 37  1  0
 26 41  1  0
 27 32  1  0
 27 35  1  0
 28 33  1  0
 28 37  1  0
 30 42  1  0
 31 34  1  0
 32 42  1  0
 33 34  1  0
 33 40  1  0
 34 36  1  0
  1 45  1  0
  2 46  1  0
  3 47  1  0
  4 48  1  0
  5 49  1  0
  6 50  1  0
  7 51  1  0
  8 52  1  0
  9 53  1  0
 10 54  1  0
 11 55  1  0
 21 56  1  0
 21 57  1  0
 22 58  1  0
 22 59  1  0
 23 60  1  0
 23 61  1  0
 24 62  1  0
 24 63  1  0
 25 64  1  0
 25 65  1  0
 26 66  1  1
 27 67  1  1
 28 68  1  1
 29 69  1  0
 29 70  1  0
 29 71  1  0
 30 72  1  0
 30 73  1  0
 30 74  1  0
 31 75  1  0
 31 76  1  0
 32 77  1  0
 32 78  1  0
 33 79  1  1
 34 80  1  6
 36 81  1  0
 37 82  1  0
 37 83  1  0
 40 84  1  0
M  CHG  1  37   1
M  END
>  <OMEGA_C>  (25) 
pb/uQMvPFEG9Tq/BY3kBQdPkD0G0iqXBc+LBQF2aE0EJKbDBY13qQBGeCUHQopzBAzKpQCODDUFq
QKfB6MjYQIgAkD0zUIXBD7P+QFIE577njGnBC6YDQW6F3j+mHnrBN/7UQNwTkz+rzKvBKxmaQAAO
gb43fqXBYg/aQAgYpL/cCK3BijHjQFlDWL+ERHrBVuPqQFCUrj/YUoXBuEYIQbQ4Vz82YWnBneKr
QL9fgz8DO6fBfxS9QNVICEFTep3BKw3sQPD8vrt5sK7B9Q+xQEKps7+9cajBgQDRQEHyDMDlSHrB
H+XfQD8rFECw343Bj9T6QB3KgsDj25PBHwzcQN7so8CLEY/BPTnBQEiavEAeTpHBRQTqQCLCLsDD
KpDBNQ6SQD2V30AT2ITBrRq1QIUQ6UCL8IzBIgC/QD7sisA0TofB10ScQKrUnkDWx43BlNkXQc6p
nT/N9lfBwAsfQOtEPsAG84nBA5SSQLOREEB9MaTBapORQJbyhcBD9IvBAcWIQHdUg0DgxJbBqyep
QKctRkCCdpvBF3LTQK12QcAtKYbBamG4QM/mDEBt6pLBtLl1QP4+u0AOcInBuufAQIl1KMDDxWnB
nUn5QJiNTEBMXpDB2ENxQDRynkATCp/BhrSiQFYSAkGDIZXB+D9xQDhzUsC6c4XBjbYJQXqU4T3s
ErPBTOCfQGMaKMAuyKbBDNYAQe+CGUEKJbbBA6wSQeDvEEGC4aTB+WmyQDFaF0HIp7fBdO75QErQ
BUEDKZXBH8OGQALXDEEL6afBcefCQHltYL5alovBDQ4DQfhkkr+E0VzB6PsKQbDWLUCtUXrBNb/i
QIYeCEDtE63BL6Z1QHRKsb7X5KHBoLXrQIatCsBRSa/Bb8QNQVYHiMAx4ZDBQ7L6QMe8hMA4pZzB
JtHIQAjpssCLapXBygDuQKLBvMDyvIrBSszDQIFevUBZFJrBUsPfQH7MsUC53I3BZUkCQbbtAcBm
xI7Bkf/TQFuFE8AVIZbBROWfQBgM10AaFHrBg395QKxX+0B/5IPBYszQQPM1+ECSC4nB6H29QHqM
m8DDHX/BcQyoQP2EiUAKbYfBrjAoQVT5dT8b3FzBovMWQc9MFEBeQVXBHL0TQVCzMz8MGUnB+nD5
P4pXEsBFk4TBHswnQMGZH8Bky5HBG2DzP5VtecB07IrBbVqOQLWTOEBTW6vB7CFmQDz4+D9PLqHB
BMWTQLMdcsDiH5TBfd+BQJhwpcDWKYzBb1BcQEzSYUAbT5PB8yXEQFgoaUDDCZ/BLv2kQIYbuz+3
k5DBjdRTQMwqrECSy4PBjnxOQL8QxUDwQo/BjkBZQAZpjUB3kqTB9RfvQCyYFUEfQa/B8U/CQNsZ
FEHcP7DBgHkBQWeIEEEOd6XBrF2pQDyVDUEydafBbiHqQG/QCUGprpzBdlHZQJWyqT0WbYXB5yT/
QJRv6r7L2WnBRgkEQZaR3j9CK3rB42zVQC1Wlz9vZqvBc6eaQFrfeL58X6XBZ/baQF9Kn78X+KzB
vYnjQATuVr9WmXrBKKPrQGe7rz+PX4XB/o8IQd4NVT+NfmnBrUOsQKRMhT+H5abB5Oq8QIE3CEGf
p53BasrsQHpRHT3DZq7B9M+xQMEOsb+JfajBLsHQQAAVDMDzpnrBz4TgQCvsFEAo4o3BNQ38QIgy
g8CKZJPBMgbcQPoCpMBYCo/BqA/BQPaFvEA7I5HBdpnpQLN5L8B0VJDBbs2RQCZh4ECa5ITB+dO0
QApM6UCqB43BseW+QMQKi8BTRofBTaObQKJAn0AFqI3BB+wXQRlrmz950lfBLy0dQP2zQ8DamonB
OGqSQLOvEED22qPBbCWRQAyGh8DBwovBuT2IQOTqg0CkqZbBe9CoQEBaR0BqOZvBMTzSQG1XQMDV
YobB2zK4QLNuD0B/j5LBL8d0QNz8u0CqYYnB2NXAQGNbJ8AXE2rB55/6QJbMSkBdw5DBQSxxQPYH
n0Cs/p7B/EmiQCe7AUFbZpXBUW9vQGqiV8A7HYXB5BoKQV5PMD5WurLBMJGgQBgmJ8CGIqfB0BoB
QS6fGkHL/7XBChizQIH1F0FVw7fBTqMSQSbOEUG/sKTBh/2GQLCvDEFwOqjBQ3j5QFveBUELMpXB
k2XDQO7MSr5Zt4vBxkQDQQxLlL8kO13BZXILQWC5LUCnRXrB+fniQOCXCkDWiqzBJbh2QLeDs74s
z6HBttnsQF3BB8AtTq/Bo9gNQSDKh8Auto/BPd3+QP0EhsDcIpzBygnJQNjCscDompXBfOTsQA7K
vcBwyIrBwFLEQCSlvEBT5pnBVUPfQDDNsUCHf43B/KUBQQuNAMCCAI/BI9zTQIq8F8AolZbB3aaf
QMQZ2EDWJHrB3lF5QFtM/ECpAYTBSXTQQIjv+EBkOonBEEW+QEIcm8Cv5H7B7gKnQGPdiUCDRYfB
WVIoQeD2cT/filzBRP8WQT0XE0CC/FTB050TQelZLT8BFEnBOgj0P5xUGcANH4TBkdYlQNNeI8C4
WJHBLl7xP04of8DPyYrBx5SNQD09OEC9CKvBKmNmQEJJ9z/awaDBtm6SQBu7dMCd6pPBwHyCQPqD
p8BT94vB/uBaQK0xY0D8QpPBUrTDQGlGakA6257B8ESkQD2jxD8/2I/BLspSQBM7rUDasYPBQZRN
QBypxUCJOY/BgEhZQOn/jUBpiaTB

>  <OMEGA_E>  (25) 
AFjAPIC4qzw=

>  <OMEGA_NBR>  (25) 
      2954

$$$$
50147869
     RDKit          3D

 84 88  0  0  1  0  0  0  0  0999 V2000
    6.5545    9.2952  -22.0311 C   0  0  0  0  0  0  0  0  0  0  0  0
    7.7756    9.1896  -21.3358 C   0  0  0  0  0  0  0  0  0  0  0  0
    5.3379    9.0445  -21.3647 C   0  0  0  0  0  0  0  0  0  0  0  0
    7.7816    8.8421  -19.9720 C   0  0  0  0  0  0  0  0  0  0  0  0
    5.3411    8.6992  -19.9991 C   0  0  0  0  0  0  0  0  0  0  0  0
    6.7644    0.0814  -16.6080 C   0  0  0  0  0  0  0  0  0  0  0  0
    8.0423   -0.4238  -14.5953 C   0  0  0  0  0  0  0  0  0  0  0  0
    8.2506    1.7639  -15.6523 C   0  0  0  0  0  0  0  0  0  0  0  0
    6.5072    1.2010  -21.4651 C   0  0  0  0  0  0  0  0  0  0  0  0
    4.8025   -0.3571  -20.6656 C   0  0  0  0  0  0  0  0  0  0  0  0
    6.8455   -1.2025  -21.6941 C   0  0  0  0  0  0  0  0  0  0  0  0
    7.1417   -0.8270  -15.6023 C   0  0  0  0  0  0  0  0  0  0  0  0
    7.3218    1.3738  -16.6423 C   0  0  0  0  0  0  0  0  0  0  0  0
    6.5661    8.6011  -19.2981 C   0  0  0  0  0  0  0  0  0  0  0  0
    8.5893    0.8747  -14.6129 C   0  0  0  0  0  0  0  0  0  0  0  0
    5.2589    0.9630  -20.8493 C   0  0  0  0  0  0  0  0  0  0  0  0
    7.3036    0.1179  -21.8773 C   0  0  0  0  0  0  0  0  0  0  0  0
    5.5905   -1.4376  -21.0973 C   0  0  0  0  0  0  0  0  0  0  0  0
    5.9948    5.8288  -18.2145 C   0  0  0  0  0  0  0  0  0  0  0  0
    6.5859   -2.1885  -15.5957 C   0  0  0  0  0  0  0  0  0  0  0  0
    6.9361    2.2952  -17.7154 C   0  0  0  0  0  0  0  0  0  0  0  0
    7.7096   -4.0200  -18.5946 C   0  0  0  0  0  0  0  0  0  0  0  0
    6.8980   -5.0782  -17.8335 C   0  0  0  0  0  0  0  0  0  0  0  0
    7.2924   -2.6692  -18.0071 C   0  0  0  0  0  0  0  0  0  0  0  0
    4.6046    7.0028  -16.7503 C   0  0  0  0  0  0  0  0  0  0  0  0
    4.8384    4.9359  -17.7529 C   0  0  2  0  0  0  0  0  0  0  0  0
    5.9727   -4.2977  -16.8892 C   0  0  2  0  0  0  0  0  0  0  0  0
    9.6020    1.2828  -13.5667 C   0  0  0  0  0  0  0  0  0  0  0  0
    2.4619   -2.9999  -17.1825 C   0  0  0  0  0  0  0  0  0  0  0  0
    4.4028    2.1161  -20.3907 C   0  0  0  0  0  0  0  0  0  0  0  0
    6.5880    8.2503  -17.8223 C   0  0  0  0  0  0  0  0  0  0  0  0
    4.5640   -4.1315  -17.4911 C   0  0  0  0  0  0  0  0  0  0  0  0
    4.2095    4.0954  -18.8726 C   0  0  2  0  0  0  0  0  0  0  0  0
    5.1637    3.0038  -19.3895 C   0  0  1  0  0  0  0  0  0  0  0  0
    5.8140    7.0407  -17.5681 N   0  0  0  0  0  0  0  0  0  0  0  0
    6.6236   -2.9892  -16.7392 N   0  0  0  0  0  0  0  0  0  0  0  0
    5.6643    2.1797  -18.2762 N   0  0  0  0  0  0  0  0  0  0  0  0
    3.8319    5.8765  -17.2607 N   0  0  0  0  0  0  0  0  0  0  0  0
    6.8195    5.6112  -19.0951 O   0  0  0  0  0  0  0  0  0  0  0  0
    6.1078   -2.6283  -14.5566 O   0  0  0  0  0  0  0  0  0  0  0  0
    7.7447    3.1249  -18.1140 O   0  0  0  0  0  0  0  0  0  0  0  0
    3.8324    4.9499  -19.9551 O   0  0  0  0  0  0  0  0  0  0  0  0
    3.7604   -3.2924  -16.6400 O   0  0  0  0  0  0  0  0  0  0  0  0
    8.5055    0.3467  -22.4524 F   0  0  0  0  0  0  0  0  0  0  0  0
    5.1452   -2.7022  -20.9280 F   0  0  0  0  0  0  0  0  0  0  0  0
    6.5507    9.5685  -23.0759 H   0  0  0  0  0  0  0  0  0  0  0  0
    8.7072    9.3754  -21.8496 H   0  0  0  0  0  0  0  0  0  0  0  0
    4.4034    9.1172  -21.9011 H   0  0  0  0  0  0  0  0  0  0  0  0
    8.7182    8.7599  -19.4406 H   0  0  0  0  0  0  0  0  0  0  0  0
    4.4091    8.5093  -19.4875 H   0  0  0  0  0  0  0  0  0  0  0  0
    6.0443   -0.2139  -17.3568 H   0  0  0  0  0  0  0  0  0  0  0  0
    8.3137   -1.1119  -13.8083 H   0  0  0  0  0  0  0  0  0  0  0  0
    8.7016    2.7444  -15.6920 H   0  0  0  0  0  0  0  0  0  0  0  0
    6.8498    2.2135  -21.6192 H   0  0  0  0  0  0  0  0  0  0  0  0
    3.8482   -0.5384  -20.1935 H   0  0  0  0  0  0  0  0  0  0  0  0
    7.4567   -2.0346  -22.0113 H   0  0  0  0  0  0  0  0  0  0  0  0
    8.7871   -4.1851  -18.4472 H   0  0  0  0  0  0  0  0  0  0  0  0
    7.4764   -4.0585  -19.6689 H   0  0  0  0  0  0  0  0  0  0  0  0
    6.3060   -5.6843  -18.5351 H   0  0  0  0  0  0  0  0  0  0  0  0
    7.5680   -5.7336  -17.2577 H   0  0  0  0  0  0  0  0  0  0  0  0
    8.1750   -2.0374  -17.8286 H   0  0  0  0  0  0  0  0  0  0  0  0
    6.6012   -2.1499  -18.6872 H   0  0  0  0  0  0  0  0  0  0  0  0
    4.8598    6.8472  -15.6917 H   0  0  0  0  0  0  0  0  0  0  0  0
    4.0376    7.9394  -16.8569 H   0  0  0  0  0  0  0  0  0  0  0  0
    5.1812    4.2754  -16.9428 H   0  0  0  0  0  0  0  0  0  0  0  0
    5.9054   -4.8141  -15.9203 H   0  0  0  0  0  0  0  0  0  0  0  0
   10.6128    1.0196  -13.9117 H   0  0  0  0  0  0  0  0  0  0  0  0
    9.5419    2.3688  -13.4023 H   0  0  0  0  0  0  0  0  0  0  0  0
    9.3878    0.7570  -12.6245 H   0  0  0  0  0  0  0  0  0  0  0  0
    1.9073   -2.3582  -16.4821 H   0  0  0  0  0  0  0  0  0  0  0  0
    2.5755   -2.4795  -18.1449 H   0  0  0  0  0  0  0  0  0  0  0  0
    1.9089   -3.9383  -17.3362 H   0  0  0  0  0  0  0  0  0  0  0  0
    4.1173    2.7216  -21.2636 H   0  0  0  0  0  0  0  0  0  0  0  0
    3.4975    1.7217  -19.9061 H   0  0  0  0  0  0  0  0  0  0  0  0
    7.6286    8.0862  -17.5057 H   0  0  0  0  0  0  0  0  0  0  0  0
    6.1566    9.0826  -17.2469 H   0  0  0  0  0  0  0  0  0  0  0  0
    4.6453   -3.6696  -18.4862 H   0  0  0  0  0  0  0  0  0  0  0  0
    4.0884   -5.1191  -17.5831 H   0  0  0  0  0  0  0  0  0  0  0  0
    3.3145    3.6011  -18.4669 H   0  0  0  0  0  0  0  0  0  0  0  0
    6.0074    3.4834  -19.9073 H   0  0  0  0  0  0  0  0  0  0  0  0
    5.0493    1.4890  -17.8958 H   0  0  0  0  0  0  0  0  0  0  0  0
    3.2872    5.4620  -16.5316 H   0  0  0  0  0  0  0  0  0  0  0  0
    3.2284    6.1689  -18.0025 H   0  0  0  0  0  0  0  0  0  0  0  0
    3.4430    4.4301  -20.6485 H   0  0  0  0  0  0  0  0  0  0  0  0
  1  2  2  0
  1  3  1  0
  2  4  1  0
  3  5  2  0
  4 14  2  0
  5 14  1  0
  6 12  2  0
  6 13  1  0
  7 12  1  0
  7 15  2  0
  8 13  2  0
  8 15  1  0
  9 16  2  0
  9 17  1  0
 10 16  1  0
 10 18  2  0
 11 17  2  0
 11 18  1  0
 12 20  1  0
 13 21  1  0
 14 31  1  0
 15 28  1  0
 16 30  1  0
 17 44  1  0
 18 45  1  0
 19 26  1  0
 19 35  1  0
 19 39  2  0
 20 36  1  0
 20 40  2  0
 21 37  1  0
 21 41  2  0
 22 23  1  0
 22 24  1  0
 23 27  1  0
 24 36  1  0
 25 35  1  0
 25 38  1  0
 26 33  1  0
 26 38  1  0
 27 32  1  0
 27 36  1  0
 29 43  1  0
 30 34  1  0
 31 35  1  0
 32 43  1  0
 33 34  1  0
 33 42  1  0
 34 37  1  0
  1 46  1  0
  2 47  1  0
  3 48  1  0
  4 49  1  0
  5 50  1  0
  6 51  1  0
  7 52  1  0
  8 53  1  0
  9 54  1  0
 10 55  1  0
 11 56  1  0
 22 57  1  0
 22 58  1  0
 23 59  1  0
 23 60  1  0
 24 61  1  0
 24 62  1  0
 25 63  1  0
 25 64  1  0
 26 65  1  1
 27 66  1  1
 28 67  1  0
 28 68  1  0
 28 69  1  0
 29 70  1  0
 29 71  1  0
 29 72  1  0
 30 73  1  0
 30 74  1  0
 31 75  1  0
 31 76  1  0
 32 77  1  0
 32 78  1  0
 33 79  1  1
 34 80  1  6
 37 81  1  0
 38 82  1  0
 38 83  1  0
 42 84  1  0
M  CHG  1  38   1
M  END
>  <OMEGA_C>  (26) 
jb7RQB65FEGfP7DB+9H4QLIIE0Gjr6rBH9CqQFS2EEHq6qrBmQL5QFh5DUGhxp/BouqqQMUvC0EX
/p/BDHbYQCKjpj0q3YTBZq0AQej+2L4thmnBcAIEQbvH4T/kb3rBIzvQQGy5mT90uKvBAq6ZQHjP
tr4TU6XBvA7bQOvqmb+Pja3B84jkQEG4U7/qonnB30vqQPvXrz95I4XBOh3SQC+eCUFyYprBu20J
QffuXz9YzmnB5EioQDKGdj9Gy6bB9bbpQO5l8T24BK/BCuWyQNEEuL8/x6jBFtW/QO+FukBjt5HB
1L/SQGoQDMD+h3nB7/TdQN3kEkApuY3BIrX2QPGjgMDUwZTBPrzcQISAosALq47BtFvpQOjTKsB3
DpDBRVmTQDoX4ECWAIbBgdSaQNHynUD5BY7BkSC/QPGGicArHYfBuKEZQcMxpD8aEVnBJY8dQDT+
P8DSdYnByeOMQIhuB0AwIKPBQ9HSQDYBBEEplI7BngySQGo1hMDg7YvBH7SGQMYNg0AU+5bB3Dyl
QNc+QEClHZvBDAy6QD5N4UCCi4zBpvTTQH5OP8Db6YXB4UG1QOd/C0ClNZLBWj11QDUMvEDmFYrB
/zjaQI6Os0CtwpjBFnPDQP81KMC652jBvtT3QCr/R0Bm6ZDBZUV1QDFlnkAZpJ/BqalwQOe2UsCm
HoXBqBYIQSp9sT59nrPBI6WkQBXwLMB5bKfBtJ/RQLgYGUFvm7jB0lALQcUBFkHqy67BfOiMQCfg
EUGONa/BvH0LQWIoDEFghpvBfBeNQEsmCEFn5pvB3mrBQEb8Wr6u2orBAwUFQURUjr/97lzBqTkL
QeGkL0BwEnvBtjHbQGiqDUAi9KzBskh2QBHUCb9YjKHBDZ3uQBs2AsAYF7DBBZgMQXrshcDyk5PB
UT7vQDXfgcD8WZ3BwsrJQPjltcDOR5TBTy3yQGN5t8DfD4rB4cwCQQVkAsDxoI7BUj3TQPqXCcBe
f5XBo4ObQF4c20AUEXvBFDSBQE0P/kD+2obBB8ylQPHPiEDfiofBA/m8QFYNmsCruX7B5M0pQXqC
gj9xll7ByqsYQdKZF0Dub1bBgzQWQazHQT8L/knBCCL0Pz7sFsBI24PBBdUkQKCvHsDaKJHBeFf0
P2MNfMCBsIrBocCDQA8uLkDVG6rBUddfQF5f3D+yP5/Bxx30QCRhAUG3C4zB3QLFQGFSEUG1+YnB
/qWUQALbasCp45PB89OCQJPPo8AhqozBziBUQDR4ZkAfvJPB8DzAQMXvXkASQp/BBpShQJGWvj+H
Ko/B9WBSQAPJrkDIQITBRZ5OQJpnxUAzBZDBuVlcQKnDjUAjMKXB

>  <OMEGA_E>  (26) 
OMpIPg==

>  <OMEGA_NBR>  (26) 
      4647

$$$$
50147868
     RDKit          3D

 88 92  0  0  1  0  0  0  0  0999 V2000
    6.1095    9.4803  -22.2925 C   0  0  0  0  0  0  0  0  0  0  0  0
    7.4535    9.4690  -21.8704 C   0  0  0  0  0  0  0  0  0  0  0  0
    5.0871    9.1082  -21.3996 C   0  0  0  0  0  0  0  0  0  0  0  0
    7.7784    9.0744  -20.5585 C   0  0  0  0  0  0  0  0  0  0  0  0
    5.4076    8.7225  -20.0861 C   0  0  0  0  0  0  0  0  0  0  0  0
    6.7443    0.0423  -16.6796 C   0  0  0  0  0  0  0  0  0  0  0  0
    7.8830   -0.5682  -14.6192 C   0  0  0  0  0  0  0  0  0  0  0  0
    8.2367    1.6381  -15.5855 C   0  0  0  0  0  0  0  0  0  0  0  0
    6.5492    1.1670  -21.4954 C   0  0  0  0  0  0  0  0  0  0  0  0
    4.8093   -0.3102  -20.6196 C   0  0  0  0  0  0  0  0  0  0  0  0
    6.8105   -1.2509  -21.6459 C   0  0  0  0  0  0  0  0  0  0  0  0
    7.0331   -0.8989  -15.6743 C   0  0  0  0  0  0  0  0  0  0  0  0
    7.3396    1.3222  -16.6391 C   0  0  0  0  0  0  0  0  0  0  0  0
    6.7613    8.6827  -19.6636 C   0  0  0  0  0  0  0  0  0  0  0  0
    5.3015    0.9861  -20.8634 C   0  0  0  0  0  0  0  0  0  0  0  0
    8.4859    0.6855  -14.5579 C   0  0  0  0  0  0  0  0  0  0  0  0
    7.3067    0.0479  -21.8790 C   0  0  0  0  0  0  0  0  0  0  0  0
    5.5582   -1.4274  -21.0227 C   0  0  0  0  0  0  0  0  0  0  0  0
    6.0377    6.0035  -18.3635 C   0  0  0  0  0  0  0  0  0  0  0  0
    6.4519   -2.2323  -15.6857 C   0  0  0  0  0  0  0  0  0  0  0  0
    6.9813    2.3159  -17.6725 C   0  0  0  0  0  0  0  0  0  0  0  0
    7.8510   -4.0946  -18.5233 C   0  0  0  0  0  0  0  0  0  0  0  0
    6.8632   -5.1292  -17.9663 C   0  0  0  0  0  0  0  0  0  0  0  0
    7.3576   -2.7498  -18.0070 C   0  0  0  0  0  0  0  0  0  0  0  0
    5.1876    7.7338  -16.7554 C   0  0  0  0  0  0  0  0  0  0  0  0
    4.3401    6.6161  -16.1458 C   0  0  0  0  0  0  0  0  0  0  0  0
    4.9713    5.0049  -17.8369 C   0  0  2  0  0  0  0  0  0  0  0  0
    5.9909   -4.3745  -16.9452 C   0  0  2  0  0  0  0  0  0  0  0  0
   10.2601    1.9305  -13.5393 C   0  0  0  0  0  0  0  0  0  0  0  0
    2.5284   -2.9219  -17.0645 C   0  0  0  0  0  0  0  0  0  0  0  0
    4.4937    2.1774  -20.4383 C   0  0  0  0  0  0  0  0  0  0  0  0
    7.1484    8.2346  -18.2590 C   0  0  0  0  0  0  0  0  0  0  0  0
    4.5590   -4.1567  -17.4779 C   0  0  0  0  0  0  0  0  0  0  0  0
    4.3243    4.1229  -18.9076 C   0  0  2  0  0  0  0  0  0  0  0  0
    5.2763    3.0356  -19.4296 C   0  0  1  0  0  0  0  0  0  0  0  0
    6.2062    7.2380  -17.7136 N   0  0  0  0  0  0  0  0  0  0  0  0
    6.6517   -3.0792  -16.7662 N   0  0  0  0  0  0  0  0  0  0  0  0
    5.7504    2.1865  -18.3200 N   0  0  0  0  0  0  0  0  0  0  0  0
    3.8695    5.7505  -17.2199 N   0  0  0  0  0  0  0  0  0  0  0  0
    6.7659    5.7009  -19.3041 O   0  0  0  0  0  0  0  0  0  0  0  0
    5.9185   -2.6520  -14.6643 O   0  0  0  0  0  0  0  0  0  0  0  0
    7.7505    3.2324  -17.9409 O   0  0  0  0  0  0  0  0  0  0  0  0
    3.8470    4.9440  -19.9757 O   0  0  0  0  0  0  0  0  0  0  0  0
    9.2568    0.9128  -13.4368 O   0  0  0  0  0  0  0  0  0  0  0  0
    3.8025   -3.3444  -16.5571 O   0  0  0  0  0  0  0  0  0  0  0  0
    8.5072    0.2221  -22.4748 F   0  0  0  0  0  0  0  0  0  0  0  0
    5.0771   -2.6704  -20.8041 F   0  0  0  0  0  0  0  0  0  0  0  0
    5.8634    9.7747  -23.3020 H   0  0  0  0  0  0  0  0  0  0  0  0
    8.2359    9.7636  -22.5542 H   0  0  0  0  0  0  0  0  0  0  0  0
    4.0568    9.1189  -21.7232 H   0  0  0  0  0  0  0  0  0  0  0  0
    8.8094    9.0715  -20.2367 H   0  0  0  0  0  0  0  0  0  0  0  0
    4.6206    8.4556  -19.3964 H   0  0  0  0  0  0  0  0  0  0  0  0
    6.0678   -0.2139  -17.4816 H   0  0  0  0  0  0  0  0  0  0  0  0
    8.0757   -1.2923  -13.8414 H   0  0  0  0  0  0  0  0  0  0  0  0
    8.7291    2.5991  -15.5636 H   0  0  0  0  0  0  0  0  0  0  0  0
    6.9214    2.1631  -21.6840 H   0  0  0  0  0  0  0  0  0  0  0  0
    3.8591   -0.4448  -20.1242 H   0  0  0  0  0  0  0  0  0  0  0  0
    7.3903   -2.1116  -21.9450 H   0  0  0  0  0  0  0  0  0  0  0  0
    8.8685   -4.2977  -18.1581 H   0  0  0  0  0  0  0  0  0  0  0  0
    7.8463   -4.1104  -19.6232 H   0  0  0  0  0  0  0  0  0  0  0  0
    6.2390   -5.5363  -18.7755 H   0  0  0  0  0  0  0  0  0  0  0  0
    7.4057   -5.9495  -17.4736 H   0  0  0  0  0  0  0  0  0  0  0  0
    8.2026   -2.0743  -17.8078 H   0  0  0  0  0  0  0  0  0  0  0  0
    6.6756   -2.2801  -18.7311 H   0  0  0  0  0  0  0  0  0  0  0  0
    4.5200    8.4303  -17.2838 H   0  0  0  0  0  0  0  0  0  0  0  0
    5.7025    8.2656  -15.9417 H   0  0  0  0  0  0  0  0  0  0  0  0
    4.9490    6.0326  -15.4395 H   0  0  0  0  0  0  0  0  0  0  0  0
    3.4795    7.0505  -15.6160 H   0  0  0  0  0  0  0  0  0  0  0  0
    5.4439    4.3566  -17.0843 H   0  0  0  0  0  0  0  0  0  0  0  0
    5.9562   -4.9326  -15.9979 H   0  0  0  0  0  0  0  0  0  0  0  0
   10.8001    2.0112  -12.5843 H   0  0  0  0  0  0  0  0  0  0  0  0
   10.9679    1.6682  -14.3395 H   0  0  0  0  0  0  0  0  0  0  0  0
    9.7828    2.8935  -13.7730 H   0  0  0  0  0  0  0  0  0  0  0  0
    2.0160   -2.3104  -16.3072 H   0  0  0  0  0  0  0  0  0  0  0  0
    2.6765   -2.3266  -17.9775 H   0  0  0  0  0  0  0  0  0  0  0  0
    1.9158   -3.8052  -17.2981 H   0  0  0  0  0  0  0  0  0  0  0  0
    4.2566    2.7868  -21.3228 H   0  0  0  0  0  0  0  0  0  0  0  0
    3.5602    1.8318  -19.9701 H   0  0  0  0  0  0  0  0  0  0  0  0
    8.1540    7.7900  -18.2933 H   0  0  0  0  0  0  0  0  0  0  0  0
    7.1581    9.1128  -17.5967 H   0  0  0  0  0  0  0  0  0  0  0  0
    4.6075   -3.6507  -18.4534 H   0  0  0  0  0  0  0  0  0  0  0  0
    4.0627   -5.1314  -17.5947 H   0  0  0  0  0  0  0  0  0  0  0  0
    3.4672    3.6140  -18.4426 H   0  0  0  0  0  0  0  0  0  0  0  0
    6.1292    3.5095  -19.9376 H   0  0  0  0  0  0  0  0  0  0  0  0
    5.1406    1.4588  -18.0059 H   0  0  0  0  0  0  0  0  0  0  0  0
    3.2076    5.1007  -16.8462 H   0  0  0  0  0  0  0  0  0  0  0  0
    3.4269    6.3124  -17.9187 H   0  0  0  0  0  0  0  0  0  0  0  0
    3.4453    4.3974  -20.6408 H   0  0  0  0  0  0  0  0  0  0  0  0
  1  2  2  0
  1  3  1  0
  2  4  1  0
  3  5  2  0
  4 14  2  0
  5 14  1  0
  6 12  2  0
  6 13  1  0
  7 12  1  0
  7 16  2  0
  8 13  2  0
  8 16  1  0
  9 15  2  0
  9 17  1  0
 10 15  1  0
 10 18  2  0
 11 17  2  0
 11 18  1  0
 12 20  1  0
 13 21  1  0
 14 32  1  0
 15 31  1  0
 16 44  1  0
 17 46  1  0
 18 47  1  0
 19 27  1  0
 19 36  1  0
 19 40  2  0
 20 37  1  0
 20 41  2  0
 21 38  1  0
 21 42  2  0
 22 23  1  0
 22 24  1  0
 23 28  1  0
 24 37  1  0
 25 26  1  0
 25 36  1  0
 26 39  1  0
 27 34  1  0
 27 39  1  0
 28 33  1  0
 28 37  1  0
 29 44  1  0
 30 45  1  0
 31 35  1  0
 32 36  1  0
 33 45  1  0
 34 35  1  0
 34 43  1  0
 35 38  1  0
  1 48  1  0
  2 49  1  0
  3 50  1  0
  4 51  1  0
  5 52  1  0
  6 53  1  0
  7 54  1  0
  8 55  1  0
  9 56  1  0
 10 57  1  0
 11 58  1  0
 22 59  1  0
 22 60  1  0
 23 61  1  0
 23 62  1  0
 24 63  1  0
 24 64  1  0
 25 65  1  0
 25 66  1  0
 26 67  1  0
 26 68  1  0
 27 69  1  1
 28 70  1  1
 29 71  1  0
 29 72  1  0
 29 73  1  0
 30 74  1  0
 30 75  1  0
 30 76  1  0
 31 77  1  0
 31 78  1  0
 32 79  1  0
 32 80  1  0
 33 81  1  0
 33 82  1  0
 34 83  1  1
 35 84  1  6
 38 85  1  0
 39 86  1  0
 39 87  1  0
 43 88  1  0
M  CHG  1  39   1
M  END
>  <OMEGA_C>  (27) 
qoDDQFevF0HyVrLBO4PuQDaBF0GE9q7BUMmiQDa7EUFOMqvB/+j4QJYwEUHZd6TBRwutQIWPC0FR
sKDBCtHXQOhpLT3Nb4XB2kH8QEZ3Eb9u6GnBoMkDQfWt0T8YXnnBXpPRQNBelT+r9qvBxeWZQKXQ
nr7l9KTBle/ZQKcdoL++Kq3B5w7hQEYhZr/fyXrBBt7qQB8/qT/JHIXBfFzYQIHsCkH/Tp3B66Wp
QK5wfD9W6KbBWsYHQRR8Lz897WjBUNDpQFgSRD0kCK/B/tyxQDm0tr+LLqjBljTBQPkcwEBw6JLB
wHXOQMjeDsCx+HrBm2bfQGY3FEA4YY3Bijv7QLwGg8CyL5TB757bQEsipMASu4/BLXHrQDz8L8BT
DpDBzwCmQEJ790D6CobBLuKKQPm200CTKoHBxhSfQBIooED5sY7BnLW/QC38i8DAj4fBkykkQaMZ
9z/ToFjBG9EhQA8BO8AOhIjBecyPQLpaC0CVgaPBs7/kQMnAA0FqEpLBW+ORQIwDhcDJ0ovBBGGK
QMzug0DYQpfBydeoQMRHQkDAb5vBMpnGQMOd50BstY3BGdvUQOUQRcBEIYbBKwO4QADvC0Bgj5LB
laV3QNkDuEBXwonBeoLYQGlttkDQbprBDWS9QPm5KcDJoGrBugP4QLzfTkDoho/BeTV2QKI1nkA7
zp/B6xsUQT6saT8g/VbBkltzQNgJVsDxdITBox0IQStwYz5izLPBh3eiQIzoKsDEbqbBBqG7QDdl
HEGAarrBEsYDQdA3HEHsbrTBGNGBQCPnEUExya3BO/MMQeQkEUHO5KHBrNuTQFVKB0HJK5vBjivC
QOoAW75B2ovBQDYBQf9opb9pdl3BRqoLQftXJkCbBHnByXvdQLpwCkDheK3BcPt2QB28475d/qDB
F33sQJQkB8BGj6/BfeUNQSiHicCzQ5HBoxT7QB+Ig8A+/JzBRabHQH8pscA7NJbBrPvsQAxivsAF
yovBxD0DQUzBBMBSdo7BLp7VQL3tEcBE2ZXBFqSQQE/iBkFTRYrB1Xq2QAtABEE8EX/BEF6eQPQK
wUBOCHfBf7BeQOyd4UA923nBWDSuQClpi0C7rIjBy5i+QEPYncCI93/BN80sQSK4AEBaWUnBdnwv
QSOH1T9wbmXBhYYcQecvOUBpXlzBbAYBQD3dE8AndYLBikwrQEPmFMDg0Y/B8Tf1PxuIc8CGYorB
uTWIQC5aMkAularBz9pjQPV46j/Iwp/ByHYCQRNI+UChWJLBTA/lQBnOEUEexozBQ3CTQHikacCb
oJPBrAGCQFE0pMD6wYzBIuZdQL9LZ0BpipPBXCLEQFCcYEAbgJ/BAoCkQGa5uj8MDJDBD0lNQN44
o0DsxIbB71FbQPP+yUCMWY/BpX9cQMm3jEBRIKXB2jvNQDaeF0H0t7DBVKGqQLXzEUG6FqrBaGr3
QJiYFkHrxazBijGyQD4dC0Gnip/BVhv/QFObD0EPPqLBiYfYQIn5uT2X+4XBVkz7QHKmbb7UcWnB
ct0AQSJO8z/M+XvBoljTQHWckz9XkqvBiOOaQAhmt779gKXBBRneQIwLob94V6zBxI7iQA5bPr9M
h3rBaLfoQOyNsz86YobBPKncQDmACUEDoJvBDO6pQHoxcz8GVKfBxksFQVBXjT9BKmrB5HjtQJLV
TD0GAa7B6r60QJ3kur8yIqjB71vAQD7FvEAeXJLBrprRQHa2B8BbxXnBwBbeQAx7EUB5R4/BsHn8
QAvGgsDB8ZLBg+PbQKDSosBVgY7BpbfrQADILcDBro/BnBilQNyH8kCfKYXB4KeKQHEFzkBzboDB
ATadQAmqnEACrI7BDyW/QPUhicCIyobBEQkeQQ5mWz/QSE3BM8YcQJwPQcAWU4nBSCSOQFhyCEA8
XaTBkCLmQJBjAUEGYpDBt7iRQOC0hMDmeIvB0MuHQEHxgkARupfB+selQPdXQUDhTZzBVD/GQI8r
40Als4zBH7/TQAqxPcDkzIXBlG21QK+CC0BRkpPBykd1QLXMs0AjO4nBp1LYQKzZs0AXz5nBkdfA
QOUqIcBHOGnBwiX4QMCWRkBZY5LBWoBzQL9Jn0CM8Z/BoV8QQV7e2j+kvVnBrI9vQBEKU8BS1ITB
D5gKQcL8fT74/bHB+fulQJKvLcAAg6bBmnDHQEfBHEH91rjBj0qKQFvbEkE3Gq3B0vAIQUguG0Gh
1bHBJ5eXQGAUB0GdaJrB4boPQTvrDkFZOZ/BemjEQEFvjb4+XYzBa0gBQVevW79a11vBRx4HQdkA
OkA1zXzBCuzeQLX/CUAN8qzBkBJ3QN+fA7/2FqLBKQHyQIbTBsDfSq7BFyMOQWx9iMCWc4/BwG7+
QF9PhcA0tZvB6KrIQMR/sMBfCZXBdlTsQK63vMAsMIrB7ysDQek9AcCvOI7BHqPWQMxjE8AJ6ZXB
Q3+PQE4zBEFnc4nB0uC0QH3rAUETMH3B6tGeQPF1ukAgQnbBDUBfQPEl20BjsnfBtuqrQAvuhUB4
DInBw6+9QPpNmcB7933BmvYlQaWNuT8WwUDBD2gUQUp/gT2e0UXBijMqQdEdzz6bvVfB+GHxP9Fd
F8B42oPBN6okQLC4IMAiFJHBXELzP0JafcC9e4rBeNeGQIvMLUDDmKvB1FNgQJen4j8HxaDBkvcC
Qfmu80D0WZDBnwrmQGMQD0Hi14rB+dGTQGiCbcDRiJPB7tyCQMuOpMAK9YvByblXQPn5ZEB4TJTB
P8vAQB3bYEAEWKDBMYWhQLh+vz9ohZDBYWdLQAySnkDFU4bB++pXQDTFxkChho7BoidZQAFMj0BT
gaXB

>  <OMEGA_E>  (27) 
gEiUPmj5oD4=

>  <OMEGA_NBR>  (27) 
      7710

$$$$
50147874
     RDKit          3D

 87 91  0  0  1  0  0  0  0  0999 V2000
    6.1836    9.5088  -22.1431 C   0  0  0  0  0  0  0  0  0  0  0  0
    7.5283    9.4724  -21.7243 C   0  0  0  0  0  0  0  0  0  0  0  0
    5.1589    9.1235  -21.2586 C   0  0  0  0  0  0  0  0  0  0  0  0
    7.8518    9.0352  -20.4258 C   0  0  0  0  0  0  0  0  0  0  0  0
    5.4781    8.6936  -19.9590 C   0  0  0  0  0  0  0  0  0  0  0  0
    6.7613    0.0818  -16.6001 C   0  0  0  0  0  0  0  0  0  0  0  0
    8.0491   -0.4645  -14.6036 C   0  0  0  0  0  0  0  0  0  0  0  0
    8.2743    1.7340  -15.6341 C   0  0  0  0  0  0  0  0  0  0  0  0
    6.5313    1.1416  -21.5104 C   0  0  0  0  0  0  0  0  0  0  0  0
    4.7862   -0.3431  -20.6583 C   0  0  0  0  0  0  0  0  0  0  0  0
    6.7991   -1.2754  -21.6681 C   0  0  0  0  0  0  0  0  0  0  0  0
    7.1338   -0.8422  -15.6058 C   0  0  0  0  0  0  0  0  0  0  0  0
    7.3330    1.3705  -16.6243 C   0  0  0  0  0  0  0  0  0  0  0  0
    6.8329    8.6234  -19.5424 C   0  0  0  0  0  0  0  0  0  0  0  0
    8.6129    0.8258  -14.6108 C   0  0  0  0  0  0  0  0  0  0  0  0
    5.2778    0.9543  -20.8901 C   0  0  0  0  0  0  0  0  0  0  0  0
    7.2957    0.0254  -21.8903 C   0  0  0  0  0  0  0  0  0  0  0  0
    5.5413   -1.4562  -21.0568 C   0  0  0  0  0  0  0  0  0  0  0  0
    6.0432    5.9244  -18.3302 C   0  0  0  0  0  0  0  0  0  0  0  0
    6.5555   -2.1929  -15.6008 C   0  0  0  0  0  0  0  0  0  0  0  0
    6.9527    2.3163  -17.6860 C   0  0  0  0  0  0  0  0  0  0  0  0
    7.5195   -4.0402  -18.7079 C   0  0  0  0  0  0  0  0  0  0  0  0
    6.8869   -5.0920  -17.7940 C   0  0  0  0  0  0  0  0  0  0  0  0
    7.3215   -2.6965  -17.9902 C   0  0  0  0  0  0  0  0  0  0  0  0
    5.2495    7.6312  -16.6661 C   0  0  0  0  0  0  0  0  0  0  0  0
    4.3074    6.5458  -16.1387 C   0  0  0  0  0  0  0  0  0  0  0  0
    4.9398    4.9507  -17.8382 C   0  0  2  0  0  0  0  0  0  0  0  0
    5.9475   -4.3065  -16.8781 C   0  0  2  0  0  0  0  0  0  0  0  0
    9.6432    1.2039  -13.5707 C   0  0  0  0  0  0  0  0  0  0  0  0
    2.4532   -2.9731  -17.1844 C   0  0  0  0  0  0  0  0  0  0  0  0
    4.4640    2.1374  -20.4564 C   0  0  0  0  0  0  0  0  0  0  0  0
    7.2203    8.1145  -18.1586 C   0  0  0  0  0  0  0  0  0  0  0  0
    4.5454   -4.1287  -17.4919 C   0  0  0  0  0  0  0  0  0  0  0  0
    4.2989    4.0801  -18.9223 C   0  0  2  0  0  0  0  0  0  0  0  0
    5.2466    2.9917  -19.4466 C   0  0  1  0  0  0  0  0  0  0  0  0
    6.2520    7.1296  -17.6395 N   0  0  0  0  0  0  0  0  0  0  0  0
    6.6062   -3.0019  -16.7368 N   0  0  0  0  0  0  0  0  0  0  0  0
    5.7303    2.1472  -18.3375 N   0  0  0  0  0  0  0  0  0  0  0  0
    3.8457    5.7307  -17.2551 N   0  0  0  0  0  0  0  0  0  0  0  0
    6.7520    5.6374  -19.2904 O   0  0  0  0  0  0  0  0  0  0  0  0
    6.0497   -2.6167  -14.5679 O   0  0  0  0  0  0  0  0  0  0  0  0
    7.7164    3.2260  -17.9886 O   0  0  0  0  0  0  0  0  0  0  0  0
    3.8398    4.9106  -19.9901 O   0  0  0  0  0  0  0  0  0  0  0  0
    3.7562   -3.2619  -16.6529 O   0  0  0  0  0  0  0  0  0  0  0  0
    8.5049    0.2039  -22.4676 F   0  0  0  0  0  0  0  0  0  0  0  0
    5.0586   -2.6986  -20.8432 F   0  0  0  0  0  0  0  0  0  0  0  0
    5.9389    9.8327  -23.1439 H   0  0  0  0  0  0  0  0  0  0  0  0
    8.3121    9.7803  -22.4004 H   0  0  0  0  0  0  0  0  0  0  0  0
    4.1278    9.1582  -21.5783 H   0  0  0  0  0  0  0  0  0  0  0  0
    8.8830    9.0153  -20.1054 H   0  0  0  0  0  0  0  0  0  0  0  0
    4.6897    8.4157  -19.2752 H   0  0  0  0  0  0  0  0  0  0  0  0
    6.0340   -0.1976  -17.3480 H   0  0  0  0  0  0  0  0  0  0  0  0
    8.3189   -1.1661  -13.8281 H   0  0  0  0  0  0  0  0  0  0  0  0
    8.7352    2.7103  -15.6619 H   0  0  0  0  0  0  0  0  0  0  0  0
    6.9020    2.1395  -21.6925 H   0  0  0  0  0  0  0  0  0  0  0  0
    3.8303   -0.4819  -20.1752 H   0  0  0  0  0  0  0  0  0  0  0  0
    7.3826   -2.1339  -21.9662 H   0  0  0  0  0  0  0  0  0  0  0  0
    8.5909   -4.2470  -18.8472 H   0  0  0  0  0  0  0  0  0  0  0  0
    7.0177   -4.0303  -19.6868 H   0  0  0  0  0  0  0  0  0  0  0  0
    6.3236   -5.8293  -18.3850 H   0  0  0  0  0  0  0  0  0  0  0  0
    7.6597   -5.6075  -17.2049 H   0  0  0  0  0  0  0  0  0  0  0  0
    8.2952   -2.2341  -17.7708 H   0  0  0  0  0  0  0  0  0  0  0  0
    6.7243   -2.0152  -18.6140 H   0  0  0  0  0  0  0  0  0  0  0  0
    4.6446    8.4066  -17.1589 H   0  0  0  0  0  0  0  0  0  0  0  0
    5.7848    8.0714  -15.8119 H   0  0  0  0  0  0  0  0  0  0  0  0
    4.8433    5.9120  -15.4169 H   0  0  0  0  0  0  0  0  0  0  0  0
    3.4445    7.0157  -15.6442 H   0  0  0  0  0  0  0  0  0  0  0  0
    5.3736    4.2938  -17.0699 H   0  0  0  0  0  0  0  0  0  0  0  0
    5.8659   -4.8104  -15.9037 H   0  0  0  0  0  0  0  0  0  0  0  0
   10.6461    0.9314  -13.9313 H   0  0  0  0  0  0  0  0  0  0  0  0
    9.6008    2.2882  -13.3900 H   0  0  0  0  0  0  0  0  0  0  0  0
    9.4322    0.6675  -12.6338 H   0  0  0  0  0  0  0  0  0  0  0  0
    1.9132   -2.3098  -16.4926 H   0  0  0  0  0  0  0  0  0  0  0  0
    2.5573   -2.4776  -18.1610 H   0  0  0  0  0  0  0  0  0  0  0  0
    1.8912   -3.9107  -17.3070 H   0  0  0  0  0  0  0  0  0  0  0  0
    4.2204    2.7507  -21.3365 H   0  0  0  0  0  0  0  0  0  0  0  0
    3.5342    1.7840  -19.9869 H   0  0  0  0  0  0  0  0  0  0  0  0
    8.2109    7.6401  -18.2194 H   0  0  0  0  0  0  0  0  0  0  0  0
    7.2644    8.9679  -17.4660 H   0  0  0  0  0  0  0  0  0  0  0  0
    4.6382   -3.6835  -18.4935 H   0  0  0  0  0  0  0  0  0  0  0  0
    4.0533   -5.1093  -17.5707 H   0  0  0  0  0  0  0  0  0  0  0  0
    3.4333    3.5735  -18.4704 H   0  0  0  0  0  0  0  0  0  0  0  0
    6.0971    3.4671  -19.9570 H   0  0  0  0  0  0  0  0  0  0  0  0
    5.1400    1.4005  -18.0310 H   0  0  0  0  0  0  0  0  0  0  0  0
    3.1376    5.1043  -16.9292 H   0  0  0  0  0  0  0  0  0  0  0  0
    3.4627    6.3297  -17.9584 H   0  0  0  0  0  0  0  0  0  0  0  0
    3.4420    4.3709  -20.6631 H   0  0  0  0  0  0  0  0  0  0  0  0
  1  2  2  0
  1  3  1  0
  2  4  1  0
  3  5  2  0
  4 14  2  0
  5 14  1  0
  6 12  2  0
  6 13  1  0
  7 12  1  0
  7 15  2  0
  8 13  2  0
  8 15  1  0
  9 16  2  0
  9 17  1  0
 10 16  1  0
 10 18  2  0
 11 17  2  0
 11 18  1  0
 12 20  1  0
 13 21  1  0
 14 32  1  0
 15 29  1  0
 16 31  1  0
 17 45  1  0
 18 46  1  0
 19 27  1  0
 19 36  1  0
 19 40  2  0
 20 37  1  0
 20 41  2  0
 21 38  1  0
 21 42  2  0
 22 23  1  0
 22 24  1  0
 23 28  1  0
 24 37  1  0
 25 26  1  0
 25 36  1  0
 26 39  1  0
 27 34  1  0
 27 39  1  0
 28 33  1  0
 28 37  1  0
 30 44  1  0
 31 35  1  0
 32 36  1  0
 33 44  1  0
 34 35  1  0
 34 43  1  0
 35 38  1  0
  1 47  1  0
  2 48  1  0
  3 49  1  0
  4 50  1  0
  5 51  1  0
  6 52  1  0
  7 53  1  0
  8 54  1  0
  9 55  1  0
 10 56  1  0
 11 57  1  0
 22 58  1  0
 22 59  1  0
 23 60  1  0
 23 61  1  0
 24 62  1  0
 24 63  1  0
 25 64  1  0
 25 65  1  0
 26 66  1  0
 26 67  1  0
 27 68  1  1
 28 69  1  1
 29 70  1  0
 29 71  1  0
 29 72  1  0
 30 73  1  0
 30 74  1  0
 30 75  1  0
 31 76  1  0
 31 77  1  0
 32 78  1  0
 32 79  1  0
 33 80  1  0
 33 81  1  0
 34 82  1  1
 35 83  1  6
 38 84  1  0
 39 85  1  0
 39 86  1  0
 43 87  1  0
M  CHG  1  39   1
M  END
>  <OMEGA_C>  (28) 
3t/FQBYkGEEpJbHBfufwQO2OF0FZy63BaBWlQOv5EUGzEarBBEL7QFaQEEH7Z6PBxEyvQPAYC0EG
rJ/BLlzYQBqBpz0FzYTBKMkAQZDW7b5VqGnBi2MEQaLy3T9tJXrBVgDRQHYekj89FazBZCiZQLur
r75MRKXBUpLZQN8/o78tWK3BckjkQJCaV79XsXnBSKjqQNVrrz+I/oTBzKbaQHL5CUHGVpzBas4J
QSdnUz+3xWnBAOSoQOdNdD/fHqfB+HXpQJJX0DxGH6/BllKxQCNlur9cdKjBtmHBQPmUvUA4pJLB
vMbRQNZXDMC/nHnBIHzeQLQ+FEDVfI3Bep/wQKNJgcDVqZXBLGHcQMnxosAvWo7BvknqQNGTLMAC
7I/BuvunQHMy9EAuVIXBWNaJQGd30UAPHIHBCBOeQIVsnkCmtI7B3lG+QDnPicBNBofBlEoaQW4a
mj+YIVnBfwEdQKNGPsCveYnBfNmOQGfLCECypqPBCg3nQNXUAUHHRJHBGHSRQDoehMB074vBZpCJ
QB+QgkDwYJfB9OOnQBt4P0CPkpvBAhDIQP0l5ECzHY3BwmXTQE8fQMAM5YXBUl63QD1sCUBLs5LB
WR92QC1it0BxCorBeBDYQN5ltEC+UprB4pbBQFF3J8ABFmnBIO32QF13TkCn6I/BAr91QIUjnUCx
65/B+WRwQNDCUMA5OYXB4hMIQXnJUD6VvbPB6t+hQDm1LMD2vqbBOgu+QMRSHUHPJrnBUf4EQT58
HEEcNLPBMBeEQNSHEkFUoKzB1iAOQYU+EEHy16DBExKWQNimBkGTM5rBXxbBQERbSr7LyIrBUxoF
QVpElb8UQF3Bk8MLQf10LUAul3rB2NzcQPHsCEBUiq3B1SN1QPq39r7AZqHBAj7sQBGSCMDUuq/B
IXQJQVbnh8ACx5bBA5HgQGj4gMCAfp3BE1vKQGSJusBtFJPB9Rv1QNFws8C4o4nBFbkEQfr7DsCy
Ko7BRC3XQDH5AMCQ6ZTBl6CUQF+BBkFpRYnBJR25QI4kAUG5/XzBrvyaQP0uvUCJq3bBvHJcQN2A
4EB5TnrBjvSrQAJniUArj4jBwLW7QJTumcBadX7BTFYqQfFwbj9y5l7BwpwZQSRxEkBjPVbBc+oW
QVTiKj8fJErBwuT0P2rUE8Du8IPBhKojQHuRHsC7SZHBZRTyP/NIesCudIrBVA2HQCkLMEAWsarB
yS9iQKRZ5D815Z/B/18DQa179EBewZHBC3boQKR8D0FnuovB6GuUQFa+a8C58pPBabSBQFp/o8C8
kIzBr7tbQN+0ZEBnw5PBeBvDQFTlXUACqJ/BPHukQIxCsz9wP5DB8M5IQCRWo0DzbofBdZ1dQB2N
ykC4qo/BQ0lcQBHei0ADTqXB

>  <OMEGA_E>  (28) 
QOJuPg==

>  <OMEGA_NBR>  (28) 
      9451

$$$$
50162065
     RDKit          3D

 76 78  0  0  1  0  0  0  0  0999 V2000
    6.8032   -0.1356  -16.7032 C   0  0  0  0  0  0  0  0  0  0  0  0
    8.3103    1.5174  -15.7237 C   0  0  0  0  0  0  0  0  0  0  0  0
    8.0772   -0.6737  -14.6908 C   0  0  0  0  0  0  0  0  0  0  0  0
    6.7986    1.1289  -21.4155 C   0  0  0  0  0  0  0  0  0  0  0  0
    5.0705   -0.4475  -20.7097 C   0  0  0  0  0  0  0  0  0  0  0  0
    7.1955   -1.2710  -21.5819 C   0  0  0  0  0  0  0  0  0  0  0  0
    7.3868    1.1504  -16.7249 C   0  0  0  0  0  0  0  0  0  0  0  0
    7.1725   -1.0586  -15.7004 C   0  0  0  0  0  0  0  0  0  0  0  0
    8.6304    0.6196  -14.6907 C   0  0  0  0  0  0  0  0  0  0  0  0
    5.5137    0.8793  -20.8831 C   0  0  0  0  0  0  0  0  0  0  0  0
    7.6400    0.0547  -21.7578 C   0  0  0  0  0  0  0  0  0  0  0  0
    5.9070   -1.5202  -21.0671 C   0  0  0  0  0  0  0  0  0  0  0  0
    7.0361    2.1093  -17.7787 C   0  0  0  0  0  0  0  0  0  0  0  0
    6.5953   -2.4131  -15.6708 C   0  0  0  0  0  0  0  0  0  0  0  0
    5.6799    7.7984  -17.3396 C   0  0  0  0  0  0  0  0  0  0  0  0
    6.2134    5.7933  -18.6625 C   0  0  0  0  0  0  0  0  0  0  0  0
    4.5259    7.0480  -16.6531 C   0  0  0  0  0  0  0  0  0  0  0  0
    5.0511    5.0174  -17.9758 C   0  0  2  0  0  0  0  0  0  0  0  0
    9.6223    1.0212  -13.6244 C   0  0  0  0  0  0  0  0  0  0  0  0
    9.4887   -4.3001  -16.9534 C   0  0  0  0  0  0  0  0  0  0  0  0
    3.8784   -3.4441  -17.6135 C   0  0  0  0  0  0  0  0  0  0  0  0
    4.6160    2.0304  -20.4822 C   0  0  0  0  0  0  0  0  0  0  0  0
    8.6179   -4.0744  -18.2042 C   0  0  0  0  0  0  0  0  0  0  0  0
    4.8510   -4.6233  -17.7974 C   0  0  0  0  0  0  0  0  0  0  0  0
    7.5487   -2.9978  -17.9486 C   0  0  0  0  0  0  0  0  0  0  0  0
    5.9667   -4.6018  -16.7397 C   0  0  0  0  0  0  0  0  0  0  0  0
    4.3538    4.0135  -18.9203 C   0  0  2  0  0  0  0  0  0  0  0  0
    5.3167    2.9280  -19.4409 C   0  0  1  0  0  0  0  0  0  0  0  0
    6.7246    6.8350  -17.7484 N   0  0  0  0  0  0  0  0  0  0  0  0
    5.7602    2.0777  -18.3247 N   0  0  0  0  0  0  0  0  0  0  0  0
    6.7085   -3.3095  -16.7560 N   0  0  0  0  0  0  0  0  0  0  0  0
    4.0096    5.9759  -17.5285 N   0  0  0  0  0  0  0  0  0  0  0  0
    7.8599    2.9442  -18.1340 O   0  0  0  0  0  0  0  0  0  0  0  0
    6.0369   -2.7575  -14.6347 O   0  0  0  0  0  0  0  0  0  0  0  0
    3.7860    4.7260  -20.0212 O   0  0  0  0  0  0  0  0  0  0  0  0
    8.8700    0.2972  -22.2648 F   0  0  0  0  0  0  0  0  0  0  0  0
    5.4689   -2.7902  -20.9199 F   0  0  0  0  0  0  0  0  0  0  0  0
    6.0760   -0.4124  -17.4521 H   0  0  0  0  0  0  0  0  0  0  0  0
    8.7734    2.4927  -15.7511 H   0  0  0  0  0  0  0  0  0  0  0  0
    8.3468   -1.3743  -13.9143 H   0  0  0  0  0  0  0  0  0  0  0  0
    7.1350    2.1451  -21.5597 H   0  0  0  0  0  0  0  0  0  0  0  0
    4.0890   -0.6403  -20.3026 H   0  0  0  0  0  0  0  0  0  0  0  0
    7.8421   -2.0962  -21.8416 H   0  0  0  0  0  0  0  0  0  0  0  0
    5.2982    8.3233  -18.2277 H   0  0  0  0  0  0  0  0  0  0  0  0
    6.1098    8.5290  -16.6385 H   0  0  0  0  0  0  0  0  0  0  0  0
    7.0250    5.0930  -18.9093 H   0  0  0  0  0  0  0  0  0  0  0  0
    5.8434    6.2653  -19.5846 H   0  0  0  0  0  0  0  0  0  0  0  0
    4.8905    6.6045  -15.7148 H   0  0  0  0  0  0  0  0  0  0  0  0
    3.7142    7.7569  -16.4326 H   0  0  0  0  0  0  0  0  0  0  0  0
    5.4523    4.4726  -17.1084 H   0  0  0  0  0  0  0  0  0  0  0  0
    9.0874    1.4780  -12.7787 H   0  0  0  0  0  0  0  0  0  0  0  0
   10.1665    0.1310  -13.2761 H   0  0  0  0  0  0  0  0  0  0  0  0
   10.3356    1.7470  -14.0420 H   0  0  0  0  0  0  0  0  0  0  0  0
   10.2422   -5.0729  -17.1651 H   0  0  0  0  0  0  0  0  0  0  0  0
    9.9931   -3.3605  -16.6835 H   0  0  0  0  0  0  0  0  0  0  0  0
    8.8523   -4.6276  -16.1180 H   0  0  0  0  0  0  0  0  0  0  0  0
    3.0953   -3.4904  -18.3846 H   0  0  0  0  0  0  0  0  0  0  0  0
    3.4157   -3.5025  -16.6173 H   0  0  0  0  0  0  0  0  0  0  0  0
    4.4293   -2.4966  -17.7070 H   0  0  0  0  0  0  0  0  0  0  0  0
    4.3764    2.6294  -21.3732 H   0  0  0  0  0  0  0  0  0  0  0  0
    3.6874    1.6307  -20.0486 H   0  0  0  0  0  0  0  0  0  0  0  0
    9.2611   -3.7515  -19.0361 H   0  0  0  0  0  0  0  0  0  0  0  0
    8.1204   -5.0186  -18.4706 H   0  0  0  0  0  0  0  0  0  0  0  0
    4.2912   -5.5660  -17.7077 H   0  0  0  0  0  0  0  0  0  0  0  0
    5.3048   -4.5601  -18.7974 H   0  0  0  0  0  0  0  0  0  0  0  0
    8.0501   -2.0323  -17.7860 H   0  0  0  0  0  0  0  0  0  0  0  0
    6.8975   -2.9286  -18.8323 H   0  0  0  0  0  0  0  0  0  0  0  0
    5.5193   -4.7449  -15.7450 H   0  0  0  0  0  0  0  0  0  0  0  0
    6.6711   -5.4211  -16.9462 H   0  0  0  0  0  0  0  0  0  0  0  0
    3.5533    3.5147  -18.3542 H   0  0  0  0  0  0  0  0  0  0  0  0
    6.1843    3.4135  -19.9117 H   0  0  0  0  0  0  0  0  0  0  0  0
    7.4573    7.3347  -18.2106 H   0  0  0  0  0  0  0  0  0  0  0  0
    5.1001    1.4359  -17.9345 H   0  0  0  0  0  0  0  0  0  0  0  0
    3.3086    5.4690  -17.0269 H   0  0  0  0  0  0  0  0  0  0  0  0
    3.6009    6.3982  -18.3375 H   0  0  0  0  0  0  0  0  0  0  0  0
    3.3552    4.1142  -20.6066 H   0  0  0  0  0  0  0  0  0  0  0  0
  1  7  2  0
  1  8  1  0
  2  7  1  0
  2  9  2  0
  3  8  2  0
  3  9  1  0
  4 10  2  0
  4 11  1  0
  5 10  1  0
  5 12  2  0
  6 11  2  0
  6 12  1  0
  7 13  1  0
  8 14  1  0
  9 19  1  0
 10 22  1  0
 11 36  1  0
 12 37  1  0
 13 30  1  0
 13 33  2  0
 14 31  1  0
 14 34  2  0
 15 17  1  0
 15 29  1  0
 16 18  1  0
 16 29  1  0
 17 32  1  0
 18 27  1  0
 18 32  1  0
 20 23  1  0
 21 24  1  0
 22 28  1  0
 23 25  1  0
 24 26  1  0
 25 31  1  0
 26 31  1  0
 27 28  1  0
 27 35  1  0
 28 30  1  0
  1 38  1  0
  2 39  1  0
  3 40  1  0
  4 41  1  0
  5 42  1  0
  6 43  1  0
 15 44  1  0
 15 45  1  0
 16 46  1  0
 16 47  1  0
 17 48  1  0
 17 49  1  0
 18 50  1  1
 19 51  1  0
 19 52  1  0
 19 53  1  0
 20 54  1  0
 20 55  1  0
 20 56  1  0
 21 57  1  0
 21 58  1  0
 21 59  1  0
 22 60  1  0
 22 61  1  0
 23 62  1  0
 23 63  1  0
 24 64  1  0
 24 65  1  0
 25 66  1  0
 25 67  1  0
 26 68  1  0
 26 69  1  0
 27 70  1  1
 28 71  1  6
 29 72  1  0
 30 73  1  0
 32 74  1  0
 32 75  1  0
 35 76  1  0
M  CHG  1  32   1
M  END
>  <OMEGA_C>  (29) 
A7TZQInWCr4OoIXB0PYEQYs7wj9blHvBOjwBQTd5LL9cDWvBPI7ZQESBkD/qUqvBn0GiQOse5b6L
raXBcEHmQHWxor/Lp6zBQ2DsQMM+kz+CzIXB1oTlQDWAh7/tNHvBPRYKQU2cHj/zDGvBL3CwQEUa
YT+oEKfB3Xr0QFMfYD39D67B8AW9QDeVwr+FiajBgifhQI7+BkDFOo7BUwzTQHlvGsCiu3rBrcG1
QLWM+UBzt4rBItTGQGxiuUDJTJXB4dOQQEeJ4UCgOYXBuaKhQNaOoEBezo/B1fQZQZW2gj+F/VnB
ltEXQRCaicCDoIfBATd4QAFsXMB26IzB6bWTQAjyAUCS26PBCuMJQaRhgsA4opHBRDubQHbyk8D/
YI7BMI/xQODbP8Ctlo/BL+++QB5Ck8Da6oXBKVKLQFRugEDbXJfBYiKqQA5kO0APh5vBAzDXQKC4
2kCx/I3B6lO4QEb5BEARmZLBDqzWQCvOU8A7DIbBqU6AQHg6v0BKOozBl4T7QINtPEB+EpHBAS7B
QER6MMDjJ2rBJ05yQAo7l0BpK6DBU+sNQfgsmD44HrLBlQGvQMySMsD6W6fBbG7CQOQp077UnYvB
y18MQa6IH0BsBHzBXowFQcTor7/YoF7Bh1HkQK5ICUAqeqzBx9iCQIDrI7+pa6LBGfL6QL4oBsCC
u67B8YqpQCUsBUFt0pHBS4PDQKR2CEGkG4XBoszgQHv5okAsRpfBI/26QKR9yEA6rZzBmH6cQE5Y
00D8b3vBabVtQJc4+EDfdYPBDXmuQMcfj0AW3ojB6WURQSgvvT+CdUzBHqoiQWIkBj7MalTBlV4l
QT6d3z8ZrGDBKOAjQWhVosAcUonBnOMfQWISV8Dmd4XBN6MNQYgVlMC88YDB0hhGQOhhX8C3E5PB
NZpaQMkoYMAn8ITBnLyNQCTIH8DXp43BjwuMQDtIKEBA/KrBZf5rQNK60D+CY6DBgy0UQUMYcMDq
SZjBH+0BQXiYoMDAw5PBtlGJQNAcssBVqY3BN8GpQH3skcAEYZbBPc0AQQYRAsDMSY7B7rfcQIBt
O8CiqJbBSJ6wQNPVl8B663vBcnnVQKF5rcC/kYfBrGljQD7xYEBh1ZLBbeXFQFZ2WkA7S5/B6KHu
QHi16kA5r5HB7jOjQNDLtz/geY/BYr9TQMgBr0AWN4jBY3RmQG2+zEAys5LB7btWQI2ng0BE2qTB
sr3ZQLORDL6WwIXBZiwFQc3CwD8F3XvBwWgBQdF5ML/teWvBRILZQKysjj9DaavBNP6hQHYV6L7P
vqXBquflQCXPpL/pr6zBxIrsQB7Okj8r6IXBWKrlQKCKiL8XlXvBBVgKQUsFGj8Fb2vBBFywQFoF
Xz9LJafB8kr0QOvZEj15Ia7B/py8QAvaw7/5lKjBXDPhQGIZB0D6So7BpP7SQI/IGsCnJHvBvNi1
QKHN+EBdgorBaJnGQMdSuUChZZXBlluRQCJB4ECB+4TBYMKhQOAdoEBH3I/BmVgaQTEPfj98blrB
03p3QFvEWMCb8ozBLa0XQUQMiMAkSIfBEL6TQNKiAUCs86PB6MmZQJr0ksCifo7BoTEKQTkhgsDF
fZHBPA++QHcQk8DSLobB2DXxQFqqQMDI0o/BtFKLQFsjgEBPbJfBpiyqQAICO0C4npvBFDzXQJZb
2kCTCI7BhHO4QMOXBECqs5LBkh7WQB7aU8CwTIbB/oqAQIKBvkBZGozBqGz7QO/zPEAVGJHB/EDB
QE3hMMBDiWrBaRlyQM0Hl0D6MqDB/9ENQX7Yij6AOLLBwGGuQDoMM8AyZqfBE0fCQGzO0L4at4vB
M6QMQcCwHkByRnzBw7wFQb9wsr8mHl/B5WbkQHRCCEB/lazB5oqCQIMhJL98fqLBpYT6QFhuB8D3
ua7B/SGpQEYBBUFOf5HB1dPDQGXvB0Hv2oTBPojgQEkXo0CahZfBB1e6QFrAyEBVsJzB0IydQFB8
0UChMnvBCN1uQCez9kAu/4LBgQOvQFd9jkB6AInBWecRQRIyuT+ozkzBAwUjQRICyD00/lTBK8Yl
QXvO2z9uHWHBzYFEQFaqWsBLA5PB+dFaQEttW8Cx6oTBpRiOQGIXHcBVzo3BbRYkQfhWoMCytojB
Q0wfQYD4UsC7JoXBSEUNQZ+JksDZr4DBDy6MQLH6J0D4FavBwO9rQCmD0D8CfqDB+ySHQL6gsMCQ
qo3Bo9SnQMl1kcA0jpbBY7YUQf2Rb8BDDpjBaK8CQV7WoMBhl5PBMUCwQPfnl8DQW3zBKD3UQG1m
rcAgA4jBvjAAQYzGAcDCs47BhrPcQBb9PsDo+JbBiI1jQNkyYEAp45LBauLFQOQ9WkCgY5/BI1Tu
QJ+z6kB3xZHB62+jQKk6tj/YnY/B8mVUQFsHrkDZH4jBi5tmQMV9zED2fZLB/WFWQOmBg0Dz4aTB
F3HeQESbFD1qgYXB2sAFQdmo3D9UbXrBHagCQZba+r7NQ2rBUBTcQCAzkj8xMqvBpCmmQCjX+L5g
p6XBdv3qQKVCn793mqzBDD/vQKn9qj/ac4XBFHvqQFLWYr/qHnvB0ccKQQVDUj+0zmnBQTCzQIjk
Wj+M9KbBRgX4QKKXwD3r7q3BqPrBQGxGxL8KiKjBW0TjQO+1EEDhCI7Bo17aQGf3D8CEYHzBO8Oy
QFwj+EBb24nBlofEQGd9ukDhRJXB3yWOQOh33kBcsITBWl+gQK3Yn0Ao54/BlfUZQUVWnT9NN1jB
mFx5QMjEqMAgTY3BPPYNQQv+mcA8v4fBt16VQHGu/T/zxaPBzoGoQK9rmcDym4nBW9AQQSpWWMBQ
CYzBsaCqQOCeUsBYS4vB5E33QLFwM8DrbZDBcymLQOEJf0A8lpfB4TqrQEO8O0ATtZvBFKLUQBac
2kCtlo3BA/O6QF2mCECippLB6rzUQGuzM8CDSojBArN8QO8uvUDgGIzB8v/8QDiBRkBfGZHBEpzI
QO3jLsBSrGzBikFxQCEjlkAZXqDB9aUPQSRKvz484bHBy0i1QBtZNMClbafB3ibIQNYuhL6BrIvB
wrkMQXaSLUAliHrB3LcGQVoOmL86uF3BbuTlQES+CkBVVqzB+N2GQO9/Nb+Yc6LBRTkAQfciA8DJ
tK7BQj6mQPMtBUFstJDBw0TAQAMxB0Fp7oPBcNLeQFgbpUDGpZfBFMq3QG3OykDpYpzBY/GZQNMf
z0BDrXrBG31nQOVX9EDcsoLBQPutQOhPjkCsEonBeNQQQeI21D/Q0krBNt4iQbzOsT5rn1LBrEEl
QTdp/T+IX17BXpB0QJSXy8CMKozBcVRHQL26mMCZlYjBLNpwQCsQocBb0pXBZl0dQVrmpcD/s4TB
HCECQTfmmcCNO4HB51gIQcDtrsCHPY7BUWGMQMtBI0AW9qrBlfBwQMgyxz9aFKDBUeusQEXpoMDu
FIHBLq7BQLM+qcCwUY7B84UWQRYdL8C3f4XBvr0cQSksWcCygZLBlaWkQCveQ8CcxJPBLTuSQLAq
M8DwUIbBkeD8QHZQ4r8ADJPBNAntQJZJWsABTpfB7r1jQJ5PXUBQJpPBlgzGQJxwXEDNrZ/B4KHr
QE2960BnI5HBCSynQOWLuT+0ko/BCR9QQIflq0C3UYjBNIhiQBmYy0B2cpLB/wxXQMFegkBZH6XB
OKjcQJzmVb4aXIXBn6kGQVQMvj/mjXzBNLIDQSF5Lb9X2mrBVYfWQEimjj+GTKvB35qgQIJ6/b7O
ZqXBiw7jQHLSor90iq3B2NPuQLociz9a9IXB92vpQJiYjL/8SnrBTGwMQQSpHj8fzmvB5jCuQMDc
Vj/8rabB2BnxQNjObj0zm67BKua6QAQsxr846qjBwgjiQJp6AkDLXI7BVC7UQL4OGsB1xHfBK9i2
QMvl+UBShIvBva7GQClUuEDIvJXBVFSTQKFE4kD+Y4XB32aiQFgmoEBZsI/BdXYcQfTDiT/YQVvB
I+SOQAqrXsAbuo7B8rABQfx+MsD+rpbB/nKRQFRf/D9zHaPBCjaVQGn0jsAQcoXBcG8LQRQTfMB5
O5DBJPvEQFj+l8CZpILBC7MHQSBob8BoMITB2cuKQCZmfkCkxZbBTvCoQGQjOEACDZvB2/HXQHzu
2kBR647Bi0a4QP/7AUAmK5LBb1jhQER7Y8AOkYHBgquBQAczv0DA9ovBgvv7QOJiN0BXlpHBkuG0
QFBtHMDJ/WvBi9VtQMk6lUAre5/BvfALQUrYpD6M6bLBwnytQMXcNMBq7afBcBLFQBWhBL+pK4vB
4vYNQWOCHUDirH3B9IEIQeYTrb+kPl7Be/DgQPDBCECwSazBqRGCQMlNNb9zu6HBdxj3QN1OBcAg
RrDBcxepQJTKBEHmmpLByGPFQIgVCUFGSIbBbn3gQNO9oUAZuJfB17a5QNMyxkCzJZ3BZamgQPbm
1EAx7XvBcy9zQNH1+EAqbYPBxWewQKR3j0CdxojB6wAUQeflxj8Q2U3BWIMlQfmPVT5UVVXBQI4n
QdY85j87i2LB7/NYQGWEVcDPLZDBYJmdQH7iIMC6qIzBqhWeQP1ReMAS/ZXBO5gEQRguPcB3Qp/B
qLfgQAqmL8B3MpXBOR0JQRqF67+MOpTBTxeIQFNfJEDIIKrBElRpQP33xj8sTp/Bn3iFQBG7gcDF
mnzB6PSFQNFyrcC8oYfBEP4DQbtNnMDxv5LBdL8cQfi3fsAGyJHBs7XFQHNhqcC9/HXBQ0jSQEJm
rMDm/ojBSasNQTQKlMDPz3/Ba5kQQZd4NsC7i4HBFS1kQC1dX0Bl2ZHBCUrEQEeaVkDuEp/BtHbu
QEyg6kASCJPBs1CjQEgGtT8WrY7Bd/dXQHtrr0CXmYfB/edmQAP8y0D5YJLBjJpQQPw8gUCj46PB

>  <OMEGA_E>  (29) 
oNSOPqCqjD7Yo+8+iFj0Pg==

>  <OMEGA_NBR>  (29) 
      5042

$$$$
50147873
     RDKit          3D

 77 79  0  0  1  0  0  0  0  0999 V2000
    6.8203   -0.1231  -16.7130 C   0  0  0  0  0  0  0  0  0  0  0  0
    8.3436    1.5127  -15.7293 C   0  0  0  0  0  0  0  0  0  0  0  0
    8.0854   -0.6793  -14.7014 C   0  0  0  0  0  0  0  0  0  0  0  0
    6.8184    1.1347  -21.4196 C   0  0  0  0  0  0  0  0  0  0  0  0
    5.1014   -0.4559  -20.7186 C   0  0  0  0  0  0  0  0  0  0  0  0
    7.2269   -1.2617  -21.6064 C   0  0  0  0  0  0  0  0  0  0  0  0
    7.4160    1.1581  -16.7307 C   0  0  0  0  0  0  0  0  0  0  0  0
    7.1785   -1.0534  -15.7137 C   0  0  0  0  0  0  0  0  0  0  0  0
    8.6535    0.6084  -14.6986 C   0  0  0  0  0  0  0  0  0  0  0  0
    5.5372    0.8747  -20.8831 C   0  0  0  0  0  0  0  0  0  0  0  0
    7.6645    0.0676  -21.7722 C   0  0  0  0  0  0  0  0  0  0  0  0
    5.9411   -1.5215  -21.0902 C   0  0  0  0  0  0  0  0  0  0  0  0
    7.0628    2.1259  -17.7759 C   0  0  0  0  0  0  0  0  0  0  0  0
    6.5860   -2.4030  -15.6910 C   0  0  0  0  0  0  0  0  0  0  0  0
    6.7488    6.9552  -17.8429 C   0  0  0  0  0  0  0  0  0  0  0  0
    5.5983    7.8651  -17.3817 C   0  0  0  0  0  0  0  0  0  0  0  0
    6.1961    5.8361  -18.7405 C   0  0  0  0  0  0  0  0  0  0  0  0
    4.5369    7.0335  -16.6441 C   0  0  0  0  0  0  0  0  0  0  0  0
    5.0832    5.0338  -17.9979 C   0  0  2  0  0  0  0  0  0  0  0  0
    9.6516    0.9973  -13.6330 C   0  0  0  0  0  0  0  0  0  0  0  0
    3.8474   -3.4136  -17.6368 C   0  0  0  0  0  0  0  0  0  0  0  0
    9.4566   -4.2918  -16.9323 C   0  0  0  0  0  0  0  0  0  0  0  0
    4.6337    2.0189  -20.4732 C   0  0  0  0  0  0  0  0  0  0  0  0
    4.8166   -4.5940  -17.8287 C   0  0  0  0  0  0  0  0  0  0  0  0
    8.6107   -4.0681  -18.2004 C   0  0  0  0  0  0  0  0  0  0  0  0
    5.9319   -4.5811  -16.7706 C   0  0  0  0  0  0  0  0  0  0  0  0
    7.5348   -2.9924  -17.9700 C   0  0  0  0  0  0  0  0  0  0  0  0
    4.3738    4.0019  -18.9055 C   0  0  2  0  0  0  0  0  0  0  0  0
    5.3372    2.9240  -19.4392 C   0  0  1  0  0  0  0  0  0  0  0  0
    5.7917    2.0774  -18.3282 N   0  0  0  0  0  0  0  0  0  0  0  0
    6.6825   -3.2933  -16.7836 N   0  0  0  0  0  0  0  0  0  0  0  0
    4.0297    5.9573  -17.5144 N   0  0  0  0  0  0  0  0  0  0  0  0
    7.8725    2.9816  -18.1151 O   0  0  0  0  0  0  0  0  0  0  0  0
    6.0305   -2.7499  -14.6542 O   0  0  0  0  0  0  0  0  0  0  0  0
    3.7582    4.6855  -19.9986 O   0  0  0  0  0  0  0  0  0  0  0  0
    8.8918    0.3206  -22.2803 F   0  0  0  0  0  0  0  0  0  0  0  0
    5.5087   -2.7951  -20.9569 F   0  0  0  0  0  0  0  0  0  0  0  0
    6.0914   -0.3903  -17.4638 H   0  0  0  0  0  0  0  0  0  0  0  0
    8.8177    2.4828  -15.7545 H   0  0  0  0  0  0  0  0  0  0  0  0
    8.3453   -1.3836  -13.9250 H   0  0  0  0  0  0  0  0  0  0  0  0
    7.1483    2.1536  -21.5590 H   0  0  0  0  0  0  0  0  0  0  0  0
    4.1232   -0.6570  -20.3074 H   0  0  0  0  0  0  0  0  0  0  0  0
    7.8768   -2.0814  -21.8748 H   0  0  0  0  0  0  0  0  0  0  0  0
    7.4810    7.5499  -18.4088 H   0  0  0  0  0  0  0  0  0  0  0  0
    7.2383    6.5108  -16.9638 H   0  0  0  0  0  0  0  0  0  0  0  0
    5.9926    8.6368  -16.7042 H   0  0  0  0  0  0  0  0  0  0  0  0
    5.1400    8.3463  -18.2584 H   0  0  0  0  0  0  0  0  0  0  0  0
    5.7728    6.2809  -19.6532 H   0  0  0  0  0  0  0  0  0  0  0  0
    7.0146    5.1528  -19.0111 H   0  0  0  0  0  0  0  0  0  0  0  0
    4.9862    6.5896  -15.7434 H   0  0  0  0  0  0  0  0  0  0  0  0
    3.7020    7.6878  -16.3530 H   0  0  0  0  0  0  0  0  0  0  0  0
    5.5363    4.5069  -17.1452 H   0  0  0  0  0  0  0  0  0  0  0  0
    9.1231    1.4586  -12.7857 H   0  0  0  0  0  0  0  0  0  0  0  0
   10.1864    0.1004  -13.2869 H   0  0  0  0  0  0  0  0  0  0  0  0
   10.3724    1.7157  -14.0505 H   0  0  0  0  0  0  0  0  0  0  0  0
    3.0639   -3.4527  -18.4080 H   0  0  0  0  0  0  0  0  0  0  0  0
    3.3848   -3.4773  -16.6409 H   0  0  0  0  0  0  0  0  0  0  0  0
    4.4008   -2.4670  -17.7242 H   0  0  0  0  0  0  0  0  0  0  0  0
   10.2148   -5.0644  -17.1283 H   0  0  0  0  0  0  0  0  0  0  0  0
    9.9549   -3.3516  -16.6535 H   0  0  0  0  0  0  0  0  0  0  0  0
    8.8041   -4.6190  -16.1094 H   0  0  0  0  0  0  0  0  0  0  0  0
    4.3798    2.6152  -21.3620 H   0  0  0  0  0  0  0  0  0  0  0  0
    3.7132    1.6115  -20.0297 H   0  0  0  0  0  0  0  0  0  0  0  0
    4.2546   -5.5359  -17.7450 H   0  0  0  0  0  0  0  0  0  0  0  0
    5.2706   -4.5255  -18.8283 H   0  0  0  0  0  0  0  0  0  0  0  0
    9.2705   -3.7459  -19.0195 H   0  0  0  0  0  0  0  0  0  0  0  0
    8.1197   -5.0133  -18.4754 H   0  0  0  0  0  0  0  0  0  0  0  0
    5.4831   -4.7233  -15.7765 H   0  0  0  0  0  0  0  0  0  0  0  0
    6.6312   -5.4045  -16.9784 H   0  0  0  0  0  0  0  0  0  0  0  0
    8.0309   -2.0231  -17.8131 H   0  0  0  0  0  0  0  0  0  0  0  0
    6.8935   -2.9359  -18.8619 H   0  0  0  0  0  0  0  0  0  0  0  0
    3.6006    3.4993  -18.3060 H   0  0  0  0  0  0  0  0  0  0  0  0
    6.1978    3.4147  -19.9172 H   0  0  0  0  0  0  0  0  0  0  0  0
    5.1409    1.4223  -17.9444 H   0  0  0  0  0  0  0  0  0  0  0  0
    3.3566    5.4262  -16.9997 H   0  0  0  0  0  0  0  0  0  0  0  0
    3.5880    6.3753  -18.3082 H   0  0  0  0  0  0  0  0  0  0  0  0
    3.3205    4.0564  -20.5600 H   0  0  0  0  0  0  0  0  0  0  0  0
  1  7  2  0
  1  8  1  0
  2  7  1  0
  2  9  2  0
  3  8  2  0
  3  9  1  0
  4 10  2  0
  4 11  1  0
  5 10  1  0
  5 12  2  0
  6 11  2  0
  6 12  1  0
  7 13  1  0
  8 14  1  0
  9 20  1  0
 10 23  1  0
 11 36  1  0
 12 37  1  0
 13 30  1  0
 13 33  2  0
 14 31  1  0
 14 34  2  0
 15 16  1  0
 15 17  1  0
 16 18  1  0
 17 19  1  0
 18 32  1  0
 19 28  1  0
 19 32  1  0
 21 24  1  0
 22 25  1  0
 23 29  1  0
 24 26  1  0
 25 27  1  0
 26 31  1  0
 27 31  1  0
 28 29  1  0
 28 35  1  0
 29 30  1  0
  1 38  1  0
  2 39  1  0
  3 40  1  0
  4 41  1  0
  5 42  1  0
  6 43  1  0
 15 44  1  0
 15 45  1  0
 16 46  1  0
 16 47  1  0
 17 48  1  0
 17 49  1  0
 18 50  1  0
 18 51  1  0
 19 52  1  1
 20 53  1  0
 20 54  1  0
 20 55  1  0
 21 56  1  0
 21 57  1  0
 21 58  1  0
 22 59  1  0
 22 60  1  0
 22 61  1  0
 23 62  1  0
 23 63  1  0
 24 64  1  0
 24 65  1  0
 25 66  1  0
 25 67  1  0
 26 68  1  0
 26 69  1  0
 27 70  1  0
 27 71  1  0
 28 72  1  1
 29 73  1  6
 30 74  1  0
 32 75  1  0
 32 76  1  0
 35 77  1  0
M  CHG  1  32   1
M  END
>  <OMEGA_C>  (30) 
GkDaQN4G/L1QtIXBTH8FQeegwT9Uq3vBuF0BQTroLb8dOWvBNDDaQHc+kT9MW6vBhj6jQCZs6b6r
v6XBFkPnQE5+ob/S2azB0U/tQLg7lD9g2IXBB7blQKfUhr9xa3vBvXQKQQ3DGz9rLWvBcjCxQNbp
Xz+jEKfBP0P1QDuGij10La7B4B2+QLTAwr+luKjBTgLiQBkOCEAiNY7BgcDSQOTKGcBHDnvBFPbX
QCqR3kA9vo7B3ySzQCmv+0DNDYvBuUbGQGnBukCA7JXBmi6RQHcS4UAbJ4XB6qmiQK8UoUCw+4/B
5mwaQexLfz/BIFrBETt2QGF4WsA/GI3BOU4XQcFWicBtdYfBaUeUQNk1AUADyaPBPyGaQPsBk8A1
oY7BVsUJQR0ugsBwmpHBX9K9QKiYksBKKobBex3xQL6CP8B5wo/BNvaLQMgPgECGPpfBIMqqQKgi
O0CGg5vBc1W5QJX0BEAooJLBENfVQGrFUsDkRIbBS/OAQCmivkB3HYzBvev7QKDSPkC365DBlvnA
QNf+L8Ced2rBnYZwQNLvlUAk/Z/BvUQOQXInpD4cPrLBRkewQJjiMsChp6fBq+zCQFbbx77VtYvB
JhUNQd/lHkBTEnzBW4YFQYoasb/1zF7Bw77kQLTUCUDGeKzBEPGDQLIzKL+ZdaLBwQ78QFw2BcCK
/67BQmTvQK+Y8UA5RZPBkKDnQBNY0EDjtYfBx8O/QDEwCkE+ooXBNXukQJ2KBUEkEZLBK7u4QDX9
yECrOZ3BMnfgQJ7jpEDUFpjBnI6fQDDe0kAm5XvBR+1sQH8C9kDw0oLBuimxQEs4kEBkKYnBWvgR
Qee0uj9fkkzBTfsiQZGyzT1Xl1TBOPUlQU2b2z8Bz2DBcBdEQF74XMCgQ5PBLaBYQG2MXsB/IIXB
U9OMQBvjHcAmy43BrW8jQUMPosCzBonBIkcfQRyBVsBuOoXBft0MQSHPk8Ai4IDBuCeMQJ1fJ0BK
5arBe6RtQPZFzj/sPKDBUCWIQN8lscC49Y3BjKioQDbRkMBfoJbB0VMUQXO8b8DYJ5jBLeoBQc1s
oMCNzZPB73WvQPkkl8BrbHzBmTLUQHvxrMDE04fBdH4AQUd7AcBAgY7BdpfcQEnmO8AS5ZbBRnBm
QOHzX0CacpLBm1TGQBiKWkCAVp/BZ4KkQCQOtj8Ujo/ByNJWQKejrUBX/4fBh6JlQLQCzEBCd5LB
ooNUQFPOgUDpeqTBsQ7dQPDFcr0OlIXBNukFQXzyzz9nR3vBTMMCQQI5Er/OzmrBtwLcQM6olj/N
VavBIyGmQPyO476lpaXBX97qQBYHm7/ylazBfc7uQC1nnj8mt4XBPV7pQLR9eb8LJnvB3iILQcyN
Oz8prWrB4iGzQOzSZD+hEKfB6eP3QChfAD4nCa7BFe3BQJhFv79IcajBxNDiQMzwC0B3JI7BgBvW
QE63E8DaFXrBEvLVQFXK3kDnJI7BAquwQDBi+0BZe4rBOgfFQI1uu0AJlJXBNVKOQNkf4EB+6YTB
8E6hQAMDoUBK5Y/BX4MaQdxgkz8eSVnB/5UTQSrNlcAbdIjBgDF7QLzqkcC8YJPBenqVQFhgAUB/
16PBtUMQQapcUsCNaY3BrseMQCZZccAepYnBJe3wQOz3P8DZeo/B80O4QBUgisBT0IXBYaOLQD0E
gEBSWpfBLUKrQK4wPECei5vBkTC6QI30BkCcl5LBF7DWQEUFTcDotYXBSgF+QEoXvkDpIIzBDYD8
QGiUQkDQA5HBuiTDQOWYJsDGjWnBkM1wQJgflkBkH6DB+48PQRB9zD7qCLLBgmG1QFadMcDHF6fB
7BLGQORjs76OmIvBSgYNQT7yJkDnqXvBYCUHQYIOor+xU17B4trlQMLlDEC1hqzB2dmGQLjZKb/E
aqLB2iIAQVk1AcB3pq7BgZLtQOVR8kBWeJLBjjHlQIAe0ECWHIfB4La8QGTQCUGF24TBi4aiQI6t
BUFAe5HBLcu3QEkkykAz25zBk4jfQN/3pUBVwZfBNBacQFB80UCwX3vBt3tmQJC39EAQp4LBXnav
QK0QkEDPConBW4cRQZTcyz8/5kvBSmwjQQQ/iz5BmFPBxMslQSCA8j/rsV/BbMIkQdY9m8AvF4fB
QP4KQRKvl8C+yYDBUV8NQR5crsBz8I3B5xk9QAlShcCME5bBRS+VQLXIjsDV3JnBpTp0QJXbs8C3
NpHBnC2NQGcrJ0Bp+KrB71twQDWEzD++VaDB25kWQSu5IcAw5YfB7foYQUMTT8DlC5XBQTiQQGN6
LcCn0YvBnUxqQCKgd8CJK4PB3HDtQF1w+r9II5LBnlrlQKY4a8CqypXBcAy1QB9+l8D2bHvBf4LD
QBI3o8AGT4vBYWhlQDHbXkCCupLBy4/GQOWgXEBPV5/BSb2lQF+8uD+fgY/BrEZSQMOxrEChOojB
Te5iQALVy0AEg5LBeP9VQPASgkDqv6TBDZvcQABDhb58f4XBg20GQcBQtz+CZnzBJbEDQcvvPr+5
LmvBNZXWQPatkj+ZZKvB0BehQIIo7L4UNaXBGXTjQOD7nr+wW63BwXbuQNCXhT/Z74XBlajpQNIH
lb/lv3rBMkMMQTQ3Dj9M12vB7GeuQIFJXz+Gr6bBNkHxQMgZtD1SnK7BGIa7QCoRwr9/m6jBArLh
QMAlAUAJO47BSBvVQGtJH8D2ZXjBMabYQGxI30Dqd4/BGDm0QGsa/UCa4IvBBnTGQNI5ukDiLpbB
ErOSQBiI40Brj4XBL/KiQMzUoUBX3o/BqkIcQWxxgD++MFvBdmCNQIzzXsBBdo7Bo94CQcNqLcDq
q5bBs8qRQA1YAECOHqPBUnSVQLtykMByk4XBEvALQXk6e8A1y5DBUbHFQFXPmcBJiIPB7QsIQZuX
c8BetoTBZkCLQPcWgED5tZbBcDipQKpLOUCZ7JrBZu+3QK4jAkBvC5LB0g7iQDOAZ8D0J4LBCMGB
QOJGwEDLI4zBvKf7QCOyNkClSpHBR7y3QCynJMDFfmvBKpptQMxGlUB/eZ/B9/cLQSpwsj5h+7LB
3ImuQAfTMsCOXKfBexfFQJKCEL/vV4vBCaQNQQZeGkAmSn3BiYkIQfOktr9srV7B38rgQDbCCkCa
hKzBG6uCQFUTLL/5eKHBGIT3QNCBA8B+C7DBL7DvQHGE8UCBUJTBCOnoQAg90kCvYIjBEVrBQJVH
C0EUw4bBHQqlQIK8BUEU9ZLBda24QL0qx0Bfm53BW3LgQEbYo0C3KJjBsaShQK0/1kCeonzBLpBw
QMPo+EBjRIPBkbOxQDbNkUDr9IjBocETQfefuz9WrE3BjGUlQdc/CT4fd1XB+EcnQYxH3j/yT2LB
bXVVQFo1VcD9bI/B3p+cQArlIcCYTYzBgACbQKGCdsDOBZbBDdEFQXAbNMCRTp/BdhfjQHIoKcCB
NpXBqLgKQUwA5r97uJPBct2IQAszJ0AsHKrBY4FpQCaYyz8rap/B9EyHQEtIhMDGOnzBlq2FQBaX
rsCa1YfB0BIEQW28msAPypPBvD8dQY9Qf8AKTJLBXQfIQIE8rcAwb3jBeM3RQAtUrMBdYIrBxLkN
Qacvl8AKyoDBdBYRQWNnPMDgpIHB77JlQN/IYUDxoZHBU+/EQMlPV0DP157B95iiQNOatj98lY7B
16JYQM4ZsEAPyofBdrRmQN/czEC6jZLBUkFQQCvUgEDCvKPB

>  <OMEGA_E>  (30) 
INIgPgxCpD7QPcE+

>  <OMEGA_NBR>  (30) 
      8962

$$$$
50209141
     RDKit          3D

 88 91  0  0  1  0  0  0  0  0999 V2000
    6.8810   -0.0515  -16.7108 C   0  0  0  0  0  0  0  0  0  0  0  0
    8.4652    1.5532  -15.7765 C   0  0  0  0  0  0  0  0  0  0  0  0
    8.1731   -0.6263  -14.7245 C   0  0  0  0  0  0  0  0  0  0  0  0
    6.8565    1.1199  -21.4559 C   0  0  0  0  0  0  0  0  0  0  0  0
    5.1272   -0.4502  -20.7346 C   0  0  0  0  0  0  0  0  0  0  0  0
    7.2357   -1.2809  -21.6319 C   0  0  0  0  0  0  0  0  0  0  0  0
    7.5044    1.2139  -16.7540 C   0  0  0  0  0  0  0  0  0  0  0  0
    7.2344   -0.9816  -15.7135 C   0  0  0  0  0  0  0  0  0  0  0  0
    8.7763    0.6459  -14.7452 C   0  0  0  0  0  0  0  0  0  0  0  0
    5.5758    0.8706  -20.9145 C   0  0  0  0  0  0  0  0  0  0  0  0
    7.6893    0.0425  -21.8053 C   0  0  0  0  0  0  0  0  0  0  0  0
    5.9501   -1.5237  -21.1063 C   0  0  0  0  0  0  0  0  0  0  0  0
    7.1364    2.1727  -17.8049 C   0  0  0  0  0  0  0  0  0  0  0  0
    6.5990   -2.3094  -15.6751 C   0  0  0  0  0  0  0  0  0  0  0  0
    9.7591    9.5887  -19.5095 C   0  0  0  0  0  0  0  0  0  0  0  0
   10.5508    9.7397  -18.1958 C   0  0  0  0  0  0  0  0  0  0  0  0
    5.5625    7.7208  -17.3077 C   0  0  0  0  0  0  0  0  0  0  0  0
    6.1135    5.7495  -18.7386 C   0  0  0  0  0  0  0  0  0  0  0  0
    4.4885    6.8973  -16.5968 C   0  0  0  0  0  0  0  0  0  0  0  0
    9.7731    8.4667  -18.4780 C   0  0  0  0  0  0  0  0  0  0  0  0
    6.6748    6.7705  -17.7849 C   0  0  1  0  0  0  0  0  0  0  0  0
    5.0344    4.9339  -18.0041 C   0  0  2  0  0  0  0  0  0  0  0  0
    9.8077    1.0114  -13.7023 C   0  0  0  0  0  0  0  0  0  0  0  0
    9.3500   -4.3124  -16.9563 C   0  0  0  0  0  0  0  0  0  0  0  0
    3.7938   -3.1352  -17.6036 C   0  0  0  0  0  0  0  0  0  0  0  0
    4.6786    2.0106  -20.5185 C   0  0  0  0  0  0  0  0  0  0  0  0
    8.5154    8.2428  -17.6825 C   0  0  0  0  0  0  0  0  0  0  0  0
    8.5038   -4.0492  -18.2164 C   0  0  0  0  0  0  0  0  0  0  0  0
    4.6789   -4.3796  -17.8028 C   0  0  0  0  0  0  0  0  0  0  0  0
    7.4794   -2.9283  -17.9725 C   0  0  0  0  0  0  0  0  0  0  0  0
    5.8100   -4.4381  -16.7625 C   0  0  0  0  0  0  0  0  0  0  0  0
    4.3657    3.9347  -18.9469 C   0  0  2  0  0  0  0  0  0  0  0  0
    5.3742    2.9059  -19.4849 C   0  0  1  0  0  0  0  0  0  0  0  0
    5.8698    2.0774  -18.3737 N   0  0  0  0  0  0  0  0  0  0  0  0
    6.6291   -3.1935  -16.7763 N   0  0  0  0  0  0  0  0  0  0  0  0
    3.9801    5.8418  -17.4933 N   0  0  0  0  0  0  0  0  0  0  0  0
    7.9341    3.0372  -18.1504 O   0  0  0  0  0  0  0  0  0  0  0  0
    6.0421   -2.6320  -14.6314 O   0  0  0  0  0  0  0  0  0  0  0  0
    3.7650    4.6511  -20.0283 O   0  0  0  0  0  0  0  0  0  0  0  0
    7.6670    7.4659  -18.5072 O   0  0  0  0  0  0  0  0  0  0  0  0
    8.9184    0.2789  -22.3168 F   0  0  0  0  0  0  0  0  0  0  0  0
    5.4995   -2.7887  -20.9624 F   0  0  0  0  0  0  0  0  0  0  0  0
    6.1308   -0.3075  -17.4444 H   0  0  0  0  0  0  0  0  0  0  0  0
    8.9628    2.5107  -15.8198 H   0  0  0  0  0  0  0  0  0  0  0  0
    8.4307   -1.3318  -13.9484 H   0  0  0  0  0  0  0  0  0  0  0  0
    7.1949    2.1352  -21.6009 H   0  0  0  0  0  0  0  0  0  0  0  0
    4.1515   -0.6375  -20.3113 H   0  0  0  0  0  0  0  0  0  0  0  0
    7.8735   -2.1096  -21.9019 H   0  0  0  0  0  0  0  0  0  0  0  0
    8.8438   10.1766  -19.6728 H   0  0  0  0  0  0  0  0  0  0  0  0
   10.2920    9.4673  -20.4640 H   0  0  0  0  0  0  0  0  0  0  0  0
   11.6506    9.7280  -18.2112 H   0  0  0  0  0  0  0  0  0  0  0  0
   10.2024   10.4373  -17.4200 H   0  0  0  0  0  0  0  0  0  0  0  0
    5.1210    8.2381  -18.1723 H   0  0  0  0  0  0  0  0  0  0  0  0
    5.9820    8.4623  -16.6118 H   0  0  0  0  0  0  0  0  0  0  0  0
    5.6676    6.2581  -19.6060 H   0  0  0  0  0  0  0  0  0  0  0  0
    6.9167    5.0796  -19.0793 H   0  0  0  0  0  0  0  0  0  0  0  0
    4.9216    6.4335  -15.6982 H   0  0  0  0  0  0  0  0  0  0  0  0
    3.6583    7.5573  -16.3049 H   0  0  0  0  0  0  0  0  0  0  0  0
   10.3648    7.5749  -18.7321 H   0  0  0  0  0  0  0  0  0  0  0  0
    7.1096    6.2594  -16.9133 H   0  0  0  0  0  0  0  0  0  0  0  0
    5.4989    4.3906  -17.1680 H   0  0  0  0  0  0  0  0  0  0  0  0
    9.3105    1.4913  -12.8464 H   0  0  0  0  0  0  0  0  0  0  0  0
   10.3243    0.1015  -13.3630 H   0  0  0  0  0  0  0  0  0  0  0  0
   10.5393    1.7074  -14.1385 H   0  0  0  0  0  0  0  0  0  0  0  0
   10.0719   -5.1169  -17.1602 H   0  0  0  0  0  0  0  0  0  0  0  0
    9.8913   -3.3954  -16.6802 H   0  0  0  0  0  0  0  0  0  0  0  0
    8.6909   -4.6124  -16.1283 H   0  0  0  0  0  0  0  0  0  0  0  0
    2.9976   -3.1257  -18.3626 H   0  0  0  0  0  0  0  0  0  0  0  0
    3.3436   -3.1624  -16.6004 H   0  0  0  0  0  0  0  0  0  0  0  0
    4.4081   -2.2284  -17.7054 H   0  0  0  0  0  0  0  0  0  0  0  0
    4.4363    2.6075  -21.4101 H   0  0  0  0  0  0  0  0  0  0  0  0
    3.7518    1.6080  -20.0837 H   0  0  0  0  0  0  0  0  0  0  0  0
    8.7428    7.7031  -16.7514 H   0  0  0  0  0  0  0  0  0  0  0  0
    8.0388    9.2046  -17.4418 H   0  0  0  0  0  0  0  0  0  0  0  0
    9.1695   -3.7541  -19.0408 H   0  0  0  0  0  0  0  0  0  0  0  0
    7.9692   -4.9712  -18.4889 H   0  0  0  0  0  0  0  0  0  0  0  0
    4.0560   -5.2809  -17.7047 H   0  0  0  0  0  0  0  0  0  0  0  0
    5.1206   -4.3469  -18.8097 H   0  0  0  0  0  0  0  0  0  0  0  0
    8.0191   -1.9819  -17.8209 H   0  0  0  0  0  0  0  0  0  0  0  0
    6.8305   -2.8428  -18.8566 H   0  0  0  0  0  0  0  0  0  0  0  0
    5.3698   -4.5653  -15.7625 H   0  0  0  0  0  0  0  0  0  0  0  0
    6.4599   -5.2962  -16.9888 H   0  0  0  0  0  0  0  0  0  0  0  0
    3.5899    3.3943  -18.3848 H   0  0  0  0  0  0  0  0  0  0  0  0
    6.2104    3.4346  -19.9658 H   0  0  0  0  0  0  0  0  0  0  0  0
    5.2468    1.3915  -17.9976 H   0  0  0  0  0  0  0  0  0  0  0  0
    3.3102    5.2959  -16.9901 H   0  0  0  0  0  0  0  0  0  0  0  0
    3.5345    6.2790  -18.2746 H   0  0  0  0  0  0  0  0  0  0  0  0
    3.3460    4.0380  -20.6209 H   0  0  0  0  0  0  0  0  0  0  0  0
  1  7  2  0
  1  8  1  0
  2  7  1  0
  2  9  2  0
  3  8  2  0
  3  9  1  0
  4 10  2  0
  4 11  1  0
  5 10  1  0
  5 12  2  0
  6 11  2  0
  6 12  1  0
  7 13  1  0
  8 14  1  0
  9 23  1  0
 10 26  1  0
 11 41  1  0
 12 42  1  0
 13 34  1  0
 13 37  2  0
 14 35  1  0
 14 38  2  0
 15 16  1  0
 15 20  1  0
 16 20  1  0
 17 19  1  0
 17 21  1  0
 18 21  1  0
 18 22  1  0
 19 36  1  0
 20 27  1  0
 21 40  1  0
 22 32  1  0
 22 36  1  0
 24 28  1  0
 25 29  1  0
 26 33  1  0
 27 40  1  0
 28 30  1  0
 29 31  1  0
 30 35  1  0
 31 35  1  0
 32 33  1  0
 32 39  1  0
 33 34  1  0
  1 43  1  0
  2 44  1  0
  3 45  1  0
  4 46  1  0
  5 47  1  0
  6 48  1  0
 15 49  1  0
 15 50  1  0
 16 51  1  0
 16 52  1  0
 17 53  1  0
 17 54  1  0
 18 55  1  0
 18 56  1  0
 19 57  1  0
 19 58  1  0
 20 59  1  0
 21 60  1  1
 22 61  1  1
 23 62  1  0
 23 63  1  0
 23 64  1  0
 24 65  1  0
 24 66  1  0
 24 67  1  0
 25 68  1  0
 25 69  1  0
 25 70  1  0
 26 71  1  0
 26 72  1  0
 27 73  1  0
 27 74  1  0
 28 75  1  0
 28 76  1  0
 29 77  1  0
 29 78  1  0
 30 79  1  0
 30 80  1  0
 31 81  1  0
 31 82  1  0
 32 83  1  1
 33 84  1  6
 34 85  1  0
 36 86  1  0
 36 87  1  0
 39 88  1  0
M  CHG  1  36   1
M  END
>  <OMEGA_C>  (31) 
DDHcQID3Ur2xr4XBk3EHQcLNxj9sbHzB88QCQRRVIL+xl2vBO2jbQFhYjz+ipavBURKkQE965r6K
4KXB4YrnQIP1o78jDq3B2yPwQOdfmz8zCIbBLYDnQJhHe7+WanvBnmsMQeRbJT8t7GvBpmyyQMjh
Xj/ZUKfBnA72QCA1Lj1Vca7Bgme+QEwJw7+/2ajBJF3kQBcOC0CFcI7BDCvTQN7NE8AozXrBFyUc
QTVrGUFsE5zB8M8oQcvVG0EGkZHBRwCyQPUQ90A6dorB8qHDQNv7t0CT6JXB3qGPQJG23EAvxoTB
jV4cQZt3B0H00pPBwJfVQNun2ECGR47BahmhQJjinUByCJDBX+wcQdx2gT+KPFvBZpkVQdz+icB3
pofB9s1yQM2nSMA81IzBLLeVQIatAEDLJaTBMT8IQaXiA0HJdY3Bag8IQWKTgcAmu5HB7bmVQBQm
jMATbI7BZFfvQHNpO8C3x4/B5+u5QMQEjsCOGYbBN7SLQJfSe0Ask5fBr/mrQE/6OUAN4ZvBhdW7
QHv0BEBf/ZLBqSHUQIZhTMDFNYbBBLp+QNfvukBf8ovBA+T9QAFiQkACNJHBlljBQHVyKMBmGmrB
SvVwQKfVlEAJOqDBJlj1QJ/o7kC1DpTBl7EOQdjNjj7niLLBhfuvQMV5MsASs6fB6C/EQBB3nb4O
jovBr2cPQaGvIEDjHX3BB+QGQYF4qr/WLF/BdDzmQO6mCECuzqzBx9iEQAowI7+efaLB/vP7QJ8D
B8AJN6/BO4ANQVnTIkHXYZ3BO6wkQeZ5F0FatqPB12g6QcqlG0GasJHB1zwjQTz/JkEXXIvBE9+j
QDfPA0HYYJHByGy/QH5lB0EL5YTBsFy1QJhCyEAM2ZzBeFXdQNCLokB4opjBWn2dQCLfzUD4K3vB
pSFqQAjV8UBlcILBYNYlQdVl8kBh25XBJILjQA5NyEB8TofBmvavQLp/jEAjWInBn/cUQafivj/5
ik3BezAlQZzazz37zlXBIaEoQTiN2j9kN2LBaSYhQXu9o8AISInBnkIeQaBOWcAacYXB6Q0LQSCZ
k8C0BoHBVtk/QDgLSMCQ5pLB2fxVQI5lSsCRzYTBIw+NQI6eDsCbpI3B4fWNQLLgJkDcR6vBAx5w
QJzTzT9mq6DBeuILQXV/9kDkAobBG58AQeFFE0HHiIvBW7YSQfdDcMCWU5jBTQP/QMwTn8Aw6ZPB
4cqBQIX9qMA6o43BmNujQAUai8BFepbBak4AQaiu/b81kY7Bh5PaQD/wNcBR2pbBXdWrQJUWksAZ
M3zBxrfOQK96qcAg6YfBOcBlQCI8WUANFJPBlLvGQDDRW0DquZ/BIuanQK0dsj8Z+4/BGNtTQOd3
qUCl64fBFzViQETtyEBNMpLBriVWQEg3gUCc96TB

>  <OMEGA_E>  (31) 
wLOQPQ==

>  <OMEGA_NBR>  (31) 
     10717

$$$$
50209143
     RDKit          3D

 83 85  0  0  1  0  0  0  0  0999 V2000
    6.8433   -0.0960  -16.7117 C   0  0  0  0  0  0  0  0  0  0  0  0
    8.3997    1.5230  -15.7539 C   0  0  0  0  0  0  0  0  0  0  0  0
    8.1223   -0.6614  -14.7132 C   0  0  0  0  0  0  0  0  0  0  0  0
    6.8355    1.1260  -21.4197 C   0  0  0  0  0  0  0  0  0  0  0  0
    5.0988   -0.4451  -20.7210 C   0  0  0  0  0  0  0  0  0  0  0  0
    7.2169   -1.2749  -21.6000 C   0  0  0  0  0  0  0  0  0  0  0  0
    7.4563    1.1751  -16.7434 C   0  0  0  0  0  0  0  0  0  0  0  0
    7.1993   -1.0258  -15.7135 C   0  0  0  0  0  0  0  0  0  0  0  0
    8.7073    0.6186  -14.7214 C   0  0  0  0  0  0  0  0  0  0  0  0
    5.5503    0.8783  -20.8878 C   0  0  0  0  0  0  0  0  0  0  0  0
    7.6708    0.0491  -21.7665 C   0  0  0  0  0  0  0  0  0  0  0  0
    5.9263   -1.5193  -21.0880 C   0  0  0  0  0  0  0  0  0  0  0  0
    7.1012    2.1359  -17.7929 C   0  0  0  0  0  0  0  0  0  0  0  0
    6.5862   -2.3639  -15.6819 C   0  0  0  0  0  0  0  0  0  0  0  0
    8.5209    8.4504  -17.8855 C   0  0  0  0  0  0  0  0  0  0  0  0
    5.5268    7.8134  -17.3829 C   0  0  0  0  0  0  0  0  0  0  0  0
    6.1685    5.7880  -18.7012 C   0  0  0  0  0  0  0  0  0  0  0  0
    4.4817    6.9828  -16.6339 C   0  0  0  0  0  0  0  0  0  0  0  0
    6.7013    6.8995  -17.8022 C   0  0  1  0  0  0  0  0  0  0  0  0
    5.0570    4.9851  -17.9754 C   0  0  2  0  0  0  0  0  0  0  0  0
    9.7174    0.9965  -13.6637 C   0  0  0  0  0  0  0  0  0  0  0  0
    9.6083    9.1543  -18.6890 C   0  0  0  0  0  0  0  0  0  0  0  0
    3.8165   -3.3142  -17.6253 C   0  0  0  0  0  0  0  0  0  0  0  0
    9.4101   -4.2846  -16.9439 C   0  0  0  0  0  0  0  0  0  0  0  0
    4.6557    2.0250  -20.4856 C   0  0  0  0  0  0  0  0  0  0  0  0
    4.7558   -4.5198  -17.8110 C   0  0  0  0  0  0  0  0  0  0  0  0
    8.5575   -4.0569  -18.2066 C   0  0  0  0  0  0  0  0  0  0  0  0
    5.8764   -4.5252  -16.7582 C   0  0  0  0  0  0  0  0  0  0  0  0
    7.4977   -2.9670  -17.9725 C   0  0  0  0  0  0  0  0  0  0  0  0
    4.3738    3.9768  -18.9154 C   0  0  2  0  0  0  0  0  0  0  0  0
    5.3568    2.9221  -19.4491 C   0  0  1  0  0  0  0  0  0  0  0  0
    5.8254    2.0828  -18.3380 N   0  0  0  0  0  0  0  0  0  0  0  0
    6.6507   -3.2522  -16.7780 N   0  0  0  0  0  0  0  0  0  0  0  0
    3.9915    5.8946  -17.4941 N   0  0  0  0  0  0  0  0  0  0  0  0
    7.9174    2.9777  -18.1505 O   0  0  0  0  0  0  0  0  0  0  0  0
    6.0326   -2.6987  -14.6401 O   0  0  0  0  0  0  0  0  0  0  0  0
    8.4039    8.7425  -16.6991 O   0  0  0  0  0  0  0  0  0  0  0  0
    3.7849    4.6828  -20.0101 O   0  0  0  0  0  0  0  0  0  0  0  0
    7.6847    7.6190  -18.5759 O   0  0  0  0  0  0  0  0  0  0  0  0
    8.9037    0.2868  -22.2683 F   0  0  0  0  0  0  0  0  0  0  0  0
    5.4768   -2.7863  -20.9522 F   0  0  0  0  0  0  0  0  0  0  0  0
    6.1014   -0.3563  -17.4522 H   0  0  0  0  0  0  0  0  0  0  0  0
    8.8870    2.4862  -15.7892 H   0  0  0  0  0  0  0  0  0  0  0  0
    8.3817   -1.3667  -13.9375 H   0  0  0  0  0  0  0  0  0  0  0  0
    7.1761    2.1413  -21.5598 H   0  0  0  0  0  0  0  0  0  0  0  0
    4.1175   -0.6339  -20.3114 H   0  0  0  0  0  0  0  0  0  0  0  0
    7.8582   -2.1026  -21.8647 H   0  0  0  0  0  0  0  0  0  0  0  0
    5.0693    8.2581  -18.2789 H   0  0  0  0  0  0  0  0  0  0  0  0
    5.8998    8.6132  -16.7262 H   0  0  0  0  0  0  0  0  0  0  0  0
    5.7537    6.2321  -19.6181 H   0  0  0  0  0  0  0  0  0  0  0  0
    6.9929    5.1085  -18.9634 H   0  0  0  0  0  0  0  0  0  0  0  0
    4.9374    6.5544  -15.7290 H   0  0  0  0  0  0  0  0  0  0  0  0
    3.6387    7.6295  -16.3489 H   0  0  0  0  0  0  0  0  0  0  0  0
    7.1585    6.4594  -16.9036 H   0  0  0  0  0  0  0  0  0  0  0  0
    5.5012    4.4445  -17.1266 H   0  0  0  0  0  0  0  0  0  0  0  0
    9.2009    1.4674  -12.8143 H   0  0  0  0  0  0  0  0  0  0  0  0
   10.2421    0.0934  -13.3187 H   0  0  0  0  0  0  0  0  0  0  0  0
   10.4452    1.7039  -14.0880 H   0  0  0  0  0  0  0  0  0  0  0  0
   10.1497    9.8563  -18.0378 H   0  0  0  0  0  0  0  0  0  0  0  0
   10.3109    8.4076  -19.0874 H   0  0  0  0  0  0  0  0  0  0  0  0
    9.1490    9.7067  -19.5219 H   0  0  0  0  0  0  0  0  0  0  0  0
    3.0287   -3.3410  -18.3926 H   0  0  0  0  0  0  0  0  0  0  0  0
    3.3572   -3.3578  -16.6268 H   0  0  0  0  0  0  0  0  0  0  0  0
    4.3924   -2.3822  -17.7237 H   0  0  0  0  0  0  0  0  0  0  0  0
   10.1571   -5.0674  -17.1415 H   0  0  0  0  0  0  0  0  0  0  0  0
    9.9220   -3.3492  -16.6737 H   0  0  0  0  0  0  0  0  0  0  0  0
    8.7598   -4.5994  -16.1144 H   0  0  0  0  0  0  0  0  0  0  0  0
    4.4127    2.6234  -21.3760 H   0  0  0  0  0  0  0  0  0  0  0  0
    3.7289    1.6244  -20.0489 H   0  0  0  0  0  0  0  0  0  0  0  0
    4.1713   -5.4469  -17.7163 H   0  0  0  0  0  0  0  0  0  0  0  0
    5.2066   -4.4713  -18.8132 H   0  0  0  0  0  0  0  0  0  0  0  0
    9.2147   -3.7469  -19.0323 H   0  0  0  0  0  0  0  0  0  0  0  0
    8.0525   -4.9971  -18.4730 H   0  0  0  0  0  0  0  0  0  0  0  0
    5.4298   -4.6564  -15.7615 H   0  0  0  0  0  0  0  0  0  0  0  0
    6.5591   -5.3620  -16.9671 H   0  0  0  0  0  0  0  0  0  0  0  0
    8.0072   -2.0035  -17.8237 H   0  0  0  0  0  0  0  0  0  0  0  0
    6.8501   -2.9061  -18.8597 H   0  0  0  0  0  0  0  0  0  0  0  0
    3.5885    3.4568  -18.3471 H   0  0  0  0  0  0  0  0  0  0  0  0
    6.2083    3.4291  -19.9265 H   0  0  0  0  0  0  0  0  0  0  0  0
    5.1799    1.4269  -17.9468 H   0  0  0  0  0  0  0  0  0  0  0  0
    3.3288    5.3559  -16.9739 H   0  0  0  0  0  0  0  0  0  0  0  0
    3.5407    6.3002  -18.2892 H   0  0  0  0  0  0  0  0  0  0  0  0
    3.3611    4.0652  -20.5945 H   0  0  0  0  0  0  0  0  0  0  0  0
  1  7  2  0
  1  8  1  0
  2  7  1  0
  2  9  2  0
  3  8  2  0
  3  9  1  0
  4 10  2  0
  4 11  1  0
  5 10  1  0
  5 12  2  0
  6 11  2  0
  6 12  1  0
  7 13  1  0
  8 14  1  0
  9 21  1  0
 10 25  1  0
 11 40  1  0
 12 41  1  0
 13 32  1  0
 13 35  2  0
 14 33  1  0
 14 36  2  0
 15 22  1  0
 15 37  2  0
 15 39  1  0
 16 18  1  0
 16 19  1  0
 17 19  1  0
 17 20  1  0
 18 34  1  0
 19 39  1  0
 20 30  1  0
 20 34  1  0
 23 26  1  0
 24 27  1  0
 25 31  1  0
 26 28  1  0
 27 29  1  0
 28 33  1  0
 29 33  1  0
 30 31  1  0
 30 38  1  0
 31 32  1  0
  1 42  1  0
  2 43  1  0
  3 44  1  0
  4 45  1  0
  5 46  1  0
  6 47  1  0
 16 48  1  0
 16 49  1  0
 17 50  1  0
 17 51  1  0
 18 52  1  0
 18 53  1  0
 19 54  1  1
 20 55  1  1
 21 56  1  0
 21 57  1  0
 21 58  1  0
 22 59  1  0
 22 60  1  0
 22 61  1  0
 23 62  1  0
 23 63  1  0
 23 64  1  0
 24 65  1  0
 24 66  1  0
 24 67  1  0
 25 68  1  0
 25 69  1  0
 26 70  1  0
 26 71  1  0
 27 72  1  0
 27 73  1  0
 28 74  1  0
 28 75  1  0
 29 76  1  0
 29 77  1  0
 30 78  1  1
 31 79  1  6
 32 80  1  0
 34 81  1  0
 34 82  1  0
 38 83  1  0
M  CHG  1  34   1
M  END
>  <OMEGA_C>  (32) 
B/zaQAKXxL2jsYXBBmUGQT/xwj8SEHzB7/QBQdBPKb8caWvBnrzaQKohkD+CW6vBvSmjQObi476g
xKXB5PDmQK0wo7+9zKzB/pnuQDRqlj+H8oXBzWDmQDlNg7+PanvB7lALQYJcHj/uimvBDpyxQDDW
YD83GqfBeXf1QPoPST29Ia7BP6S9QM55wr9BtKjBYz3jQMqxCEDlV47BxMHSQNZKF8Dr6HrBslUI
Qds0B0F0FY/BP9uwQFQH+kAYEIvBUGTFQBw3uUAUnJXBxGmPQA5z30AkEoXBTXHWQFTI3EDiao7B
99KhQKCFn0CnzY/Bd3obQRocfz+vnlrBe7sZQd93EkEEg5XB/kB0QD4cVMCuAI3BmY8WQTAbicAZ
jYfBXvuUQIyZAUBz4qPBmC+YQE+ikMDmfI7BWesIQdjRgcAMp5HBWgu8QF7OkMDLEIbBEu3vQOfi
PcDGx4/B1vWLQLeDfkCvUpfBC2urQF0DO0Col5vBDGq6QD9MBUBNtJLBgdLUQEAjUMBnOYbB+nR/
QE6gvED084vBoFv9QCaSPkAnNJHBSQvBQDG3LMD6PWrBjHYGQXzhC0HDl4XBMjtyQEjZlUCaFKDB
4uj1QBLP80CCm5TBp3UOQRrbkj5vJbLBU0KvQNBSMsArnqfB3D7DQA5str4lnovB/zAOQS4dH0Cq
oHzBdRsGQRTvrr/2/17BwaLlQPgKCUBxeqzB88KDQHdKIr+6faLBEXb7QGGRBsD86q7BbDeiQFgh
BEEyO5LBhMu8QJ/PCUFZz4XBKh64QG5tx0Dc8ZzBe8XfQNx4o0ALtZfB6v6dQN690UDWqXvB8t9o
QIsk9ECZyoLBVhLlQKqzzkCoOofB0AmwQJo5jkA+A4nBBTcTQeDUuz98B03Btd8jQZZOvz1XGVXB
aB8nQdsX2j+kaGHBLGUiQX2zHUF/TZDBo/kkQaWFBkEWs5jBHmISQcROG0HnLJzBDdZBQFbSVcAJ
JJPBA9xWQNvlVsCYA4XBxI6MQJd2GMAZyo3BboMiQYAoosDUIYnBrcAeQX5ZVsDTY4XBKCgMQXou
k8BT6oDB7zSNQLHlJ0ASAqvBs6ZuQMTtzz8rZKDBb3uFQJ1MrsD2uo3BMZymQPsUj8B3gZbBnW8T
QQzNb8A1QpjBGNcAQUHon8C1yJPBycCtQBsBlcBCL3zB0uPRQMSVq8CxvIfBdR0AQX45AMAGl47B
VzTbQFz+OcCY4JbBuallQHA7XUDqxpLBC6rGQCh3W0BraZ/BpsGlQM6ktj//ko/BSgpVQM5jq0CQ
yofBhJpiQKCbyUBOUJLBCRxXQEcWgkB7waTBDN7cQMHTKb4GyoXBEHEIQWPOtz/AtH3ByOMDQUCP
Ob/vNGzBqg3YQBrJkj+t76vBfVWkQPf0+b7RTKXBeLXnQMo3nr8WIa3Bfg7xQJGFjD+tYobBDSjo
QKOjib+7QnvB1zkOQXyCBj9SjW3BmmCwQOzXWT+CEqfBhMfzQGK51D0C567Bm+2/QJ/hw78aW6jB
ABDkQCXsBEAsj47BsqLPQPGaFMA1jXjBv/sHQelEB0HkpY/BdNqxQGUZ+UDsH4vB0NnEQC9HuEAv
55XB9PeQQNyV3kAo7YTBrtvWQN+z20Cjy47BEC2iQEydnkCpwI/BsVEeQfZkbz/Xu1zBYxAZQYTf
EkH4IpbBHu6EQMoqTcCC/IzB6pAVQdyvdsDZwZfBtkSTQMfL+z8EfKPB1pOeQO+ikMCel4zBYH4D
QWSFScC5w5HB9Zq7QLgglMBckoLB5LcCQavXa8BmSIbBcHaLQNiGe0BQ8pbBSnyqQAiwN0CcWpvB
CZW6QBLxAUBBjZLBbOvaQB8GYcB9d4HBiYWAQNrXu0DXuIvBXGT9QP4JPEC2gJHBQCuwQBpSEsAf
32zBI9oHQQ7zCUE+64XB9Y5uQMnOk0AOm5/B5e31QFPg8kDOFJXBlAMNQaHhxz64aLPBuE60QJMQ
NMCNn6bBbcHEQNzu3r5Tl4vBIzkQQfSEGUAPlH7BQRoIQZ8utb+Fm1/BCBbhQM4bC0A6YK3BN/OF
QOe8Nr+FmaHBLPP8QGRvAsDQba/B13aiQFHKA0GdKZLBVI++QCxACUE57YXBC4G2QDObxkCwGJ3B
9eTeQASQokCtQ5jBIT+gQDDO0EB/knvBtpBsQNZU80BxeILBsBnmQGtZzUCouIfBeFuxQLPNjUBE
BInBkPwVQQ3Gtj/QYk/BwbomQbv8MD1ZyVbB8vUpQejx0D//yWPB9y8jQUllHEHQvJDBPAEjQRYV
B0F5YJrBqlMRQc2DHUFA+5vBuBliQL4NTMBJP5TBCoVgQGnCSMCA4oXBgimbQCOYFsAqG43BKE8W
QR2mXsAeBaDBL90kQWzpacCotZPB/YkSQUoEnsDF2pfBAM2JQH9SJEDId6rBMSVtQKPbxD/at5/B
n++HQH6Wq8BEjYzBnNayQFuBksDuxZPBwXwGQY4nBMDxopHBH1PoQLZGVsAOyJXBdwqnQBNklMAk
3HbBGXjNQGFmssB8CoPBUL8GQTwvmMAFYIbBmoYOQcgLScD7aoHBZiBmQOScWkB3HpLBJVLFQPz/
V0BdXp/BwDymQM3EsD+WNo/BAjZXQFaxqkCAcofBIDVjQKzjyEDUAJLBjlJSQCR7f0DCF6TB

>  <OMEGA_E>  (32) 
QG80PoQ7wz4=

>  <OMEGA_NBR>  (32) 
     13635

$$$$
50147861
     RDKit          3D

 84 86  0  0  1  0  0  0  0  0999 V2000
    6.9036   -0.0927  -16.7407 C   0  0  0  0  0  0  0  0  0  0  0  0
    8.3872    1.5583  -15.7213 C   0  0  0  0  0  0  0  0  0  0  0  0
    8.1624   -0.6553  -14.7309 C   0  0  0  0  0  0  0  0  0  0  0  0
    6.8680    1.1670  -21.4364 C   0  0  0  0  0  0  0  0  0  0  0  0
    5.2116   -0.4671  -20.6888 C   0  0  0  0  0  0  0  0  0  0  0  0
    7.3583   -1.2161  -21.5727 C   0  0  0  0  0  0  0  0  0  0  0  0
    7.4712    1.2003  -16.7327 C   0  0  0  0  0  0  0  0  0  0  0  0
    7.2684   -1.0307  -15.7563 C   0  0  0  0  0  0  0  0  0  0  0  0
    8.7070    0.6434  -14.7024 C   0  0  0  0  0  0  0  0  0  0  0  0
    5.5989    0.8718  -20.8901 C   0  0  0  0  0  0  0  0  0  0  0  0
    7.7495    0.1236  -21.7689 C   0  0  0  0  0  0  0  0  0  0  0  0
    6.0880   -1.5094  -21.0356 C   0  0  0  0  0  0  0  0  0  0  0  0
    7.0869    2.1759  -17.7586 C   0  0  0  0  0  0  0  0  0  0  0  0
    6.6253   -2.3550  -15.7091 C   0  0  0  0  0  0  0  0  0  0  0  0
    5.5729    7.7798  -17.3381 C   0  0  0  0  0  0  0  0  0  0  0  0
    6.1413    5.8005  -18.7690 C   0  0  0  0  0  0  0  0  0  0  0  0
    4.5139    6.9373  -16.6201 C   0  0  0  0  0  0  0  0  0  0  0  0
    6.7185    6.8700  -17.8411 C   0  0  1  0  0  0  0  0  0  0  0  0
    5.0596    4.9792  -18.0157 C   0  0  2  0  0  0  0  0  0  0  0  0
    9.6754    1.0399  -13.6114 C   0  0  0  0  0  0  0  0  0  0  0  0
    9.3399   -4.5238  -17.0039 C   0  0  0  0  0  0  0  0  0  0  0  0
    3.8681   -3.2676  -17.5668 C   0  0  0  0  0  0  0  0  0  0  0  0
    9.6157    9.0942  -18.6138 C   0  0  0  0  0  0  0  0  0  0  0  0
    4.6663    1.9878  -20.4861 C   0  0  0  0  0  0  0  0  0  0  0  0
    9.0130   -3.1978  -17.7136 C   0  0  0  0  0  0  0  0  0  0  0  0
    4.7298   -4.5371  -17.7060 C   0  0  0  0  0  0  0  0  0  0  0  0
    7.5067   -3.0502  -17.9922 C   0  0  0  0  0  0  0  0  0  0  0  0
    5.9134   -4.5471  -16.7186 C   0  0  0  0  0  0  0  0  0  0  0  0
    8.4211    8.5887  -17.8093 C   0  0  0  0  0  0  0  0  0  0  0  0
    4.3621    3.9491  -18.9199 C   0  0  2  0  0  0  0  0  0  0  0  0
    5.3507    2.8999  -19.4524 C   0  0  1  0  0  0  0  0  0  0  0  0
    5.8293    2.0708  -18.3378 N   0  0  0  0  0  0  0  0  0  0  0  0
    6.6776   -3.2760  -16.7807 N   0  0  0  0  0  0  0  0  0  0  0  0
    4.0057    5.8869  -17.5146 N   0  0  0  0  0  0  0  0  0  0  0  0
    7.8627    3.0723  -18.0701 O   0  0  0  0  0  0  0  0  0  0  0  0
    6.0242   -2.6374  -14.6781 O   0  0  0  0  0  0  0  0  0  0  0  0
    3.7325    4.6323  -20.0050 O   0  0  0  0  0  0  0  0  0  0  0  0
    7.6982    7.6154  -18.5874 O   0  0  0  0  0  0  0  0  0  0  0  0
    8.9712    0.4092  -22.2731 F   0  0  0  0  0  0  0  0  0  0  0  0
    5.7127   -2.7921  -20.8394 F   0  0  0  0  0  0  0  0  0  0  0  0
    6.1883   -0.3626  -17.5036 H   0  0  0  0  0  0  0  0  0  0  0  0
    8.8438    2.5370  -15.7296 H   0  0  0  0  0  0  0  0  0  0  0  0
    8.4302   -1.3673  -13.9642 H   0  0  0  0  0  0  0  0  0  0  0  0
    7.1608    2.1939  -21.5986 H   0  0  0  0  0  0  0  0  0  0  0  0
    4.2425   -0.6925  -20.2687 H   0  0  0  0  0  0  0  0  0  0  0  0
    8.0320   -2.0188  -21.8339 H   0  0  0  0  0  0  0  0  0  0  0  0
    5.1115    8.2925  -18.1950 H   0  0  0  0  0  0  0  0  0  0  0  0
    5.9799    8.5261  -16.6400 H   0  0  0  0  0  0  0  0  0  0  0  0
    5.6874    6.2845  -19.6463 H   0  0  0  0  0  0  0  0  0  0  0  0
    6.9476    5.1281  -19.0974 H   0  0  0  0  0  0  0  0  0  0  0  0
    4.9628    6.4709  -15.7307 H   0  0  0  0  0  0  0  0  0  0  0  0
    3.6808    7.5866  -16.3126 H   0  0  0  0  0  0  0  0  0  0  0  0
    7.1891    6.3798  -16.9761 H   0  0  0  0  0  0  0  0  0  0  0  0
    5.5336    4.4550  -17.1728 H   0  0  0  0  0  0  0  0  0  0  0  0
    9.1199    1.4755  -12.7679 H   0  0  0  0  0  0  0  0  0  0  0  0
   10.2250    0.1509  -13.2684 H   0  0  0  0  0  0  0  0  0  0  0  0
   10.3864    1.7816  -14.0042 H   0  0  0  0  0  0  0  0  0  0  0  0
   10.4234   -4.5871  -16.8250 H   0  0  0  0  0  0  0  0  0  0  0  0
    8.8066   -4.5663  -16.0428 H   0  0  0  0  0  0  0  0  0  0  0  0
    9.0231   -5.3660  -17.6366 H   0  0  0  0  0  0  0  0  0  0  0  0
    3.0392   -3.3055  -18.2889 H   0  0  0  0  0  0  0  0  0  0  0  0
    3.4626   -3.2099  -16.5459 H   0  0  0  0  0  0  0  0  0  0  0  0
    4.4874   -2.3806  -17.7660 H   0  0  0  0  0  0  0  0  0  0  0  0
   10.1693    9.8376  -18.0214 H   0  0  0  0  0  0  0  0  0  0  0  0
   10.2788    8.2502  -18.8549 H   0  0  0  0  0  0  0  0  0  0  0  0
    9.2601    9.5588  -19.5453 H   0  0  0  0  0  0  0  0  0  0  0  0
    4.4006    2.5797  -21.3744 H   0  0  0  0  0  0  0  0  0  0  0  0
    3.7544    1.5585  -20.0454 H   0  0  0  0  0  0  0  0  0  0  0  0
    9.3397   -2.3633  -17.0757 H   0  0  0  0  0  0  0  0  0  0  0  0
    9.5562   -3.1630  -18.6695 H   0  0  0  0  0  0  0  0  0  0  0  0
    4.0988   -5.4169  -17.5118 H   0  0  0  0  0  0  0  0  0  0  0  0
    5.1236   -4.5875  -18.7318 H   0  0  0  0  0  0  0  0  0  0  0  0
    7.3153   -2.0334  -18.3658 H   0  0  0  0  0  0  0  0  0  0  0  0
    7.2166   -3.7833  -18.7593 H   0  0  0  0  0  0  0  0  0  0  0  0
    5.5273   -4.6838  -15.6977 H   0  0  0  0  0  0  0  0  0  0  0  0
    6.5842   -5.3814  -16.9717 H   0  0  0  0  0  0  0  0  0  0  0  0
    8.7761    8.1236  -16.8778 H   0  0  0  0  0  0  0  0  0  0  0  0
    7.7574    9.4322  -17.5682 H   0  0  0  0  0  0  0  0  0  0  0  0
    3.6004    3.4286  -18.3209 H   0  0  0  0  0  0  0  0  0  0  0  0
    6.1977    3.4133  -19.9308 H   0  0  0  0  0  0  0  0  0  0  0  0
    5.2049    1.3817  -17.9701 H   0  0  0  0  0  0  0  0  0  0  0  0
    3.3316    5.3436  -17.0141 H   0  0  0  0  0  0  0  0  0  0  0  0
    3.5654    6.3243  -18.2987 H   0  0  0  0  0  0  0  0  0  0  0  0
    3.2992    4.0017  -20.5682 H   0  0  0  0  0  0  0  0  0  0  0  0
  1  7  2  0
  1  8  1  0
  2  7  1  0
  2  9  2  0
  3  8  2  0
  3  9  1  0
  4 10  2  0
  4 11  1  0
  5 10  1  0
  5 12  2  0
  6 11  2  0
  6 12  1  0
  7 13  1  0
  8 14  1  0
  9 20  1  0
 10 24  1  0
 11 39  1  0
 12 40  1  0
 13 32  1  0
 13 35  2  0
 14 33  1  0
 14 36  2  0
 15 17  1  0
 15 18  1  0
 16 18  1  0
 16 19  1  0
 17 34  1  0
 18 38  1  0
 19 30  1  0
 19 34  1  0
 21 25  1  0
 22 26  1  0
 23 29  1  0
 24 31  1  0
 25 27  1  0
 26 28  1  0
 27 33  1  0
 28 33  1  0
 29 38  1  0
 30 31  1  0
 30 37  1  0
 31 32  1  0
  1 41  1  0
  2 42  1  0
  3 43  1  0
  4 44  1  0
  5 45  1  0
  6 46  1  0
 15 47  1  0
 15 48  1  0
 16 49  1  0
 16 50  1  0
 17 51  1  0
 17 52  1  0
 18 53  1  1
 19 54  1  1
 20 55  1  0
 20 56  1  0
 20 57  1  0
 21 58  1  0
 21 59  1  0
 21 60  1  0
 22 61  1  0
 22 62  1  0
 22 63  1  0
 23 64  1  0
 23 65  1  0
 23 66  1  0
 24 67  1  0
 24 68  1  0
 25 69  1  0
 25 70  1  0
 26 71  1  0
 26 72  1  0
 27 73  1  0
 27 74  1  0
 28 75  1  0
 28 76  1  0
 29 77  1  0
 29 78  1  0
 30 79  1  1
 31 80  1  6
 32 81  1  0
 34 82  1  0
 34 83  1  0
 37 84  1  0
M  CHG  1  34   1
M  END
>  <OMEGA_C>  (33) 
mOrcQNfgvb0L7YXB+zEGQX93xz+binvBGpkCQc7CJ7+psWvB48bbQEphlT/RfavBRcWmQMkj777A
gqXBA3frQACqm7/SlKzB8hPvQJaimT+f3IXB7JboQFvtg7/kGXzBz08LQeu3JD81PWvBhSqzQEcw
Xz/hHqfBgvv3QNkv/T28Jq7BANHCQGIywb/mSKjBfMfiQH9CC0CdEY7BwALUQBO5FsBsWHvBlVWy
QPvz+EBytIrB0YXEQOKduUD1JpbBnXGQQK7+3UDp9YTB5f3WQO/W20CQuo7BROihQHVVn0BAIJDB
Zc4aQUkahT9vyFnBSXAVQRHDkMD6B4jBAI93QCwgUcDWiIzBAtoZQbyBEUEh6ZTBM1KVQK9v/j9x
46PBDDUQQfOnTMB9tY3BvFqXQOsvkcDPpY3BfjbwQH02Q8AQ8I/BOTq9QCKCkcC2v4XBprwGQSZr
CUFueY7BhJaLQE69fEAGXJfBkDirQGOXOUCNnpvBzom6QMWHBEDCs5LBPq/VQD2pUcDGPobBYC6A
QD1hvEDlHYzBcpv7QOKgREB3j5DBkcbAQGXKKMB/2WrBmuBuQJE7lEA9CqDBilf2QJGx80AKs5TB
GIoPQYh/0T5HL7LBf862QJmxMsAOt6bBvAbGQI+lub5LB4zBFIANQfleIkB/rHvBRuIGQasCr79o
bV/BayXlQExoDEDbyazBtsKHQHRFMb9QJqLBP4MAQUMzAcDFq67BxZGjQOGtBEFhj5HBaVu/QBRr
CEHCHoXB0/61QLIayUCtK53BsVLeQMAZpECJx5jBJs+eQLQRz0AasXvB4JJrQEnF8kAwgILB4Qzm
QAcnzEAHz4fB3BKxQIKPjkDRYYnB/eoRQU/dvD8oSUzBkJkjQVaGGj5KS1TBxC4mQXwL5D83EWDB
VMYmQYjJksCUmYbB5OcMQW8fksCSV4DBg14QQVa2q8DDF43BnoFCQGeNU8CuT5LBl5pdQK5vTcAP
XoTB0piPQEBbGMC0II7BRrUiQcpmHUHqK5DB7nUkQQIBBEHm1pbBiykUQfjwGEHNXJzBBtKMQE4Z
JUC2/qrBfkhwQFB7xz/1XKDBZm8VQedAF8D0mojBBuYYQbZuSsAlW5XBCCmDQD5XrcAiGIzBjvSj
QAfNksDH2pXBqxbqQLwjAsAg7ZLBwu7mQLUhcsAYE5bBht+wQHThlcC7KXvBgbHSQFg0rMD0xYfB
5moMQS76AUHFBYfBBj34QCTqFkGsi4zBKWxmQI5tW0BKkZLBxlPGQO9yWkBdcp/BcI6mQJnasD+3
wo/BrjhVQMj+qkDqHIjB1C9kQA5hykC3Y5LBoyZTQJgNgECVi6TBLqzaQMAb4r23qYXBFiIGQSiE
wT/U9HvBjucBQTCHLb83amvBSH7aQCDhkj/2c6vBGuCjQC326b7w4aXB5g/oQBpan7/4+6zBwATu
QF0QlT+y4oXBEUfmQJldhb/manvBbigLQbLlGj+XfmvBg4exQGTnXz9qMKfBh9P1QC56sz0CRq7B
lO++QHjVwb8w4KjBY0PiQHhfCEBVOY7BSsnSQEtgGMBo/nrBfwyzQF0Y+UBl6IrBjOjEQIHHuEDP
+ZXBcqiQQDP/3kDlFoXB7oLXQPs120C2q47BlKihQGhKn0Do/I/BXTQbQaT+fD/HfVrBAHx0QBb3
UcBiII3BLI4WQRNMicBneIfBUXAaQeFcEEFgSpXB6UyUQJ07AEBf5qPBS92XQPTZj8D/tI7BWyAJ
QYDbgcB4opHB4b27QPzSkMCwSobBXDzwQEEaPsCz0I/BmhkHQfsDCUHZzI7BszKLQBRMfUB4SpfB
dYqqQPiUOUAFlZvBCKq5QPqwA0DttZLBt9fUQJ+hUMDjUYbB8SeAQHbjvEDkE4zBi9P7QNXYP0Dg
6ZDB59rAQPoELsDyZmrBYhZvQMvKlEAQAaDBI2H3QCzj8UAXv5TBoYoOQS5dsz6XT7LBqDSxQJCB
MsAC3qfB+/bCQA/Ovr7NlovBSOANQYWDHkCFfXzB/iEGQdhFsb+LDl/B/MvkQBHWCkBWi6zBK6OE
QKtNKr9ZlaLBqwb9QNbWA8D0JK/B2LekQCiCBEEE5JHB8B7AQNCsCEFuboXBTfC2QMv/x0DNGZ3B
Y4zeQFTCokBLb5jBuKSeQEmN0ECFu3vBSVlsQBRL9EDny4LBtRnmQArly0AHo4fBnkewQHVRjkA5
M4nBy9MSQbv0uT/+6UzBhrEjQWgrtT2R+VTB48gmQabr2T9HNGHBeg5CQEidUsA5RJPBRg1XQLwL
VcBKJIXBiQONQGmvFsDz1o3BaI0iQcRMosDsA4nB0q8eQX3HVsCeO4XBDQQMQQCCk8C15oDBNDwj
QZeoHEH5yJDBsQQlQYyhAkEd0JbBOAAVQVEXF0E+9JzB/COMQGu4JkD6+qrBJcZtQPMJyz+LZ6DB
bc+EQGhSrcAdBo7BU0ymQD8kjsDHuJbBN8cTQWibb8BuLJjBcRsBQfXrn8CE15PBa3CtQItWlcA5
qXzBI1nRQHGyq8B0D4jBzDkAQVVpAMABk47Ba77bQIslOsAE9JbBToMMQZZEAkHwIofBq/34QFy6
FkERR43BegtlQGpPXEBVj5LB283FQLwTWkBbY5/Bv0mlQIRIsT/zsY/BpxZVQMXuq0Bf+YfBBR9k
QMt8ykB3Z5LB7jhTQH3KgECti6TB3nHcQGp4SL6YN4XBVSwHQc7+uj/QOXzB2NEDQQjZNr9582rB
477WQAoKkD+DNavBvp+gQDFB+L4cbaXBmtniQP0qob+yra3B/znvQBi4iz9ru4XB1wPpQExmjb9g
RXrBO/cMQTCWEj9TyGvBQWyuQIjnWD9pmKbB3R/xQICekD27n67BebK6QIyUxL9/C6nB70/iQGfH
A0CoBI7BIqvSQD9XGcAo0XfBGha0QFgs+kDIVYvBUIzFQIM3uEA47pXBCmySQOyt4ED7H4XBembY
QMMK3EAwDo/BU2CiQLe2n0Dio4/B/5EdQZPUfD9VglvBKyaNQOY2W8AK2o7BtMMAQTfKMsDtopbB
G0YaQTmqEEEn0ZbBtceRQFVp/D+d9aLB7GCSQEthjcCPjoXBD/IJQZsUfsBESpDBn8vBQBFrl8Ab
k4LBiXMGQS2sccDIOITBBFkHQeebCUHI8o/BjPWKQE5KfUCNopbBQ1SpQEOeN0C14ZrBu9C4QNmr
AUB9AZLBghHfQJ+rY8CXhYHBDFGBQO/4vUB1z4vBEfn7QO3VOUCbFpHBndSyQOmiGcAbZWzBvCRu
QEtflED+ZJ/BgFT3QCpZ8kBYhJXB2/oLQQOcqz745LLBdRytQJD4M8C2HKjBxX3EQIzB977EAIvB
Zq4OQaahG0DzMX3BWJAIQaKus7+thl7BEUbhQKd1CUDhG6zB/BWCQMe3Mr8iwqHB8bT2QK5sBMBz
grDBAwqlQMeLBEGvXJLBOnrBQEeaCUHbIYbBBW63QG8ixkC+M53BmSbfQLnIoUDGK5jBQzKhQEvu
0kB21HvB109wQBYo9kAUyILBSubnQLf2zUBN+4fBCzixQB1Fj0AdzYjBPp8VQc5muz/Zx03Bqmkm
QUipzT2RBlbBDMUoQVSm2T9S4GLBZNBVQNK/UMBvapDBaVScQKYDHsAkuozBk3qcQNNjdcDqEJbB
K3oDQYlKPcBLO5/BpvfeQF2sLcBwGJXBD7sIQZOK7r9VJJTBpkcjQZc6HUEinJLBrNAkQcXjAkGx
TpjBUV0UQRf1FkFhfJ7B4k+IQILCJECB7qnBWh1qQGCAxj/1JZ/B5X+CQJK9f8DU7nzBEKaCQN+O
q8AwzofB9PUBQVaynMCL2JLBMDUbQc1+gcBw5JHBM7fBQBVwqMBNvnXBU+fOQP50rMCT0ojBqSEM
QX2PlcCGAIDBprkPQRS/OcAxkIHBkToNQWNLA0FTR4jBa475QLRcF0EDdY7B2adkQBkdXkC4s5HB
e5bEQHJtVkAZ557BUB6kQMTosT8LpI7Bo6tXQIafrUDAg4fBdeJlQDr6ykDyLJLBaQVRQJ43gEBe
xKPB

>  <OMEGA_E>  (33) 
QOVWPYAw6DxwcI4+

>  <OMEGA_NBR>  (33) 
     17839

$$$$
50209157
     RDKit          3D

 74 76  0  0  1  0  0  0  0  0999 V2000
    6.7906   -0.1224  -16.7489 C   0  0  0  0  0  0  0  0  0  0  0  0
    8.2740    1.5396  -15.7450 C   0  0  0  0  0  0  0  0  0  0  0  0
    8.0296   -0.6501  -14.7125 C   0  0  0  0  0  0  0  0  0  0  0  0
    6.8322    1.1487  -21.4290 C   0  0  0  0  0  0  0  0  0  0  0  0
    5.0992   -0.4266  -20.7342 C   0  0  0  0  0  0  0  0  0  0  0  0
    7.2377   -1.2530  -21.5724 C   0  0  0  0  0  0  0  0  0  0  0  0
    7.3698    1.1675  -16.7621 C   0  0  0  0  0  0  0  0  0  0  0  0
    7.1443   -1.0413  -15.7361 C   0  0  0  0  0  0  0  0  0  0  0  0
    8.5778    0.6445  -14.7041 C   0  0  0  0  0  0  0  0  0  0  0  0
    5.5390    0.9025  -20.9139 C   0  0  0  0  0  0  0  0  0  0  0  0
    7.6806    0.0724  -21.7530 C   0  0  0  0  0  0  0  0  0  0  0  0
    5.9444   -1.5015  -21.0707 C   0  0  0  0  0  0  0  0  0  0  0  0
    7.0278    2.1276  -17.8192 C   0  0  0  0  0  0  0  0  0  0  0  0
    6.5583   -2.3922  -15.6931 C   0  0  0  0  0  0  0  0  0  0  0  0
    6.3078    7.0176  -17.7140 C   0  0  0  0  0  0  0  0  0  0  0  0
    6.1552    5.8552  -18.6721 C   0  0  0  0  0  0  0  0  0  0  0  0
    4.8700    7.2885  -17.2587 C   0  0  0  0  0  0  0  0  0  0  0  0
    5.0673    5.0158  -17.9833 C   0  0  2  0  0  0  0  0  0  0  0  0
    9.5455    1.0496  -13.6168 C   0  0  0  0  0  0  0  0  0  0  0  0
    3.9207   -3.5222  -17.6946 C   0  0  0  0  0  0  0  0  0  0  0  0
    9.4943   -4.2808  -16.8319 C   0  0  0  0  0  0  0  0  0  0  0  0
    4.6314    2.0608  -20.5304 C   0  0  0  0  0  0  0  0  0  0  0  0
    4.8953   -4.7117  -17.7784 C   0  0  0  0  0  0  0  0  0  0  0  0
    8.6598   -4.1078  -18.1157 C   0  0  0  0  0  0  0  0  0  0  0  0
    5.9819   -4.6268  -16.6946 C   0  0  0  0  0  0  0  0  0  0  0  0
    7.5637   -3.0423  -17.9311 C   0  0  0  0  0  0  0  0  0  0  0  0
    4.3330    4.0267  -18.9176 C   0  0  2  0  0  0  0  0  0  0  0  0
    5.3066    2.9607  -19.4707 C   0  0  1  0  0  0  0  0  0  0  0  0
    5.7539    2.0981  -18.3666 N   0  0  0  0  0  0  0  0  0  0  0  0
    6.7026   -3.3221  -16.7460 N   0  0  0  0  0  0  0  0  0  0  0  0
    4.1217    6.0122  -17.4265 N   0  0  0  0  0  0  0  0  0  0  0  0
    7.8531    2.9614  -18.1752 O   0  0  0  0  0  0  0  0  0  0  0  0
    5.9811   -2.7111  -14.6592 O   0  0  0  0  0  0  0  0  0  0  0  0
    3.7223    4.7454  -19.9897 O   0  0  0  0  0  0  0  0  0  0  0  0
    8.9170    0.3117  -22.2459 F   0  0  0  0  0  0  0  0  0  0  0  0
    5.5127   -2.7730  -20.9131 F   0  0  0  0  0  0  0  0  0  0  0  0
    6.0795   -0.4043  -17.5114 H   0  0  0  0  0  0  0  0  0  0  0  0
    8.7347    2.5162  -15.7660 H   0  0  0  0  0  0  0  0  0  0  0  0
    8.2885   -1.3482  -13.9302 H   0  0  0  0  0  0  0  0  0  0  0  0
    7.1701    2.1641  -21.5744 H   0  0  0  0  0  0  0  0  0  0  0  0
    4.1132   -0.6194  -20.3380 H   0  0  0  0  0  0  0  0  0  0  0  0
    7.8892   -2.0784  -21.8185 H   0  0  0  0  0  0  0  0  0  0  0  0
    6.9465    6.7444  -16.8612 H   0  0  0  0  0  0  0  0  0  0  0  0
    6.7320    7.8954  -18.2235 H   0  0  0  0  0  0  0  0  0  0  0  0
    5.8283    6.1961  -19.6655 H   0  0  0  0  0  0  0  0  0  0  0  0
    7.0945    5.2908  -18.7688 H   0  0  0  0  0  0  0  0  0  0  0  0
    4.8584    7.5991  -16.2035 H   0  0  0  0  0  0  0  0  0  0  0  0
    4.4183    8.0774  -17.8781 H   0  0  0  0  0  0  0  0  0  0  0  0
    5.5269    4.4474  -17.1613 H   0  0  0  0  0  0  0  0  0  0  0  0
    8.9911    1.5048  -12.7828 H   0  0  0  0  0  0  0  0  0  0  0  0
   10.0850    0.1612  -13.2566 H   0  0  0  0  0  0  0  0  0  0  0  0
   10.2652    1.7776  -14.0192 H   0  0  0  0  0  0  0  0  0  0  0  0
    3.1589   -3.6154  -18.4826 H   0  0  0  0  0  0  0  0  0  0  0  0
    3.4308   -3.5184  -16.7097 H   0  0  0  0  0  0  0  0  0  0  0  0
    4.4764   -2.5827  -17.8313 H   0  0  0  0  0  0  0  0  0  0  0  0
   10.2665   -5.0468  -16.9963 H   0  0  0  0  0  0  0  0  0  0  0  0
    9.9748   -3.3251  -16.5754 H   0  0  0  0  0  0  0  0  0  0  0  0
    8.8373   -4.5938  -16.0070 H   0  0  0  0  0  0  0  0  0  0  0  0
    4.4139    2.6603  -21.4266 H   0  0  0  0  0  0  0  0  0  0  0  0
    3.6923    1.6621  -20.1191 H   0  0  0  0  0  0  0  0  0  0  0  0
    4.3306   -5.6464  -17.6461 H   0  0  0  0  0  0  0  0  0  0  0  0
    5.3762   -4.7107  -18.7677 H   0  0  0  0  0  0  0  0  0  0  0  0
    9.3245   -3.7997  -18.9363 H   0  0  0  0  0  0  0  0  0  0  0  0
    8.1869   -5.0684  -18.3679 H   0  0  0  0  0  0  0  0  0  0  0  0
    5.5110   -4.7366  -15.7066 H   0  0  0  0  0  0  0  0  0  0  0  0
    6.7051   -5.4412  -16.8486 H   0  0  0  0  0  0  0  0  0  0  0  0
    8.0421   -2.0607  -17.7979 H   0  0  0  0  0  0  0  0  0  0  0  0
    6.9323   -3.0233  -18.8316 H   0  0  0  0  0  0  0  0  0  0  0  0
    3.5595    3.5111  -18.3296 H   0  0  0  0  0  0  0  0  0  0  0  0
    6.1701    3.4664  -19.9274 H   0  0  0  0  0  0  0  0  0  0  0  0
    5.0965    1.4478  -17.9858 H   0  0  0  0  0  0  0  0  0  0  0  0
    3.7766    5.6991  -16.5417 H   0  0  0  0  0  0  0  0  0  0  0  0
    3.3554    6.1451  -18.0551 H   0  0  0  0  0  0  0  0  0  0  0  0
    3.2714    4.1368  -20.5632 H   0  0  0  0  0  0  0  0  0  0  0  0
  1  7  2  0
  1  8  1  0
  2  7  1  0
  2  9  2  0
  3  8  2  0
  3  9  1  0
  4 10  2  0
  4 11  1  0
  5 10  1  0
  5 12  2  0
  6 11  2  0
  6 12  1  0
  7 13  1  0
  8 14  1  0
  9 19  1  0
 10 22  1  0
 11 35  1  0
 12 36  1  0
 13 29  1  0
 13 32  2  0
 14 30  1  0
 14 33  2  0
 15 16  1  0
 15 17  1  0
 16 18  1  0
 17 31  1  0
 18 27  1  0
 18 31  1  0
 20 23  1  0
 21 24  1  0
 22 28  1  0
 23 25  1  0
 24 26  1  0
 25 30  1  0
 26 30  1  0
 27 28  1  0
 27 34  1  0
 28 29  1  0
  1 37  1  0
  2 38  1  0
  3 39  1  0
  4 40  1  0
  5 41  1  0
  6 42  1  0
 15 43  1  0
 15 44  1  0
 16 45  1  0
 16 46  1  0
 17 47  1  0
 17 48  1  0
 18 49  1  1
 19 50  1  0
 19 51  1  0
 19 52  1  0
 20 53  1  0
 20 54  1  0
 20 55  1  0
 21 56  1  0
 21 57  1  0
 21 58  1  0
 22 59  1  0
 22 60  1  0
 23 61  1  0
 23 62  1  0
 24 63  1  0
 24 64  1  0
 25 65  1  0
 25 66  1  0
 26 67  1  0
 26 68  1  0
 27 69  1  1
 28 70  1  6
 29 71  1  0
 31 72  1  0
 31 73  1  0
 34 74  1  0
M  CHG  1  31   1
M  END
>  <OMEGA_C>  (34) 
Q0zZQFCs+r3N/YXBVmIEQbMRxT9U63vBN3kAQVtsJr87ZmvBIKHaQCAJkz+nbqvB7CyjQEdq2r6R
36XB1ZrnQDJjoL9ClKzBG9XrQHZvlT/JGIbByp3kQE5Khb8Lx3vB1T4JQa/8JD/1Q2vBvj+xQG0K
Zz+WT6fBV8f1QHpClD0fBq7BiDi+QIsvwL+9kKjBZOPgQEYrCEDBjY7BM93RQAUaGcAQF3vBH9nJ
QCmQ4EBSto3BuffEQABeu0BnYJXBDNebQKg76UDeEYrBaSeiQGeBoEDa3Y/BS7oYQU9Yhj853lnB
/+x6QBxrYcCAjo3BxugXQZ78iMCjp4bBZDSUQJfkA0AzPqTB9aWcQBzGlsA/Oo7Bpo4KQQJzg8AG
7ZDB8Wu/QLYOlMB+joXBzwnyQHu0QsDeco/BI6iKQPfagEBHV5fBcc+pQHJ8PUD+w5vBpx+4QGFH
BkDk7pLBqHvWQI6dVMDe94XBn+SDQO1jwECLaYvBq0z7QO2HPUDPZpHBcGW/QFyDLcAqjGrBhTpu
QD7al0Dw6p/BEqwOQQKYnz6y97HBaWiwQNp4McAfTqfBLovCQO0Bz75EF4zBg8ELQeYIIUBmQXzB
kJ0EQU+SrL/l4V7BmnHlQO6ACkB5mKzBMp+DQCyUHr9QtKLBhHT8QCYFBcAzjK7BykneQOzR10Cy
44bBf2zXQMmm/EC0yZHBeIG6QDZGxkD7Up3BxAXjQKFOqUCAJpbBLnibQAIs80DdoIHBTmKNQO08
AUFjBo/BY9ywQBRRjkBhSonBqtsPQbqcwD9chkzBU1whQeQRJT44G1TBWj4kQUyI4z+UTmDBFitK
QEliZ8BK3JPBbJJbQLctYcB5rYXBnT6PQGtLJcBypo7BjEMkQZN/ocBb+IfB5pgfQRPPVMBzmoTB
i2UNQcoAk8BoDoDBTz6NQAJDKkC3aavBwk5sQAO/1D/+86DBp5SKQGGvtMBQK43BDgqsQDu+lsBJ
JJbB/jAVQRQuc8CMfZfBpP0CQUswosCC8ZLBGFqwQP+Rl8ASTnvBWpDWQGUersDnyYbBfqwAQTLj
A8ArYo7BldXdQFl9QcA2p5bB585jQJu1YEAAo5LBh3HFQALaXUBJa5/BlRajQHZSuT/74o/BKrNx
QDJftkBzVYTBJ75WQFmkxEDncJDBQ19RQN1ghEBggaTB29rdQEBO9jsJvIXBKl0EQbGG3D+uHXrB
B5gBQVYc/r6SJmrBYV/eQKOklz9n8qrBl1+nQK5+4b61EabBNVbtQDwUmr9PP6zBd7LtQNEJqT9j
gYXBA63pQN3daL8Ma3vBDT4JQegsUz88aWnBSa60QMq/Zj96L6fBGbD6QGTVCD4paK3BL6HDQD+0
vr/Vo6jBpxziQPIrEECHFI7Bc87aQNJeEsA63XzBj7bGQD8a4UCQkI3BYPDCQDNAvECkWZXB/0qY
QIS96EAxHorBVaWgQOFcoEAg9Y/B6tgXQfvUnz+WblfB3x2DQGsJr8Biho3Bxg8QQa/VmcBQFofB
PmqWQMwSAkBXNKTBQ7WtQOlXncB3lYnBvowSQZIhWMAoeovBnkiuQKD1WsASxovBqfX6QM7NNcA1
U5DBGXqKQP4XgEBegZfB8uyqQFjaPUCaxpvBHgy6QIbTCEDy0ZLBUyrXQBgtN8BFiIjBg1mBQJZj
v0BWl4vBKbT7QDwXR0Dn5pDBXc7IQOxUMsAKXG3BXLdtQFt8lkACLKDBHFQRQdxH0T4f67DBs7a2
QCqHMcBSrqfBeo7IQIu7mb7jE4zB3PwKQcwZLkAu+XnB0IIFQZ1QmL+Xf13B54XoQAlrDUB276vB
6H+HQH+dKb/XPaPB7okBQRmhAMDAH67Bxc/aQOFe2ECMrYbBTxfUQCOe/UBPfpHBnWW4QHVLx0B/
R53Bv23hQGHxqkCKIpbBaR6XQKiS8kBfrIHB1aKJQPnbAEGtHo/Bs4yvQL+UjkD3VonBgkAOQYjc
1D8kQErBd+cgQSEqwT55qFHBCwsjQXLyAEDWRl3B2tyBQE600cBcCIzBBIpRQAU4n8DHO4nBU+V/
QCT1qMALKJbBAmcfQSOrpMDruoPBCsUDQcsfmsAVyoDBrzoLQVVqr8Adm43BVN2OQFVsJ0DNa6vB
iJNxQLuIzT/+5aDB1QWxQBs0o8BC8oDBfDPIQDvxrMCG3o3B+nwXQYGrLcAa6ITBnvIeQZRAWMAi
uZHB9XGpQIStT8AXYJTBvXGUQKvsO8BxOofByAkAQT3y5r9H+5LBsUTyQGK/XcDuPJfBMtJjQH7R
XUDh5JLBHgbGQEPQX0AOdJ/BbxymQMLDuD+c8I/B7DdsQGn8tEAkkYTB1RhSQJUnw0DQtZDBkX5S
QHGXgkCFzaTB

>  <OMEGA_E>  (34) 
YNxCPrh5zT4=

>  <OMEGA_NBR>  (34) 
     20501

$$$$
50209162
     RDKit          3D

 87 89  0  0  1  0  0  0  0  0999 V2000
    6.8777   -0.0938  -16.7462 C   0  0  0  0  0  0  0  0  0  0  0  0
    8.4490    1.5291  -15.8261 C   0  0  0  0  0  0  0  0  0  0  0  0
    8.1832   -0.6468  -14.7599 C   0  0  0  0  0  0  0  0  0  0  0  0
    6.8050    1.2473  -21.5415 C   0  0  0  0  0  0  0  0  0  0  0  0
    5.2112   -0.4208  -20.7357 C   0  0  0  0  0  0  0  0  0  0  0  0
    7.3088   -1.1265  -21.7621 C   0  0  0  0  0  0  0  0  0  0  0  0
    7.4852    1.1785  -16.7948 C   0  0  0  0  0  0  0  0  0  0  0  0
    7.2424   -1.0115  -15.7389 C   0  0  0  0  0  0  0  0  0  0  0  0
    8.8033    0.6145  -14.8157 C   0  0  0  0  0  0  0  0  0  0  0  0
    5.5730    0.9265  -20.9297 C   0  0  0  0  0  0  0  0  0  0  0  0
    7.6744    0.2211  -21.9505 C   0  0  0  0  0  0  0  0  0  0  0  0
    6.0728   -1.4452  -21.1651 C   0  0  0  0  0  0  0  0  0  0  0  0
    7.1131    2.1323  -17.8468 C   0  0  0  0  0  0  0  0  0  0  0  0
    6.6271   -2.3416  -15.6969 C   0  0  0  0  0  0  0  0  0  0  0  0
    5.5994    7.7626  -17.2322 C   0  0  0  0  0  0  0  0  0  0  0  0
    6.1359    5.8106  -18.7374 C   0  0  0  0  0  0  0  0  0  0  0  0
    4.5483    6.9024  -16.5253 C   0  0  0  0  0  0  0  0  0  0  0  0
    6.7144    6.8694  -17.8102 C   0  0  1  0  0  0  0  0  0  0  0  0
    5.0561    4.9891  -17.9928 C   0  0  2  0  0  0  0  0  0  0  0  0
    9.8032    1.0080  -13.7553 C   0  0  0  0  0  0  0  0  0  0  0  0
    3.1298   -4.2159  -17.7022 C   0  0  0  0  0  0  0  0  0  0  0  0
    9.3560   -4.3736  -16.7629 C   0  0  0  0  0  0  0  0  0  0  0  0
    9.8056    8.5506  -19.0617 C   0  0  0  0  0  0  0  0  0  0  0  0
    8.8771    8.6456  -16.7333 C   0  0  0  0  0  0  0  0  0  0  0  0
    4.6376    2.0235  -20.4844 C   0  0  0  0  0  0  0  0  0  0  0  0
    4.4060   -3.3892  -17.7147 C   0  0  0  0  0  0  0  0  0  0  0  0
    8.5481   -4.1961  -18.0596 C   0  0  0  0  0  0  0  0  0  0  0  0
    5.5405   -4.1441  -17.0091 C   0  0  0  0  0  0  0  0  0  0  0  0
    7.5914   -3.0001  -17.9427 C   0  0  0  0  0  0  0  0  0  0  0  0
    4.3553    3.9886  -18.9244 C   0  0  2  0  0  0  0  0  0  0  0  0
    5.3353    2.9318  -19.4593 C   0  0  1  0  0  0  0  0  0  0  0  0
    8.9264    7.8242  -18.0360 C   0  0  0  0  0  0  0  0  0  0  0  0
    5.8175    2.1024  -18.3454 N   0  0  0  0  0  0  0  0  0  0  0  0
    6.6371   -3.1875  -16.8200 N   0  0  0  0  0  0  0  0  0  0  0  0
    4.0172    5.8960  -17.4590 N   0  0  0  0  0  0  0  0  0  0  0  0
    7.9411    2.9347  -18.2642 O   0  0  0  0  0  0  0  0  0  0  0  0
    6.0152   -2.6568  -14.6816 O   0  0  0  0  0  0  0  0  0  0  0  0
    3.7636    4.6980  -20.0142 O   0  0  0  0  0  0  0  0  0  0  0  0
    7.6084    7.6781  -18.5923 O   0  0  0  0  0  0  0  0  0  0  0  0
    8.8481    0.5302  -22.5458 F   0  0  0  0  0  0  0  0  0  0  0  0
    5.7030   -2.7364  -21.0253 F   0  0  0  0  0  0  0  0  0  0  0  0
    6.1334   -0.3652  -17.4802 H   0  0  0  0  0  0  0  0  0  0  0  0
    8.9166    2.5020  -15.8596 H   0  0  0  0  0  0  0  0  0  0  0  0
    8.4299   -1.3351  -13.9650 H   0  0  0  0  0  0  0  0  0  0  0  0
    7.0791    2.2807  -21.6951 H   0  0  0  0  0  0  0  0  0  0  0  0
    4.2741   -0.6663  -20.2582 H   0  0  0  0  0  0  0  0  0  0  0  0
    7.9763   -1.9156  -22.0754 H   0  0  0  0  0  0  0  0  0  0  0  0
    5.1214    8.3223  -18.0496 H   0  0  0  0  0  0  0  0  0  0  0  0
    6.0364    8.4687  -16.5108 H   0  0  0  0  0  0  0  0  0  0  0  0
    5.6826    6.3004  -19.6119 H   0  0  0  0  0  0  0  0  0  0  0  0
    6.9406    5.1383  -19.0698 H   0  0  0  0  0  0  0  0  0  0  0  0
    5.0099    6.3950  -15.6654 H   0  0  0  0  0  0  0  0  0  0  0  0
    3.7269    7.5445  -16.1745 H   0  0  0  0  0  0  0  0  0  0  0  0
    7.2527    6.3808  -16.9847 H   0  0  0  0  0  0  0  0  0  0  0  0
    5.5320    4.4393  -17.1674 H   0  0  0  0  0  0  0  0  0  0  0  0
    9.2781    1.4836  -12.9139 H   0  0  0  0  0  0  0  0  0  0  0  0
   10.3309    0.1113  -13.3983 H   0  0  0  0  0  0  0  0  0  0  0  0
   10.5296    1.7158  -14.1812 H   0  0  0  0  0  0  0  0  0  0  0  0
    2.3278   -3.6610  -18.2112 H   0  0  0  0  0  0  0  0  0  0  0  0
    3.3048   -5.1683  -18.2241 H   0  0  0  0  0  0  0  0  0  0  0  0
    2.8334   -4.4168  -16.6621 H   0  0  0  0  0  0  0  0  0  0  0  0
   10.0337   -5.2338  -16.8673 H   0  0  0  0  0  0  0  0  0  0  0  0
    9.9446   -3.4645  -16.5703 H   0  0  0  0  0  0  0  0  0  0  0  0
    8.6675   -4.5493  -15.9232 H   0  0  0  0  0  0  0  0  0  0  0  0
    9.8426    7.9663  -19.9929 H   0  0  0  0  0  0  0  0  0  0  0  0
    9.3821    9.5444  -19.2691 H   0  0  0  0  0  0  0  0  0  0  0  0
   10.8229    8.6625  -18.6585 H   0  0  0  0  0  0  0  0  0  0  0  0
    8.2471    8.1269  -15.9958 H   0  0  0  0  0  0  0  0  0  0  0  0
    9.8951    8.7574  -16.3318 H   0  0  0  0  0  0  0  0  0  0  0  0
    8.4542    9.6393  -16.9424 H   0  0  0  0  0  0  0  0  0  0  0  0
    4.3387    2.6228  -21.3570 H   0  0  0  0  0  0  0  0  0  0  0  0
    3.7447    1.5751  -20.0242 H   0  0  0  0  0  0  0  0  0  0  0  0
    4.6973   -3.1885  -18.7562 H   0  0  0  0  0  0  0  0  0  0  0  0
    4.2259   -2.4370  -17.1943 H   0  0  0  0  0  0  0  0  0  0  0  0
    9.2411   -4.0239  -18.8963 H   0  0  0  0  0  0  0  0  0  0  0  0
    7.9640   -5.1087  -18.2492 H   0  0  0  0  0  0  0  0  0  0  0  0
    5.1954   -4.5209  -16.0350 H   0  0  0  0  0  0  0  0  0  0  0  0
    5.8772   -4.9873  -17.6301 H   0  0  0  0  0  0  0  0  0  0  0  0
    8.1782   -2.0864  -17.7670 H   0  0  0  0  0  0  0  0  0  0  0  0
    7.0268   -2.8985  -18.8812 H   0  0  0  0  0  0  0  0  0  0  0  0
    3.5723    3.4724  -18.3494 H   0  0  0  0  0  0  0  0  0  0  0  0
    6.1819    3.4390  -19.9450 H   0  0  0  0  0  0  0  0  0  0  0  0
    9.3638    6.8381  -17.8213 H   0  0  0  0  0  0  0  0  0  0  0  0
    5.1680    1.4737  -17.9176 H   0  0  0  0  0  0  0  0  0  0  0  0
    3.3327    5.3473  -16.9790 H   0  0  0  0  0  0  0  0  0  0  0  0
    3.5856    6.3709  -18.2260 H   0  0  0  0  0  0  0  0  0  0  0  0
    3.3286    4.0837  -20.5937 H   0  0  0  0  0  0  0  0  0  0  0  0
  1  7  2  0
  1  8  1  0
  2  7  1  0
  2  9  2  0
  3  8  2  0
  3  9  1  0
  4 10  2  0
  4 11  1  0
  5 10  1  0
  5 12  2  0
  6 11  2  0
  6 12  1  0
  7 13  1  0
  8 14  1  0
  9 20  1  0
 10 25  1  0
 11 40  1  0
 12 41  1  0
 13 33  1  0
 13 36  2  0
 14 34  1  0
 14 37  2  0
 15 17  1  0
 15 18  1  0
 16 18  1  0
 16 19  1  0
 17 35  1  0
 18 39  1  0
 19 30  1  0
 19 35  1  0
 21 26  1  0
 22 27  1  0
 23 32  1  0
 24 32  1  0
 25 31  1  0
 26 28  1  0
 27 29  1  0
 28 34  1  0
 29 34  1  0
 30 31  1  0
 30 38  1  0
 31 33  1  0
 32 39  1  0
  1 42  1  0
  2 43  1  0
  3 44  1  0
  4 45  1  0
  5 46  1  0
  6 47  1  0
 15 48  1  0
 15 49  1  0
 16 50  1  0
 16 51  1  0
 17 52  1  0
 17 53  1  0
 18 54  1  1
 19 55  1  1
 20 56  1  0
 20 57  1  0
 20 58  1  0
 21 59  1  0
 21 60  1  0
 21 61  1  0
 22 62  1  0
 22 63  1  0
 22 64  1  0
 23 65  1  0
 23 66  1  0
 23 67  1  0
 24 68  1  0
 24 69  1  0
 24 70  1  0
 25 71  1  0
 25 72  1  0
 26 73  1  0
 26 74  1  0
 27 75  1  0
 27 76  1  0
 28 77  1  0
 28 78  1  0
 29 79  1  0
 29 80  1  0
 30 81  1  1
 31 82  1  6
 32 83  1  0
 33 84  1  0
 35 85  1  0
 35 86  1  0
 38 87  1  0
M  CHG  1  35   1
M  END
>  <OMEGA_C>  (35) 
1xXcQNYawL0w+IXB+C4HQQS4wz/MN33Bje4CQRSVJb9wKGzBzsLZQM6onz8YVazBPMKmQLN0177I
4qXByOHpQIgwkL/JGK7BJofvQBTalj+oW4bBWsHnQGB3gb9z0nvBPNoMQY1NHT8HDW3B4lWyQGkv
bT8OcKfBc5T1QGhfYj6mmq/BDFTCQPr6uL8nUqnBsJ7jQDV3CEBAxo7BjhHUQMDcFcCiJnvBhi6z
QCFn+EB224nBS1nEQMjwuUA15pXBnIuRQHPg3EDUM4TBXNzWQILS20A6e47BgsuhQHamn0A78Y/B
7dkcQYIGgT/nFVzB/U1IQKTohsAYno3BJbIVQbX0i8BSGobBweMcQWbPCEFOfpjBsggOQXhUCkHb
3YXBC2eUQD+AAUD136PBqP2MQNjoWMC6t43B7MQIQXBGhsAlepDBKkyxQCWchMCZEojBEe3yQCgC
QMC0io/BZl6LQJNEf0ATZZfBibqqQAqjO0CwrJvBaNIOQTJg+kCtSZDBkCi6QAyNBkBow5LBKWPU
QOP/S8Bnj4bBtoyAQDmsvEAarIvBxR3+QMTSO0AUHZLBZHzAQH4IKsC852rBJN9wQFhWlkD+HKDB
FXjzQGez9UAJvZTB8ZENQTS4Bz/bXbTB+362QF0hL8DYM6jBlETEQO76ur5x14vBT6oOQbcgIEDW
wH3B2OAGQRblqr+4cF/BmYfiQC72EUCSj63Bn8WIQHeTKr/hEKLBkj3/QHkz9b9hmrDBkeKjQEIo
BUGNZZDBUirBQOF/B0EHFoTBBdi1QJecyUAi5ZzBOBneQCNtpEDujpjBTFGgQLyjzECApXrBcIVu
QEhs8UBqZYHBfhboQLwvzECf4IfB6wWxQPkOjkDEVonBEHMUQb3nvT9Tn07BdUslQW774z2TX1bB
ZnkoQU+e2z9O5mLBavsUQKNOasCEsJHBToJTQHtipcDcypHB5FU1QHNWjcD9S4XB/YkgQeN6p8Ay
8IbB+hwfQU+6XcAMkITB5q0KQfWTkcBXxX7BJHsdQQns/kB68Z/B7BwWQei1GEEVJ5rBvCotQZaZ
CkGoRJXBG/QDQdIHAkGl7n/BU1IeQWUeDEGGp4LBhEQHQbg6GkHziYfBptaKQGTbJ0Af26rBnKhv
QGKdyT+nMaDBglCWQJwPTMDMDJbBTTqHQIv3G8DtjYnBktsTQfzDgMC1K5fB/Nj+QMp6o8BU/pHB
xECmQJqrkMCuR4DBERK8QKWXn8B2Co3BxdkCQduHBcDVIo7BVtvgQJ2AOcDLDJfBcqBkQI48XkCU
y5LBLdLFQGEZXEB2j5/BP9IVQXTR2kADko7BlWClQL+hvD84V4/BU0tVQDQdq0D51IfBU3plQCPe
y0DgzpHBKQhVQIWtgkDZv6TBFjjcQNjuLb4LuIXBTgQIQU9UtD/2vHzBn6QCQWfOQb/qmmvByiLa
QNHtkT/ot6vB1mWkQO9b7b5Nm6XBuvrnQO9FoL+YCa3BIdrwQGJIiz+CHobBx0zmQLlYi7+0FHvB
pjcNQQxH+T5miWzB4a+xQMjhXT+rLafBgVX1QM46pD38l67Bd3a/QCDKwr8JkajBJ33kQOw/BUAB
QI7BRoTMQJ/cE8B/k3jBSGWxQFwB+UBwdovBmxzFQLfhuEBmbJbBFhiTQORo3UAlyoTBbcrWQHEs
3UCwk4/BByekQHlbnkDp34/Bud4cQTIlYT8JNVvBqHCCQGYMTcA4jY3BFuEQQR/He8BDepjBc0Yb
QbC+DUFg45jBX5IIQcesEEEHRYfBZQKVQANb/z/OsqPBchucQEOCkMAjx4zB1YEBQWsaR8Anm5HB
jB+3QH6Jk8BpaILBJq4AQbWhbcDXTobBIfGMQLFoekCa0ZbBDwisQE+pN0AKX5vB4iwNQRnEAUGt
0JDBgsC7QDqqAECeqZLBJkTXQOFlYcAXSoHBzm2CQM5jukDFaYvBYmL9QBuGPkDgwZDBfDesQMDX
DsApiW3BMoBuQHPBkkBuU5/B91DzQNRl9kCIGZbBdR4OQWpQrz4I1rLBHZKyQAwDM8D6CqfB4qrE
QNbl2r5VsovBGv8PQVpuF0DrTn3BT24GQdV7ur8/AF/BqCXkQExZCkBn+qzBM3SFQECOK7/DIaLB
5878QG1QBMDGRa/BIuafQPFEA0HdTpLBVBO+QK2QCUFCfYbBWky1QJVZxkAmh53Bq4vfQBXyo0Cv
8pjBqYmkQG8M0EBR1HvBc6xwQAcn8UAx54HBkAjoQJWkz0DmsIjBdwK1QK/MjUAeWonBRjkUQaKL
rz9/DU7BavckQeBepLyVHlXBsNEoQWNOyT9B1mHBHPhfQE5vTMBzC5XBDNVYQN1kSMAutobBd5iY
QGBZFsDPco3BB48RQbSQYMAilqDBA/EgQR5cesBy4pTBDDMLQXIpn8Bc55jB4K8eQVRFA0FawJ/B
r9sSQW4pHEHKrJvBfGMqQfVkEkEmBpXBv+78QNRGCEE7aoHBdr8XQZRQFUHpdoPBqTcAQQ0VH0GN
HYrBIKaMQDYHJ0CNsKrBYVNvQPJTyj8FJaDB0ZKFQHOKq8Ba9ozBwsCxQLSEksD7spPB2SsHQQmL
BMCQKZHBw9viQM+BSMB7LpXBkFChQJsmksCcBHfBeBbIQBthssATaYLBDwwEQddNmcDt0obBIe0M
QUuATsDOU4HBU/BqQNPtWEAZxZHBSwDHQBCzWEAKPJ/Bte0VQadM50C6543Bo6mnQMmjqT/YtI/B
YM1dQHCFqEDh6obB8NdjQBMTx0AifZHBJZpRQFzFfEC+qKPB

>  <OMEGA_E>  (35) 
gNRyPoTPsD4=

>  <OMEGA_NBR>  (35) 
     23531

$$$$
50209145
     RDKit          3D

 97100  0  0  1  0  0  0  0  0999 V2000
    6.9002   -0.0616  -16.7040 C   0  0  0  0  0  0  0  0  0  0  0  0
    8.5619    1.5145  -15.8565 C   0  0  0  0  0  0  0  0  0  0  0  0
    8.1904   -0.6029  -14.7067 C   0  0  0  0  0  0  0  0  0  0  0  0
    6.8145    1.0764  -21.5598 C   0  0  0  0  0  0  0  0  0  0  0  0
    5.2139   -0.4802  -20.5638 C   0  0  0  0  0  0  0  0  0  0  0  0
    7.2684   -1.3182  -21.5725 C   0  0  0  0  0  0  0  0  0  0  0  0
    7.5685    1.1788  -16.8038 C   0  0  0  0  0  0  0  0  0  0  0  0
    7.2077   -0.9487  -15.6541 C   0  0  0  0  0  0  0  0  0  0  0  0
    8.8822    0.6177  -14.8172 C   0  0  0  0  0  0  0  0  0  0  0  0
    5.5918    0.8331  -20.9009 C   0  0  0  0  0  0  0  0  0  0  0  0
    7.6536   -0.0001  -21.8934 C   0  0  0  0  0  0  0  0  0  0  0  0
    6.0489   -1.5559  -20.9054 C   0  0  0  0  0  0  0  0  0  0  0  0
    7.2005    2.1243  -17.8707 C   0  0  0  0  0  0  0  0  0  0  0  0
    6.4323   -2.1862  -15.4799 C   0  0  0  0  0  0  0  0  0  0  0  0
   11.9752    9.9044  -19.2281 C   0  0  0  0  0  0  0  0  0  0  0  0
   11.2486   10.7008  -18.1265 C   0  0  0  0  0  0  0  0  0  0  0  0
   10.9738    9.2429  -20.1938 C   0  0  0  0  0  0  0  0  0  0  0  0
   10.2900    9.7962  -17.3554 C   0  0  0  0  0  0  0  0  0  0  0  0
   10.0180    8.3306  -19.4257 C   0  0  0  0  0  0  0  0  0  0  0  0
    5.4726    7.6284  -17.1437 C   0  0  0  0  0  0  0  0  0  0  0  0
    6.1202    5.7572  -18.7012 C   0  0  0  0  0  0  0  0  0  0  0  0
    4.4419    6.7224  -16.4905 C   0  0  0  0  0  0  0  0  0  0  0  0
    9.2967    9.1395  -18.3214 C   0  0  0  0  0  0  0  0  0  0  0  0
    6.6233    6.7646  -17.6949 C   0  0  1  0  0  0  0  0  0  0  0  0
    5.0482    4.8919  -18.0169 C   0  0  2  0  0  0  0  0  0  0  0  0
    9.9026    1.0014  -13.7698 C   0  0  0  0  0  0  0  0  0  0  0  0
    3.6655   -3.0763  -17.4907 C   0  0  0  0  0  0  0  0  0  0  0  0
    9.6813   -4.3295  -17.9314 C   0  0  0  0  0  0  0  0  0  0  0  0
    4.7023    1.9796  -20.5206 C   0  0  0  0  0  0  0  0  0  0  0  0
    8.4318    8.2312  -17.4990 C   0  0  0  0  0  0  0  0  0  0  0  0
    4.4662   -4.3910  -17.4520 C   0  0  0  0  0  0  0  0  0  0  0  0
    8.6982   -3.9054  -16.8462 C   0  0  0  0  0  0  0  0  0  0  0  0
    5.5178   -4.3706  -16.3304 C   0  0  0  0  0  0  0  0  0  0  0  0
    7.4569   -3.2684  -17.4882 C   0  0  0  0  0  0  0  0  0  0  0  0
    4.4018    3.9242  -18.9982 C   0  0  2  0  0  0  0  0  0  0  0  0
    5.4111    2.8905  -19.5078 C   0  0  1  0  0  0  0  0  0  0  0  0
    5.9038    2.0836  -18.3764 N   0  0  0  0  0  0  0  0  0  0  0  0
    6.4052   -3.1903  -16.4643 N   0  0  0  0  0  0  0  0  0  0  0  0
    3.9694    5.7442  -17.4770 N   0  0  0  0  0  0  0  0  0  0  0  0
    8.0276    2.9252  -18.2929 O   0  0  0  0  0  0  0  0  0  0  0  0
    5.8128   -2.3199  -14.4307 O   0  0  0  0  0  0  0  0  0  0  0  0
    3.8532    4.6584  -20.0955 O   0  0  0  0  0  0  0  0  0  0  0  0
    7.5285    7.5893  -18.3754 O   0  0  0  0  0  0  0  0  0  0  0  0
    8.8258    0.2327  -22.5249 F   0  0  0  0  0  0  0  0  0  0  0  0
    5.6810   -2.8157  -20.5859 F   0  0  0  0  0  0  0  0  0  0  0  0
    6.1516   -0.3305  -17.4346 H   0  0  0  0  0  0  0  0  0  0  0  0
    9.0772    2.4608  -15.9290 H   0  0  0  0  0  0  0  0  0  0  0  0
    8.4138   -1.2765  -13.8926 H   0  0  0  0  0  0  0  0  0  0  0  0
    7.1051    2.0868  -21.8072 H   0  0  0  0  0  0  0  0  0  0  0  0
    4.2844   -0.6599  -20.0440 H   0  0  0  0  0  0  0  0  0  0  0  0
    7.9082   -2.1467  -21.8380 H   0  0  0  0  0  0  0  0  0  0  0  0
   12.6228   10.5881  -19.7966 H   0  0  0  0  0  0  0  0  0  0  0  0
   12.5901    9.1224  -18.7586 H   0  0  0  0  0  0  0  0  0  0  0  0
   11.9920   11.1169  -17.4307 H   0  0  0  0  0  0  0  0  0  0  0  0
   10.6794   11.5209  -18.5885 H   0  0  0  0  0  0  0  0  0  0  0  0
   10.3948   10.0246  -20.7073 H   0  0  0  0  0  0  0  0  0  0  0  0
   11.5252    8.6475  -20.9364 H   0  0  0  0  0  0  0  0  0  0  0  0
   10.8646    9.0145  -16.8368 H   0  0  0  0  0  0  0  0  0  0  0  0
    9.7377   10.3960  -16.6170 H   0  0  0  0  0  0  0  0  0  0  0  0
    9.2728    7.9149  -20.1198 H   0  0  0  0  0  0  0  0  0  0  0  0
   10.5875    7.5102  -18.9646 H   0  0  0  0  0  0  0  0  0  0  0  0
    5.0035    8.1867  -17.9673 H   0  0  0  0  0  0  0  0  0  0  0  0
    5.8665    8.3356  -16.3989 H   0  0  0  0  0  0  0  0  0  0  0  0
    5.6824    6.2795  -19.5646 H   0  0  0  0  0  0  0  0  0  0  0  0
    6.9517    5.1218  -19.0401 H   0  0  0  0  0  0  0  0  0  0  0  0
    4.9001    6.1962  -15.6402 H   0  0  0  0  0  0  0  0  0  0  0  0
    3.5938    7.3257  -16.1345 H   0  0  0  0  0  0  0  0  0  0  0  0
    8.6774    9.9179  -18.7911 H   0  0  0  0  0  0  0  0  0  0  0  0
    7.1128    6.2401  -16.8611 H   0  0  0  0  0  0  0  0  0  0  0  0
    5.5159    4.3211  -17.2011 H   0  0  0  0  0  0  0  0  0  0  0  0
    9.4024    1.5343  -12.9477 H   0  0  0  0  0  0  0  0  0  0  0  0
   10.3851    0.0937  -13.3782 H   0  0  0  0  0  0  0  0  0  0  0  0
   10.6633    1.6552  -14.2213 H   0  0  0  0  0  0  0  0  0  0  0  0
    2.9234   -3.1221  -18.3014 H   0  0  0  0  0  0  0  0  0  0  0  0
    3.1501   -2.9325  -16.5296 H   0  0  0  0  0  0  0  0  0  0  0  0
    4.3512   -2.2347  -17.6686 H   0  0  0  0  0  0  0  0  0  0  0  0
   10.5680   -4.7848  -17.4661 H   0  0  0  0  0  0  0  0  0  0  0  0
    9.1998   -5.0614  -18.5966 H   0  0  0  0  0  0  0  0  0  0  0  0
    9.9856   -3.4481  -18.5151 H   0  0  0  0  0  0  0  0  0  0  0  0
    4.4550    2.5612  -21.4209 H   0  0  0  0  0  0  0  0  0  0  0  0
    3.7776    1.5881  -20.0715 H   0  0  0  0  0  0  0  0  0  0  0  0
    9.0545    7.4822  -16.9881 H   0  0  0  0  0  0  0  0  0  0  0  0
    7.8765    8.8176  -16.7521 H   0  0  0  0  0  0  0  0  0  0  0  0
    3.7734   -5.2277  -17.2786 H   0  0  0  0  0  0  0  0  0  0  0  0
    4.9744   -4.5298  -18.4176 H   0  0  0  0  0  0  0  0  0  0  0  0
    8.3955   -4.7875  -16.2628 H   0  0  0  0  0  0  0  0  0  0  0  0
    9.1813   -3.1743  -16.1813 H   0  0  0  0  0  0  0  0  0  0  0  0
    5.0068   -4.3294  -15.3572 H   0  0  0  0  0  0  0  0  0  0  0  0
    6.1243   -5.2865  -16.3877 H   0  0  0  0  0  0  0  0  0  0  0  0
    7.7007   -2.2589  -17.8507 H   0  0  0  0  0  0  0  0  0  0  0  0
    7.1130   -3.8872  -18.3301 H   0  0  0  0  0  0  0  0  0  0  0  0
    3.5963    3.3883  -18.4749 H   0  0  0  0  0  0  0  0  0  0  0  0
    6.2478    3.4064  -20.0016 H   0  0  0  0  0  0  0  0  0  0  0  0
    5.2570    1.4591  -17.9385 H   0  0  0  0  0  0  0  0  0  0  0  0
    3.2887    5.1562  -17.0401 H   0  0  0  0  0  0  0  0  0  0  0  0
    3.5452    6.2383  -18.2359 H   0  0  0  0  0  0  0  0  0  0  0  0
    3.4492    4.0564  -20.7095 H   0  0  0  0  0  0  0  0  0  0  0  0
  1  7  2  0
  1  8  1  0
  2  7  1  0
  2  9  2  0
  3  8  2  0
  3  9  1  0
  4 10  2  0
  4 11  1  0
  5 10  1  0
  5 12  2  0
  6 11  2  0
  6 12  1  0
  7 13  1  0
  8 14  1  0
  9 26  1  0
 10 29  1  0
 11 44  1  0
 12 45  1  0
 13 37  1  0
 13 40  2  0
 14 38  1  0
 14 41  2  0
 15 16  1  0
 15 17  1  0
 16 18  1  0
 17 19  1  0
 18 23  1  0
 19 23  1  0
 20 22  1  0
 20 24  1  0
 21 24  1  0
 21 25  1  0
 22 39  1  0
 23 30  1  0
 24 43  1  0
 25 35  1  0
 25 39  1  0
 27 31  1  0
 28 32  1  0
 29 36  1  0
 30 43  1  0
 31 33  1  0
 32 34  1  0
 33 38  1  0
 34 38  1  0
 35 36  1  0
 35 42  1  0
 36 37  1  0
  1 46  1  0
  2 47  1  0
  3 48  1  0
  4 49  1  0
  5 50  1  0
  6 51  1  0
 15 52  1  0
 15 53  1  0
 16 54  1  0
 16 55  1  0
 17 56  1  0
 17 57  1  0
 18 58  1  0
 18 59  1  0
 19 60  1  0
 19 61  1  0
 20 62  1  0
 20 63  1  0
 21 64  1  0
 21 65  1  0
 22 66  1  0
 22 67  1  0
 23 68  1  0
 24 69  1  1
 25 70  1  1
 26 71  1  0
 26 72  1  0
 26 73  1  0
 27 74  1  0
 27 75  1  0
 27 76  1  0
 28 77  1  0
 28 78  1  0
 28 79  1  0
 29 80  1  0
 29 81  1  0
 30 82  1  0
 30 83  1  0
 31 84  1  0
 31 85  1  0
 32 86  1  0
 32 87  1  0
 33 88  1  0
 33 89  1  0
 34 90  1  0
 34 91  1  0
 35 92  1  1
 36 93  1  6
 37 94  1  0
 39 95  1  0
 39 96  1  0
 42 97  1  0
M  CHG  1  39   1
M  END
>  <OMEGA_C>  (36) 
Qc7cQHBdfL3eoYXBdf0IQQ7awT9GtH3BwwsDQe9WGr99TmvByhDaQPTHiT98eqzBMtimQLji9b6m
gqTBbpboQHq5qL9rlKzBXzHyQH7klj9BbobBkqXmQLbdcr9Hd3rBqx0OQWchHj81E23BW/CyQGZG
VT8SNafBBOr0QAAAgbiiJa/B0JDBQPomx79PPqfBImrmQOrzB0Ah947BFNXNQPTpC8DOrXfBbpo/
QUB4HkE405nBHfozQWA2K0EMA5HBiJQvQfbiE0HajKHB76MkQQi9HEHO14rB3kkgQTRKBUHRZ5vB
ix+vQAgc9EBNJonB6tjDQCs7uEAPnJXBKCSOQKQd10Ck7IPBL78UQXQ7EkFFkpLBLvLTQOp32EAf
j43BiIqhQDWKnECIIpDBKnEeQdEsgD8ZUVzBxpdqQKfhRMAF7YvBx+YaQeeKisCGc4/BgnmWQB5j
/T8uKqTBd+gGQTOzA0EJ/ovBw+qOQAyDjMCcnYvByysLQZjyecD9xIbB6pGwQJfbi8DCpILBK5/u
QAwuUcDG54vB7duMQMUme0Bf/JfBBSitQMn9OED7D5zBPey8QMZZBUDNApPBOPfMQNwtTMDvtoPB
Ewt+QMTQt0DP0IvB3nAAQTg3O0DwV5LB1QK6QOd5FMAj5GbB0Jp2QJERlUChw6DBqOnwQIzb8kC7
AJPBRzYNQds8bj4QM7TBEcu1QIk0NMDZr6TBiNnEQBAzqb4AeovBBzwRQYh+HUAq3X7BBp8GQa1j
o7/4R17B51zjQF6NBUAjda7BGBqJQDXvKL8DWqDBGBD9QMZjCcAntK7BK/dJQbtoKUFXX57B43BJ
QU31EUGWEZbBMN8/Qf7eMUEScovBrd4qQXdVOEFEtZTBDlEmQdZkIEGUqKXBQGc4QU9cCkGsfafB
fNUtQXw7EEHPsYbBlc0bQeJVJkGu74TBkV0UQXtG/UBr9aDBfGYpQYhT8ECFt5fBCB2gQNP8AkH+
vI/Brbq7QK5eBUEAMYPB/tW1QALyyEBPhJzBPHTeQI3lo0AxUpjBqs2cQORGxkAYPnrBawFmQERs
6kCNE4HB1dYKQeivHkEvVJbBTpzjQJSux0CJ44bBkYKwQNlGikDcm4nBYXAWQbhkxD/7KU/BKykm
QVXNvz1ADVbB4JwqQcnd0z+KimPBvBg7QAPQR8A5aZLBZJtJQDyuO8C2PITBoDyLQBwFD8BJWY3B
bRYpQR0dmcCCuovBcjITQbP2ocDHxZTB4MQfQa2tXMDdHpTBo4+OQC7rI0D9XavB18RxQFtFyz+I
kqDBHt8QQfJt70CK54fBBQz8QM0UDUFdBIbBIH9xQApJp8CXOorBfi6fQHr0kMApV5PBGFQGQXcz
mcBLGoLBhuYSQTQnS8Bgc4HB2TegQECKisAkt3XBffrDQJsqqcDzGYPBBWz2QKuREMAqzo7Byp3j
QDrIeMAFpJLBaSlmQBPaWECqzJPB5O3HQPcBWkBdA6DBjDmoQGbFuj8kgo/Bv3pSQIn/pEAMUojB
6ORiQMqfx0Af45HBnL9cQDvOgUD2rKXB

>  <OMEGA_E>  (36) 
tGW4Pg==

>  <OMEGA_NBR>  (36) 
     25430

$$$$
29073
     RDKit          3D

 67 69  0  0  1  0  0  0  0  0999 V2000
    6.7096   -1.3549  -21.6600 C   0  0  0  0  0  0  0  0  0  0  0  0
    7.3609   -0.1196  -21.4774 C   0  0  0  0  0  0  0  0  0  0  0  0
    5.3047   -1.4263  -21.5814 C   0  0  0  0  0  0  0  0  0  0  0  0
    6.6094    1.0434  -21.2148 C   0  0  0  0  0  0  0  0  0  0  0  0
    4.5512   -0.2663  -21.3027 C   0  0  0  0  0  0  0  0  0  0  0  0
    5.9926   -0.5344  -17.2060 C   0  0  0  0  0  0  0  0  0  0  0  0
    6.8813   -1.4794  -15.1417 C   0  0  0  0  0  0  0  0  0  0  0  0
    7.2262    0.8722  -15.6489 C   0  0  0  0  0  0  0  0  0  0  0  0
    6.1688   -1.6450  -16.3593 C   0  0  0  0  0  0  0  0  0  0  0  0
    6.5257    0.7149  -16.8533 C   0  0  0  0  0  0  0  0  0  0  0  0
    5.1989    0.9749  -21.1029 C   0  0  0  0  0  0  0  0  0  0  0  0
    7.4149   -0.2130  -14.7588 C   0  0  0  0  0  0  0  0  0  0  0  0
    5.5900   -2.9608  -16.7490 C   0  0  0  0  0  0  0  0  0  0  0  0
    6.3464    1.8606  -17.7425 C   0  0  0  0  0  0  0  0  0  0  0  0
    4.6974    8.4999  -21.0430 C   0  0  0  0  0  0  0  0  0  0  0  0
    5.5987    8.8244  -19.8376 C   0  0  0  0  0  0  0  0  0  0  0  0
    5.3800    7.3742  -20.2596 C   0  0  0  0  0  0  0  0  0  0  0  0
    3.9920   -4.2452  -18.2258 C   0  0  0  0  0  0  0  0  0  0  0  0
    8.6628    1.3702  -13.2358 C   0  0  0  0  0  0  0  0  0  0  0  0
    6.0102   -0.8180  -11.7737 C   0  0  0  0  0  0  0  0  0  0  0  0
    4.3783    2.2232  -20.7574 C   0  0  0  0  0  0  0  0  0  0  0  0
    4.1475    5.2647  -20.0176 C   0  0  0  0  0  0  0  0  0  0  0  0
    4.9599    2.9531  -19.5136 C   0  0  1  0  0  0  0  0  0  0  0  0
    4.1023    4.1267  -18.9911 C   0  0  2  0  0  0  0  0  0  0  0  0
    4.7477   -3.0414  -17.8606 N   0  0  0  0  0  0  0  0  0  0  0  0
    5.1562    1.9798  -18.4417 N   0  0  0  0  0  0  0  0  0  0  0  0
    8.0836    0.0129  -13.5151 N   0  0  0  0  0  0  0  0  0  0  0  0
    4.5737    6.5181  -19.3674 N   0  0  0  0  0  0  0  0  0  0  0  0
    5.8328   -3.9660  -16.0888 O   0  0  0  0  0  0  0  0  0  0  0  0
    7.2488    2.6824  -17.8705 O   0  0  0  0  0  0  0  0  0  0  0  0
    8.4647   -0.3918  -10.9569 O   0  0  0  0  0  0  0  0  0  0  0  0
    8.0436   -2.3958  -12.4330 O   0  0  0  0  0  0  0  0  0  0  0  0
    2.7499    3.7379  -18.7723 O   0  0  0  0  0  0  0  0  0  0  0  0
    7.7751   -0.9876  -12.1103 S   0  0  0  0  0  0  0  0  0  0  0  0
    7.2861   -2.2460  -21.8599 H   0  0  0  0  0  0  0  0  0  0  0  0
    8.4377   -0.0634  -21.5387 H   0  0  0  0  0  0  0  0  0  0  0  0
    4.8035   -2.3706  -21.7347 H   0  0  0  0  0  0  0  0  0  0  0  0
    7.1119    1.9923  -21.0982 H   0  0  0  0  0  0  0  0  0  0  0  0
    3.4746   -0.3266  -21.2418 H   0  0  0  0  0  0  0  0  0  0  0  0
    5.4452   -0.6441  -18.1304 H   0  0  0  0  0  0  0  0  0  0  0  0
    7.0220   -2.3305  -14.4919 H   0  0  0  0  0  0  0  0  0  0  0  0
    7.6303    1.8410  -15.3948 H   0  0  0  0  0  0  0  0  0  0  0  0
    3.6088    8.6402  -20.9707 H   0  0  0  0  0  0  0  0  0  0  0  0
    5.0316    8.7433  -22.0623 H   0  0  0  0  0  0  0  0  0  0  0  0
    6.5773    9.3015  -19.9950 H   0  0  0  0  0  0  0  0  0  0  0  0
    5.1544    9.1984  -18.9034 H   0  0  0  0  0  0  0  0  0  0  0  0
    6.2300    6.8932  -20.7658 H   0  0  0  0  0  0  0  0  0  0  0  0
    3.4079   -4.0497  -19.1372 H   0  0  0  0  0  0  0  0  0  0  0  0
    4.6905   -5.0750  -18.4091 H   0  0  0  0  0  0  0  0  0  0  0  0
    3.3111   -4.5137  -17.4047 H   0  0  0  0  0  0  0  0  0  0  0  0
    9.1371    1.3698  -12.2433 H   0  0  0  0  0  0  0  0  0  0  0  0
    9.4148    1.6123  -14.0012 H   0  0  0  0  0  0  0  0  0  0  0  0
    7.8609    2.1227  -13.2586 H   0  0  0  0  0  0  0  0  0  0  0  0
    5.7437   -1.4252  -10.8961 H   0  0  0  0  0  0  0  0  0  0  0  0
    5.7749    0.2379  -11.5740 H   0  0  0  0  0  0  0  0  0  0  0  0
    5.4358   -1.1629  -12.6462 H   0  0  0  0  0  0  0  0  0  0  0  0
    4.3927    2.9108  -21.6160 H   0  0  0  0  0  0  0  0  0  0  0  0
    3.3415    1.9234  -20.5451 H   0  0  0  0  0  0  0  0  0  0  0  0
    4.8608    5.0076  -20.8145 H   0  0  0  0  0  0  0  0  0  0  0  0
    3.1463    5.4026  -20.4520 H   0  0  0  0  0  0  0  0  0  0  0  0
    5.9405    3.3612  -19.8001 H   0  0  0  0  0  0  0  0  0  0  0  0
    4.5457    4.4875  -18.0513 H   0  0  0  0  0  0  0  0  0  0  0  0
    4.6544   -2.2324  -18.4409 H   0  0  0  0  0  0  0  0  0  0  0  0
    4.3983    1.3731  -18.2022 H   0  0  0  0  0  0  0  0  0  0  0  0
    5.1203    6.2911  -18.5613 H   0  0  0  0  0  0  0  0  0  0  0  0
    3.7596    7.0259  -19.0858 H   0  0  0  0  0  0  0  0  0  0  0  0
    2.7217    3.0327  -18.1363 H   0  0  0  0  0  0  0  0  0  0  0  0
  1  2  2  0
  1  3  1  0
  2  4  1  0
  3  5  2  0
  4 11  2  0
  5 11  1  0
  6  9  2  0
  6 10  1  0
  7  9  1  0
  7 12  2  0
  8 10  2  0
  8 12  1  0
  9 13  1  0
 10 14  1  0
 11 21  1  0
 12 27  1  0
 13 25  1  0
 13 29  2  0
 14 26  1  0
 14 30  2  0
 15 16  1  0
 15 17  1  0
 16 17  1  0
 17 28  1  0
 18 25  1  0
 19 27  1  0
 20 34  1  0
 21 23  1  0
 22 24  1  0
 22 28  1  0
 23 24  1  0
 23 26  1  0
 24 33  1  0
 27 34  1  0
 31 34  2  0
 32 34  2  0
  1 35  1  0
  2 36  1  0
  3 37  1  0
  4 38  1  0
  5 39  1  0
  6 40  1  0
  7 41  1  0
  8 42  1  0
 15 43  1  0
 15 44  1  0
 16 45  1  0
 16 46  1  0
 17 47  1  0
 18 48  1  0
 18 49  1  0
 18 50  1  0
 19 51  1  0
 19 52  1  0
 19 53  1  0
 20 54  1  0
 20 55  1  0
 20 56  1  0
 21 57  1  0
 21 58  1  0
 22 59  1  0
 22 60  1  0
 23 61  1  6
 24 62  1  1
 25 63  1  0
 26 64  1  0
 28 65  1  0
 28 66  1  0
 33 67  1  0
M  CHG  1  28   1
M  END
>  <OMEGA_C>  (37) 
GLXWQLFtrb+oR63BMozrQMTn9L240avB17+pQG2Ptr+2pqzBnYDTQPyOhT/ct6nBSqORQE9XiL4F
bKrBwsO/QAzOCL/WpYnBSDPcQKxdvb9cRHLBbD3nQDpFXz/QYXrBwGbFQOyO0r/e34LB0NLQQIwD
Nz+l04bBj12mQKyUeT+10qjBNkftQI4YWr7aI2zB+eCyQHh9PcD7/YXBpBXLQLcp7j+W8I3BOFGW
QLf/B0EIWKjBnyizQJ0wDUFZs57BuCisQHD560DAE6LBwnx/QMXYh8B1zpHB6ZoKQalhrz++xVPB
QVPAQIZmUb8fYTzBXhuMQKNJDkA4D6bBHLiEQHJ4qEAEJKDBzLeeQEQAPUDeG5zBQ0aDQAwOhEDU
7ZfBVu2XQOqmQsCb4o7Bpf+kQMpq/T+aiJPBO1YBQeDiUzypPVjB9luSQD2U0EBm8JrBCqa6QIrS
fcDUtYDB8PXnQKqsK0DB9o7Bgm8HQVmdyL5OTy/BsbIAQRFUGcB17UbBvP4vQP04b0CVLZbBtM34
QNTVfL+xw0HBDCjpQIG+D8AU4a7BpgAHQZ/ugb1TT6zBebaZQHi3F8DA4K3BSJTjQDoE/z8FyajB
tl9eQPU1p74r76nB6T6uQLbmJL8kC5HBDbTgQMAmFcCn3mfBQCv0QE6k6z/mUHbBUPZmQBk+CkEV
xKfB8wKhQGPkC0Gxf7DB43jSQPzSFEG99Z/BF/GkQLIsE0EhOpfBD1zHQG2V3EBFIKbBfRtaQByX
gcAAGZnBfhiWQD9mosC/RZPBuOhTQPNvkMC8PIvBcjESQS1Xrz9n5EPB5qIWQTJhzj8NBWDBNoz7
QM/aB0AZI1TBOsy3QGxttr9VVi7BWsy4QJGScz4WLznBVvKtQMfZlL+uVkrB6ZCMQDVKOkCC7azB
VttVQBIz9j9KXKTBYoubQP49oEAhhKbBq11JQL7hrEC7naPBWxi+QDgdV0CTZp7BQXaRQDmZj0AJ
aZDBOfGUQA7fDsD5hpPBfb6MQFXArz8unpHBc9mjQGFQyUCbfZTBspxwQCzU4EDEr5jBzS8uQB8Y
QkAQF5HBNrnQQLoZpb9CU63BSEPmQFPkeb3dL6zBof6jQKikrL/e/KvBvx/PQDjtjT/Ku6nBjdKM
QB+iOr4TZanBvwjDQJaiD79l5onBbtzfQDAjw79QD3PB6rzqQBwIVj+9x3rBsbfIQIYI178WNoPB
DGDUQApKLz98BYfBJ0CiQCvnhj8wLqjBwvHvQIa7gb5nt2zBgRi1QDzbPsBvNobB6I/NQBLb6z82
243BcAS5QOqKDEHXDZXBHqzOQHnP/0DmGZ7B2RafQPHP+ECRj5vBYsF7QC/7hsD1KZHB0yAPQcrJ
lz+a71TBMV4NQdNqHcBdTEPBOjeJQEOpE0A156TBPnCLQPycrEBI2ZzB1VGeQFfiPkDiC5vBoumE
QCOMhEDP/pXB52WXQF/wQcD8jY7Ba1qmQAe0/D9X45LBg+wBQct0Kr2zpVjByTKRQDH50UDsz5XB
qO+9QH0EgMCwNIHBM+3pQGyeK0C05o7BqWzLQP9iwb8ElUTBsbABQQi0hL6+LC/BbN4wQBQgdkDu
GZXB8ZT3QBiygr8LZ0LBlnfiQMjkC8CEOK/BEUcEQROjebwaMq3B2WqTQCZ7EsAP86zBjLDfQLdd
A0B4CKnByiBVQNMyb74hVajBQkixQFgbKb8tRZHBlF3lQByYGMCN+GjBriL4QPEa5j+DqHbB0RnB
QG4WCUFPqozB5AqzQN3IHUH7/pXBvCPYQLITCEHuhqXBqTLmQIXC5kBCMpzBRWOIQHBBA0FOWaHB
/glSQMLmf8D6B5jBAluTQCSqocDeMJPB60FUQJbVj8BKOYrBHXwVQa8dlj95hkTBrnscQRWBmj/q
ZGDBjh4FQU0cBUCdKlfBrRcKQdgmR8APgjXBCJQKQfklQcBBNFLBWh0eQa/hB8Bgu0LB9eGIQLki
QUDUnqvBUV9QQEt3AUDy4aLBPwSoQPqMqECS4qHBeH5eQN+PsUCR+KHBNkO9QC7sWEBusZ3BwEKS
QKnMikAIAY7BikuTQA1eDcATAJPBGqOOQOY7rT8d2JDB90anQD7HykDTTpDBE6tqQC8r2EA9MpLB
A2kpQKZYRECd1pDB

>  <OMEGA_E>  (37) 
7Lp+P2BoXj8=

>  <OMEGA_NBR>  (37) 
      2457

$$$$
29083
     RDKit          3D

 75 78  0  0  1  0  0  0  0  0999 V2000
    6.5481   -1.4764  -21.5178 C   0  0  0  0  0  0  0  0  0  0  0  0
    7.2584   -0.2859  -21.2661 C   0  0  0  0  0  0  0  0  0  0  0  0
    5.1394   -1.4722  -21.5056 C   0  0  0  0  0  0  0  0  0  0  0  0
    6.5605    0.9086  -20.9997 C   0  0  0  0  0  0  0  0  0  0  0  0
    4.4398   -0.2827  -21.2250 C   0  0  0  0  0  0  0  0  0  0  0  0
    6.0334   -0.5591  -17.2502 C   0  0  0  0  0  0  0  0  0  0  0  0
    6.9919   -1.5784  -15.2561 C   0  0  0  0  0  0  0  0  0  0  0  0
    7.3629    0.7844  -15.7083 C   0  0  0  0  0  0  0  0  0  0  0  0
    6.2162   -1.7006  -16.4452 C   0  0  0  0  0  0  0  0  0  0  0  0
    6.6235    0.6691  -16.8934 C   0  0  0  0  0  0  0  0  0  0  0  0
    5.1443    0.9104  -20.9550 C   0  0  0  0  0  0  0  0  0  0  0  0
    7.5245   -0.3208  -14.8456 C   0  0  0  0  0  0  0  0  0  0  0  0
    5.6166   -3.0146  -16.8460 C   0  0  0  0  0  0  0  0  0  0  0  0
    6.4212    1.8464  -17.7358 C   0  0  0  0  0  0  0  0  0  0  0  0
    2.3070   -4.1476  -16.9142 C   0  0  0  0  0  0  0  0  0  0  0  0
    3.2898   -5.2327  -17.3659 C   0  0  0  0  0  0  0  0  0  0  0  0
    3.0459   -2.7993  -17.1054 C   0  0  0  0  0  0  0  0  0  0  0  0
    4.1755   -4.5309  -18.3984 C   0  0  0  0  0  0  0  0  0  0  0  0
    5.1737    8.4654  -17.6950 C   0  0  0  0  0  0  0  0  0  0  0  0
    6.3143    7.5327  -18.1252 C   0  0  0  0  0  0  0  0  0  0  0  0
    4.3848   -3.1116  -17.8316 C   0  0  0  0  0  0  0  0  0  0  0  0
    4.8507    7.1486  -18.3905 C   0  0  0  0  0  0  0  0  0  0  0  0
    8.9877    1.1015  -13.3483 C   0  0  0  0  0  0  0  0  0  0  0  0
    8.9414   -2.4770  -12.1454 C   0  0  0  0  0  0  0  0  0  0  0  0
    4.3629    2.1847  -20.6496 C   0  0  0  0  0  0  0  0  0  0  0  0
    4.6797    4.7720  -17.7641 C   0  0  0  0  0  0  0  0  0  0  0  0
    4.9411    2.9523  -19.4383 C   0  0  1  0  0  0  0  0  0  0  0  0
    3.9900    4.0520  -18.9457 C   0  0  2  0  0  0  0  0  0  0  0  0
    5.1883    2.0053  -18.3486 N   0  0  0  0  0  0  0  0  0  0  0  0
    8.1742   -0.1327  -13.5942 N   0  0  0  0  0  0  0  0  0  0  0  0
    4.1827    6.1364  -17.5436 N   0  0  0  0  0  0  0  0  0  0  0  0
    6.1053   -4.0423  -16.3890 O   0  0  0  0  0  0  0  0  0  0  0  0
    7.3300    2.6558  -17.8958 O   0  0  0  0  0  0  0  0  0  0  0  0
    6.4319   -1.6530  -12.3553 O   0  0  0  0  0  0  0  0  0  0  0  0
    8.0617   -0.2729  -10.9972 O   0  0  0  0  0  0  0  0  0  0  0  0
    3.7209    4.9354  -20.0337 O   0  0  0  0  0  0  0  0  0  0  0  0
    7.7793   -1.0907  -12.1861 S   0  0  0  0  0  0  0  0  0  0  0  0
    7.0836   -2.3922  -21.7199 H   0  0  0  0  0  0  0  0  0  0  0  0
    8.3384   -0.2891  -21.2775 H   0  0  0  0  0  0  0  0  0  0  0  0
    4.5955   -2.3821  -21.7118 H   0  0  0  0  0  0  0  0  0  0  0  0
    7.1062    1.8249  -20.8291 H   0  0  0  0  0  0  0  0  0  0  0  0
    3.3598   -0.2833  -21.2163 H   0  0  0  0  0  0  0  0  0  0  0  0
    5.4363   -0.6261  -18.1476 H   0  0  0  0  0  0  0  0  0  0  0  0
    7.1801   -2.4552  -14.6542 H   0  0  0  0  0  0  0  0  0  0  0  0
    7.8148    1.7312  -15.4520 H   0  0  0  0  0  0  0  0  0  0  0  0
    1.3963   -4.1756  -17.5305 H   0  0  0  0  0  0  0  0  0  0  0  0
    2.0389   -4.2903  -15.8570 H   0  0  0  0  0  0  0  0  0  0  0  0
    3.8902   -5.5930  -16.5175 H   0  0  0  0  0  0  0  0  0  0  0  0
    2.7545   -6.0787  -17.8217 H   0  0  0  0  0  0  0  0  0  0  0  0
    2.4355   -2.1176  -17.7160 H   0  0  0  0  0  0  0  0  0  0  0  0
    3.2458   -2.3364  -16.1278 H   0  0  0  0  0  0  0  0  0  0  0  0
    5.1380   -5.0529  -18.5033 H   0  0  0  0  0  0  0  0  0  0  0  0
    3.6730   -4.4883  -19.3760 H   0  0  0  0  0  0  0  0  0  0  0  0
    4.9423    8.5937  -16.6273 H   0  0  0  0  0  0  0  0  0  0  0  0
    5.0149    9.4180  -18.2217 H   0  0  0  0  0  0  0  0  0  0  0  0
    6.9709    7.8141  -18.9618 H   0  0  0  0  0  0  0  0  0  0  0  0
    6.8982    6.9898  -17.3674 H   0  0  0  0  0  0  0  0  0  0  0  0
    4.5278   -2.4007  -18.6587 H   0  0  0  0  0  0  0  0  0  0  0  0
    4.5169    7.2227  -19.4360 H   0  0  0  0  0  0  0  0  0  0  0  0
    9.4083    1.0677  -12.3325 H   0  0  0  0  0  0  0  0  0  0  0  0
    9.8055    1.1538  -14.0821 H   0  0  0  0  0  0  0  0  0  0  0  0
    8.3464    1.9895  -13.4501 H   0  0  0  0  0  0  0  0  0  0  0  0
    8.7282   -3.1093  -11.2708 H   0  0  0  0  0  0  0  0  0  0  0  0
    8.8333   -3.0730  -13.0636 H   0  0  0  0  0  0  0  0  0  0  0  0
    9.9694   -2.0917  -12.0773 H   0  0  0  0  0  0  0  0  0  0  0  0
    4.3964    2.8402  -21.5323 H   0  0  0  0  0  0  0  0  0  0  0  0
    3.3187    1.9157  -20.4321 H   0  0  0  0  0  0  0  0  0  0  0  0
    4.5071    4.1857  -16.8496 H   0  0  0  0  0  0  0  0  0  0  0  0
    5.7593    4.8228  -17.9688 H   0  0  0  0  0  0  0  0  0  0  0  0
    5.8896    3.4190  -19.7422 H   0  0  0  0  0  0  0  0  0  0  0  0
    3.0599    3.5877  -18.5862 H   0  0  0  0  0  0  0  0  0  0  0  0
    4.4258    1.4425  -18.0294 H   0  0  0  0  0  0  0  0  0  0  0  0
    4.3320    6.3771  -16.5845 H   0  0  0  0  0  0  0  0  0  0  0  0
    3.2029    6.1530  -17.7428 H   0  0  0  0  0  0  0  0  0  0  0  0
    3.2985    4.4545  -20.7357 H   0  0  0  0  0  0  0  0  0  0  0  0
  1  2  2  0
  1  3  1  0
  2  4  1  0
  3  5  2  0
  4 11  2  0
  5 11  1  0
  6  9  2  0
  6 10  1  0
  7  9  1  0
  7 12  2  0
  8 10  2  0
  8 12  1  0
  9 13  1  0
 10 14  1  0
 11 25  1  0
 12 30  1  0
 13 21  1  0
 13 32  2  0
 14 29  1  0
 14 33  2  0
 15 16  1  0
 15 17  1  0
 16 18  1  0
 17 21  1  0
 18 21  1  0
 19 20  1  0
 19 22  1  0
 20 22  1  0
 22 31  1  0
 23 30  1  0
 24 37  1  0
 25 27  1  0
 26 28  1  0
 26 31  1  0
 27 28  1  0
 27 29  1  0
 28 36  1  0
 30 37  1  0
 34 37  2  0
 35 37  2  0
  1 38  1  0
  2 39  1  0
  3 40  1  0
  4 41  1  0
  5 42  1  0
  6 43  1  0
  7 44  1  0
  8 45  1  0
 15 46  1  0
 15 47  1  0
 16 48  1  0
 16 49  1  0
 17 50  1  0
 17 51  1  0
 18 52  1  0
 18 53  1  0
 19 54  1  0
 19 55  1  0
 20 56  1  0
 20 57  1  0
 21 58  1  0
 22 59  1  0
 23 60  1  0
 23 61  1  0
 23 62  1  0
 24 63  1  0
 24 64  1  0
 24 65  1  0
 25 66  1  0
 25 67  1  0
 26 68  1  0
 26 69  1  0
 27 70  1  6
 28 71  1  1
 29 72  1  0
 31 73  1  0
 31 74  1  0
 36 75  1  0
M  CHG  1  31   1
M  END
>  <OMEGA_C>  (38) 
7onRQHH5vL9eJKzB70ToQERlkr4NIarBUHakQIlvvL+SC6zB2u/RQOqbaD9R/6fB7xKOQBvBkL7I
zKnBwRHBQHUeD79qAIrBtr3fQEAKyr/+GHTB8pzrQAXNSD8pVXvBI+vGQHat2b/Zj4PB/vPTQOtG
Kz/FJYfB252kQLgQaT/Ko6fBu8jwQFs9pL5jh23BFLuzQI/uQMChxIbBfnrNQANX7D/h4o3BqqYT
QA25hMA7UIfB2IxSQExyp8BT7YrBR/BCQAknM8Dy14jBYZ2FQNj8kMAAMJPBwo6lQD5yB0Fnj43B
9Q7KQBcM8UCDAJHBU1CMQLckR8ASp47BpTibQKnB5EDAH5PBgM0PQQz/jD+6klXB9A8PQaqHHsCD
U0LB25yLQB7SC0BjMqXBcMCVQDO0mED3HI7BGx2eQBvyPECggZvBF1x/QB+qgUDJkJfBVgamQDBW
AEAJypLBtMkCQYzhB77sgVnBntiFQLldxEA3WYzBX17DQO1agcCUHIPBho/qQCP4KUCQKo/ByNHN
QDmV079/r0XB4vwAQcq/i75k9C/BZyNuQB3vnUAORaDB3+/4QPCci79h+kLBvqziQNkZGcBvwq3B
4mkFQYADlL5gOKrBSg6TQGV0GMDVsa3B3mXjQJeW6T8BoqbBugdXQEAQkb70uqnBOfatQBRIIL9V
LpHBccPlQG4hHcB0d2rB6RL6QFCY3T9RO3fBWLuyP8GehcBsPozB2nwCQGFKicAatn3BIPl4QJL5
ssDOI4TB60kwQG2EwsDTko7BBN8bQPKGB8BLuo3B17pPQNCGFcC/BYHBUmqkQKexocDSBpTBLxJr
QPefj8AgApvBcSeeQNd/CUG7BIXBcnqgQB6wFkH1xZHBVRHfQO4M+kC+sZfBVL7cQGGs30CF8IrB
6eOQQB6lGcAKRZXBIYqQQDgg50D1fJvBc4gWQTKriD/gUUXBN+McQaWukz9nUGHB4ooFQaSm/j/D
M1fB36YLQVH+RsBdVTTBUlUNQTWsRMCLBFHBw4IfQbXdBcBsPEHBi6+MQGHFNUA9QqzBwWVUQM80
9T/7dKPBOTqQQBLxhUDwy4bBgky4QEZUmkAewI/BAni8QMrQWkD2753BxNRDQL+cZUB/sJTB6p+N
QEWkuD9DPJDBfJ+KQAkRzEAMrYTB7/tMQIjlxEA18Y3BExtTQDqLjkC54qXB8qTCQOh90L9CyKzB
9PHbQPFI7b5EbKzBbzCWQABtxr9AA6vB/cfIQA9dSD9MWarBEwKDQJaTnb7+0qjBow3FQJUkIr/X
VYrBO8fiQNpRzr+qQ3TBq7HsQNFIQz8adnvBJtbLQPYf4r893IPBEtPVQHMtHz/RXYfBajucQEtd
XD+qeqjBkVDyQNj1rr4lqW3BwJi7QCftRsAhPYfBcz3OQMJ65D8lQo7Brp8rQBZrgsB/sYbBrXlh
QN3XqMBReYrBRFJWQGwJNMBHd4vB7paOQBoVl8BHKZPBUIPFQAli8EAc+ovB8w+jQNvPAEFcTYTB
mhuXQCPUUMCJ1I/BJmWqQNzZ0UCfN4XB2XISQfludz+XOFbBVq4JQXo4IMDMJ0DBdnyHQPO3C0AQ
vKXB1OKZQCh0kECmAo7BzkmeQGSMNkC9OZzB7VGCQNYffkDbrpfBpMqnQCj47D+F4ZPBnykDQdpL
JL6YjVnB4jKJQAQ7uUBelYrBiCfNQCx3g8B0ooPBiXXpQISRKkBDAY/B8F3HQKxysb/JSUbBvrn+
QOBNGr4IKDDBiIp6QPKdn0ANnp/BERr0QIjVfL+nwULBBVzRQFZnJcDpaq7Bhwr+QLDiBr9Rva3B
INeCQAltHMBDVqvBjRLcQMjZ1j9QL6rBsO9BQOmJfr53aKfBMteyQJYROr/bo5HBn4boQEpyHsCe
TGrBgAr6QAeC3D9TMnfBUfLSP39hhcCpnInBKngrQEmwgMDZznvBpXSDQC0ItsBPyoPBROs3QOf0
wcDhy43BY80uQGTnGcCT+ZHB18ZeQIIUA8AnO4XBiqesQCBcqcC+a5PBTAV+QOxRmMDdC5vBJKzA
QOkz8kB3rpTBhKHnQH/z9EA5I4rBqo2sQBpXCUFS9XnBSZiFQE/3B0HnhYfBVFKfQFOnKsDn7pbB
/OC6QNqPwkBt5HzBtIAYQbnrcD86s0XBTuofQa4uXj9DcWHBATMKQdD89T+xEVnBC2wEQVW7Q8DF
5THBjWkHQco5SMB4dU7BobUaQUSmD8DJiD7BJECJQBRRNkAXuqzBKYVLQFmiAEBEoaPBdsGWQJ3n
ckAnZYfBTuS7QOBPlEB6EZDBTWy8QAusUkBiHJ/BOVRGQE7tY0AwOZXB+y+RQJGzlj9+JpLBMLxh
QHhttEArh4XBeZ19QPaByUBo9pDB8fFcQHY0lECknKXBkVDCQCAc07+2F6zBd7rbQACt+L7x46vB
xNyVQIT6x7/HWarBOrDIQPI8RD/l+6nBtc+CQBq0oL6ZUKjB1enDQMn3FL/MPorBfjjiQAzVzb8+
nXTBa6XsQLxjRT8eJ3vBAgfLQNt43b+d8YPBU97UQBPqKj/kHofB8yicQEtOWj/ZHajBKOLyQNbY
u75XG27BJmq7QFIaRMD2X4fB90jNQCWY7D+e3Y3Bpi4wQEiugMBhQYTBDtBiQI4sp8CkqojBieJU
QBcVMcAF2InBrCyLQDChlcDjK5LBmeHBQI7L9UBX7Y3BTsqeQDuuA0H5e4bBV5uUQE/ETcD1Ko/B
MGqoQF7X10C8nobBMx70QBExJL8/bkbBd9wWQWE+DkA94VDB3YSHQMTFC0AynKXBV1aaQEsQlEAR
no7BWEKeQIZ0OEBJNpzBtC6CQOtggEAI65fBcUWnQHnw8z9tq5PBXOoEQQZcmL5861rBngeIQBeC
vEDicovBJzHOQI/tgcDgFoTBoCXoQFd7L0ANZo7BWKQlQfU8Ij80f2/B750pQQfSrr0rrkjBrz53
QPRbn0ChLKDBVOUcQVNBCz+zsVnBavHQQA4HJ8AHlq3BQ9H9QNwfDr/fMq3BK2mCQLcXHcAqlKrB
ehDcQHqW1D918qnBNY9BQLR4fr5T56bBN1+xQAKSKL/FgpHB2j3nQMu0HsAMumrB7SD6QLtg3D/i
e3bB/m/XP5UthMAAHIbBF7Y4QHx5fMBMFXfB3gWHQGAEtMAVgoLBudc2QCeBwMAsVovBSsgnQLBf
GcCE6o/BkVhhQFW1/L+68YPBXRqpQPmwp8CONJPBc49wQBFIl8CylZnBT8i8QKsP9UDjoZbB48Xj
QKV7/EDePIzB4panQENiDUGn9X7BTpmAQEWsCUHY34nBrGGaQDLaJ8DQcJbB0L25QO4ry0CCSn/B
NmwFQT4nCL8NGznBlcrYQM3XDD1J8kPB9aroQNYg179+G0fBdcAlQX+JM0AU1E/Bd/ULQavNLEBb
ZFzBGTEPQfXQC0DlDEHB8VuJQDIPNUAcuazBAotLQHMuAUC/fKPBZzCZQB/fe0Cax4fBt9O7QD8u
mUCSAZHBd4G8QKTaU0AMIp/BQRVHQNh3ZkCqGJXB8oGQQG10nj8D65HBsVJhQM1Ht0BXJIbBpeZ3
QBsfy0C45JHBo/NYQAySkkCs76XB

>  <OMEGA_E>  (38) 
oBQoP/zfKz/sx2Q/

>  <OMEGA_NBR>  (38) 
      6288

$$$$
29086
     RDKit          3D

 73 76  0  0  1  0  0  0  0  0999 V2000
    6.3844   -1.5008  -21.6434 C   0  0  0  0  0  0  0  0  0  0  0  0
    7.0709   -0.2764  -21.5285 C   0  0  0  0  0  0  0  0  0  0  0  0
    4.9892   -1.5500  -21.4516 C   0  0  0  0  0  0  0  0  0  0  0  0
    6.3624    0.9005  -21.2283 C   0  0  0  0  0  0  0  0  0  0  0  0
    4.2799   -0.3765  -21.1352 C   0  0  0  0  0  0  0  0  0  0  0  0
    6.0670   -0.5511  -17.1519 C   0  0  0  0  0  0  0  0  0  0  0  0
    7.4071    0.8256  -15.6481 C   0  0  0  0  0  0  0  0  0  0  0  0
    7.0641   -1.5446  -15.1719 C   0  0  0  0  0  0  0  0  0  0  0  0
    6.6231    0.6949  -16.8148 C   0  0  0  0  0  0  0  0  0  0  0  0
    4.9647    0.8504  -21.0128 C   0  0  0  0  0  0  0  0  0  0  0  0
    6.2907   -1.6702  -16.3404 C   0  0  0  0  0  0  0  0  0  0  0  0
    7.6382   -0.2994  -14.8238 C   0  0  0  0  0  0  0  0  0  0  0  0
    6.3998    1.8237  -17.7182 C   0  0  0  0  0  0  0  0  0  0  0  0
    1.9938   -4.3127  -17.0681 C   0  0  0  0  0  0  0  0  0  0  0  0
    2.8414   -4.3873  -18.3509 C   0  0  0  0  0  0  0  0  0  0  0  0
    6.1250    7.5499  -17.7545 C   0  0  0  0  0  0  0  0  0  0  0  0
    5.0573    8.1871  -16.8462 C   0  0  0  0  0  0  0  0  0  0  0  0
    3.5194   -4.2476  -16.9852 C   0  0  0  0  0  0  0  0  0  0  0  0
    5.2754    6.6877  -16.8173 C   0  0  0  0  0  0  0  0  0  0  0  0
    8.2729    0.9807  -12.7693 C   0  0  0  0  0  0  0  0  0  0  0  0
    8.9229   -2.5475  -12.1663 C   0  0  0  0  0  0  0  0  0  0  0  0
    4.1960    2.1013  -20.6402 C   0  0  0  0  0  0  0  0  0  0  0  0
    5.6833   -2.9951  -16.7311 C   0  0  0  0  0  0  0  0  0  0  0  0
    4.1539   -2.9012  -16.6304 C   0  0  0  0  0  0  0  0  0  0  0  0
    4.7538    4.5729  -17.7797 C   0  0  0  0  0  0  0  0  0  0  0  0
    4.8851    2.8386  -19.4786 C   0  0  1  0  0  0  0  0  0  0  0  0
    4.0060    3.9722  -18.9586 C   0  0  2  0  0  0  0  0  0  0  0  0
    5.1810    1.8904  -18.3912 N   0  0  0  0  0  0  0  0  0  0  0  0
    8.4340   -0.1830  -13.6762 N   0  0  0  0  0  0  0  0  0  0  0  0
    4.2288    5.8647  -17.4066 N   0  0  0  0  0  0  0  0  0  0  0  0
    7.3030    2.6258  -17.9331 O   0  0  0  0  0  0  0  0  0  0  0  0
   10.7207   -0.6506  -12.5726 O   0  0  0  0  0  0  0  0  0  0  0  0
    9.9938   -2.0728  -14.5488 O   0  0  0  0  0  0  0  0  0  0  0  0
    3.8392    4.9427  -19.9946 O   0  0  0  0  0  0  0  0  0  0  0  0
    9.6602   -1.3505  -13.3114 S   0  0  0  0  0  0  0  0  0  0  0  0
    6.9282   -2.4037  -21.8788 H   0  0  0  0  0  0  0  0  0  0  0  0
    8.1409   -0.2414  -21.6710 H   0  0  0  0  0  0  0  0  0  0  0  0
    4.4640   -2.4888  -21.5475 H   0  0  0  0  0  0  0  0  0  0  0  0
    6.8853    1.8432  -21.1621 H   0  0  0  0  0  0  0  0  0  0  0  0
    3.2110   -0.4154  -20.9861 H   0  0  0  0  0  0  0  0  0  0  0  0
    5.4633   -0.6460  -18.0424 H   0  0  0  0  0  0  0  0  0  0  0  0
    7.8300    1.7841  -15.3855 H   0  0  0  0  0  0  0  0  0  0  0  0
    7.2206   -2.4040  -14.5369 H   0  0  0  0  0  0  0  0  0  0  0  0
    1.3924   -3.4162  -16.8572 H   0  0  0  0  0  0  0  0  0  0  0  0
    1.4607   -5.2049  -16.7080 H   0  0  0  0  0  0  0  0  0  0  0  0
    2.9150   -5.3329  -18.9082 H   0  0  0  0  0  0  0  0  0  0  0  0
    2.8467   -3.5441  -19.0573 H   0  0  0  0  0  0  0  0  0  0  0  0
    5.9681    7.5029  -18.8423 H   0  0  0  0  0  0  0  0  0  0  0  0
    7.1934    7.7060  -17.5446 H   0  0  0  0  0  0  0  0  0  0  0  0
    5.3628    8.8035  -15.9879 H   0  0  0  0  0  0  0  0  0  0  0  0
    4.1375    8.6003  -17.2856 H   0  0  0  0  0  0  0  0  0  0  0  0
    4.0265   -5.1437  -16.5980 H   0  0  0  0  0  0  0  0  0  0  0  0
    5.7917    6.2897  -15.9313 H   0  0  0  0  0  0  0  0  0  0  0  0
    8.9804    0.8941  -11.9315 H   0  0  0  0  0  0  0  0  0  0  0  0
    8.4742    1.9087  -13.3246 H   0  0  0  0  0  0  0  0  0  0  0  0
    7.2444    1.0023  -12.3798 H   0  0  0  0  0  0  0  0  0  0  0  0
    9.6686   -3.3127  -11.9047 H   0  0  0  0  0  0  0  0  0  0  0  0
    8.5952   -2.0280  -11.2538 H   0  0  0  0  0  0  0  0  0  0  0  0
    8.0573   -3.0280  -12.6456 H   0  0  0  0  0  0  0  0  0  0  0  0
    4.1477    2.7687  -21.5133 H   0  0  0  0  0  0  0  0  0  0  0  0
    3.1767    1.8212  -20.3359 H   0  0  0  0  0  0  0  0  0  0  0  0
    5.9692   -3.2399  -17.7646 H   0  0  0  0  0  0  0  0  0  0  0  0
    6.0487   -3.7809  -16.0536 H   0  0  0  0  0  0  0  0  0  0  0  0
    3.7900   -2.1325  -17.3280 H   0  0  0  0  0  0  0  0  0  0  0  0
    3.8733   -2.6264  -15.6029 H   0  0  0  0  0  0  0  0  0  0  0  0
    4.6663    3.8924  -16.9199 H   0  0  0  0  0  0  0  0  0  0  0  0
    5.8136    4.6856  -18.0517 H   0  0  0  0  0  0  0  0  0  0  0  0
    5.8267    3.2687  -19.8507 H   0  0  0  0  0  0  0  0  0  0  0  0
    3.0370    3.5723  -18.6253 H   0  0  0  0  0  0  0  0  0  0  0  0
    4.4607    1.2529  -18.1178 H   0  0  0  0  0  0  0  0  0  0  0  0
    3.4928    5.7414  -16.7410 H   0  0  0  0  0  0  0  0  0  0  0  0
    3.8693    6.3216  -18.2202 H   0  0  0  0  0  0  0  0  0  0  0  0
    3.3709    4.5518  -20.7228 H   0  0  0  0  0  0  0  0  0  0  0  0
  1  2  2  0
  1  3  1  0
  2  4  1  0
  3  5  2  0
  4 10  2  0
  5 10  1  0
  6  9  2  0
  6 11  1  0
  7  9  1  0
  7 12  2  0
  8 11  2  0
  8 12  1  0
  9 13  1  0
 10 22  1  0
 11 23  1  0
 12 29  1  0
 13 28  1  0
 13 31  2  0
 14 15  1  0
 14 18  1  0
 15 18  1  0
 16 17  1  0
 16 19  1  0
 17 19  1  0
 18 24  1  0
 19 30  1  0
 20 29  1  0
 21 35  1  0
 22 26  1  0
 23 24  1  0
 25 27  1  0
 25 30  1  0
 26 27  1  0
 26 28  1  0
 27 34  1  0
 29 35  1  0
 32 35  2  0
 33 35  2  0
  1 36  1  0
  2 37  1  0
  3 38  1  0
  4 39  1  0
  5 40  1  0
  6 41  1  0
  7 42  1  0
  8 43  1  0
 14 44  1  0
 14 45  1  0
 15 46  1  0
 15 47  1  0
 16 48  1  0
 16 49  1  0
 17 50  1  0
 17 51  1  0
 18 52  1  0
 19 53  1  0
 20 54  1  0
 20 55  1  0
 20 56  1  0
 21 57  1  0
 21 58  1  0
 21 59  1  0
 22 60  1  0
 22 61  1  0
 23 62  1  0
 23 63  1  0
 24 64  1  0
 24 65  1  0
 25 66  1  0
 25 67  1  0
 26 68  1  6
 27 69  1  1
 28 70  1  0
 30 71  1  0
 30 72  1  0
 34 73  1  0
M  CHG  1  30   1
M  END
>  <OMEGA_C>  (39) 
m0zMQHQbwL+iJa3B3kTiQDR/jb5wOqzBqaefQIJmxr/onKvBBZnLQGKKZj+L06nBJ/WIQNrIwL7o
FKnB0yTCQJUUDb8WN4nBOQftQAxdUz+cXnrBgw3iQCK0xb8+wHLBmfDTQInjMT++hIbBM9+eQNOz
WT84GqjB0k3JQDLJ1b8guYLB6Wv0QLRLmb48Lm3BWcvMQFpv6T/wvo3BYDX/P6EBisBwi4jBWNk1
QMRkjMC4zpLBy//DQNaY8UBHCY7BktWhQDT+AkEBxYbBCD5hQA/sh8Co4YfBxs+oQKQB1kDriYbB
wV0EQdIRez8+T0zBT8QOQUUKI8AuqULBmUWGQBR7BkAuH6XBj921QDmvP8Az2YXBGO2EQNytOcD9
CoXBBx+YQFtVkkDAPI7BslKcQPKrNUA11JvBgDGAQF04fkA4q5fBHMulQGj48T8UIZPBpPEGQe5w
O7640VrBI1KHQJqru0CyQIvB0rHpQIkMKEAAd4/B3ocrQQyPJr9KKUnBceYfQTaoBMC/x2jBGLZ1
QIgqnkDb9J/BXZAaQVrcrL9l+1TB57PdQFnWGcDdB6/BH0ECQSQ6d743Xq3BIdmOQKBIH8BWYazB
AlTcQG3v6z8ETKnBroBNQJqx1L5746fBV9OuQNpiJb/EVpDBBY/6QAhe5D82K3bB+A7nQODaGcD6
lmjB1TmyP0GiWsBz24bBx/a6P+SOpsAKqoXBR486QMmmqsDrQ5fBzjA2QAvSYsBUdZjBtfq+QJkX
8ED4vJbBWzDmQN2X9kBGW4zBwZurQCTbDEFYzn/BHGaEQAKbCUHfSIrBA9mAQOqYpMDNyITBP1W5
QD5FyUCu5n7Bnq8PQTDjZD+A5z7BX5YHQRJR9D+ZMVXB+9HnQDFLgD/bE0bBeLIaQcYDVMCfeT7B
EoYJQQvKAcCCDzTBgOoAQavKQcBoVErBqLmEQKExMUA6G6zBFE9LQPEd6T/nr6LBtQO/QCpbT8D7
HY7Bpo7BQGT6ccC+bYDBb49yQEF7CMCmn4rBwuN3QO0WKMB3pXnBXlKVQIUdeUDbW4fBUQm6QKDw
lUDuaZDBVXS6QKkxUUA9zp7B+F5CQDKgZECJAJXBxb2OQHFgoD9J8ZDBOolfQGa5t0B+7YXBnKJ3
QNpKykD/wpHBWLxXQLOokUBXyKXB

>  <OMEGA_E>  (39) 
LLRrPw==

>  <OMEGA_NBR>  (39) 
      7794

$$$$
50146844
     RDKit          3D

 82 84  0  0  1  0  0  0  0  0999 V2000
    6.4505   -1.3340  -21.6064 C   0  0  0  0  0  0  0  0  0  0  0  0
    0.4592   -4.8423  -15.5402 C   0  0  0  0  0  0  0  0  0  0  0  0
    7.1627   -0.1237  -21.4908 C   0  0  0  0  0  0  0  0  0  0  0  0
    5.0466   -1.3369  -21.4932 C   0  0  0  0  0  0  0  0  0  0  0  0
    0.5425   -3.6800  -16.3331 C   0  0  0  0  0  0  0  0  0  0  0  0
    1.5069   -5.7842  -15.5568 C   0  0  0  0  0  0  0  0  0  0  0  0
    6.4730    1.0824  -21.2550 C   0  0  0  0  0  0  0  0  0  0  0  0
    4.3561   -0.1364  -21.2343 C   0  0  0  0  0  0  0  0  0  0  0  0
    1.6696   -3.4632  -17.1508 C   0  0  0  0  0  0  0  0  0  0  0  0
    2.6339   -5.5700  -16.3729 C   0  0  0  0  0  0  0  0  0  0  0  0
    6.0268   -0.5109  -17.2073 C   0  0  0  0  0  0  0  0  0  0  0  0
    6.9870   -1.5478  -15.2317 C   0  0  0  0  0  0  0  0  0  0  0  0
    7.4372    0.7981  -15.7064 C   0  0  0  0  0  0  0  0  0  0  0  0
    6.2203   -1.6480  -16.4029 C   0  0  0  0  0  0  0  0  0  0  0  0
    6.6312    0.7151  -16.8636 C   0  0  0  0  0  0  0  0  0  0  0  0
    5.0668    1.0790  -21.1063 C   0  0  0  0  0  0  0  0  0  0  0  0
    2.7143   -4.4171  -17.1840 C   0  0  0  0  0  0  0  0  0  0  0  0
    7.5962   -0.3328  -14.8697 C   0  0  0  0  0  0  0  0  0  0  0  0
    5.6419   -2.9433  -16.7846 C   0  0  0  0  0  0  0  0  0  0  0  0
    6.3962    1.8868  -17.7177 C   0  0  0  0  0  0  0  0  0  0  0  0
    3.5340   -4.1470  -19.5602 C   0  0  0  0  0  0  0  0  0  0  0  0
    6.7578    7.8806  -19.5554 C   0  0  0  0  0  0  0  0  0  0  0  0
    4.6134    8.1246  -18.2512 C   0  0  0  0  0  0  0  0  0  0  0  0
    9.0393   -1.4988  -13.1888 C   0  0  0  0  0  0  0  0  0  0  0  0
    7.0727   -0.0287  -11.1880 C   0  0  0  0  0  0  0  0  0  0  0  0
    4.3252    2.3590  -20.7326 C   0  0  0  0  0  0  0  0  0  0  0  0
    3.9695    5.3241  -19.4028 C   0  0  0  0  0  0  0  0  0  0  0  0
    3.9238   -4.2193  -18.0797 C   0  0  1  0  0  0  0  0  0  0  0  0
    4.8930    2.9778  -19.4166 C   0  0  1  0  0  0  0  0  0  0  0  0
    5.3038    7.3910  -19.4130 C   0  0  0  0  0  0  0  0  0  0  0  0
    3.9328    3.9727  -18.7140 C   0  0  2  0  0  0  0  0  0  0  0  0
    4.6115   -2.9841  -17.7098 N   0  0  0  0  0  0  0  0  0  0  0  0
    5.2173    1.9275  -18.4552 N   0  0  0  0  0  0  0  0  0  0  0  0
    8.3444   -0.2703  -13.6855 N   0  0  0  0  0  0  0  0  0  0  0  0
    5.2802    5.9474  -19.1318 N   0  0  0  0  0  0  0  0  0  0  0  0
    6.0758   -3.9778  -16.2872 O   0  0  0  0  0  0  0  0  0  0  0  0
    7.2229    2.7921  -17.7775 O   0  0  0  0  0  0  0  0  0  0  0  0
    6.9667    1.8531  -13.0318 O   0  0  0  0  0  0  0  0  0  0  0  0
    9.2027    1.3837  -11.9163 O   0  0  0  0  0  0  0  0  0  0  0  0
    2.5895    3.5040  -18.7183 O   0  0  0  0  0  0  0  0  0  0  0  0
    7.9382    0.8957  -12.4827 S   0  0  0  0  0  0  0  0  0  0  0  0
    6.9806   -2.2585  -21.7816 H   0  0  0  0  0  0  0  0  0  0  0  0
   -0.4084   -5.0110  -14.9194 H   0  0  0  0  0  0  0  0  0  0  0  0
    8.2387   -0.1203  -21.5831 H   0  0  0  0  0  0  0  0  0  0  0  0
    4.4985   -2.2607  -21.6050 H   0  0  0  0  0  0  0  0  0  0  0  0
   -0.2578   -2.9551  -16.3140 H   0  0  0  0  0  0  0  0  0  0  0  0
    1.4455   -6.6709  -14.9432 H   0  0  0  0  0  0  0  0  0  0  0  0
    7.0197    2.0114  -21.1877 H   0  0  0  0  0  0  0  0  0  0  0  0
    3.2809   -0.1446  -21.1334 H   0  0  0  0  0  0  0  0  0  0  0  0
    1.7360   -2.5688  -17.7524 H   0  0  0  0  0  0  0  0  0  0  0  0
    3.4393   -6.2896  -16.3786 H   0  0  0  0  0  0  0  0  0  0  0  0
    5.4119   -0.5774  -18.0927 H   0  0  0  0  0  0  0  0  0  0  0  0
    7.1108   -2.4150  -14.6000 H   0  0  0  0  0  0  0  0  0  0  0  0
    7.9328    1.7254  -15.4597 H   0  0  0  0  0  0  0  0  0  0  0  0
    4.4374   -4.0037  -20.1713 H   0  0  0  0  0  0  0  0  0  0  0  0
    3.0371   -5.0832  -19.8546 H   0  0  0  0  0  0  0  0  0  0  0  0
    2.8473   -3.3022  -19.7176 H   0  0  0  0  0  0  0  0  0  0  0  0
    7.2437    7.3510  -20.3881 H   0  0  0  0  0  0  0  0  0  0  0  0
    6.7623    8.9621  -19.7563 H   0  0  0  0  0  0  0  0  0  0  0  0
    7.3055    7.6786  -18.6231 H   0  0  0  0  0  0  0  0  0  0  0  0
    3.5767    7.7692  -18.1568 H   0  0  0  0  0  0  0  0  0  0  0  0
    5.1565    7.9231  -17.3160 H   0  0  0  0  0  0  0  0  0  0  0  0
    4.6133    9.2066  -18.4493 H   0  0  0  0  0  0  0  0  0  0  0  0
    9.5734   -1.2666  -12.2556 H   0  0  0  0  0  0  0  0  0  0  0  0
    8.2973   -2.2886  -12.9997 H   0  0  0  0  0  0  0  0  0  0  0  0
    9.7582   -1.8448  -13.9462 H   0  0  0  0  0  0  0  0  0  0  0  0
    6.7806    0.6576  -10.3796 H   0  0  0  0  0  0  0  0  0  0  0  0
    6.1734   -0.4991  -11.6123 H   0  0  0  0  0  0  0  0  0  0  0  0
    7.7383   -0.8067  -10.7858 H   0  0  0  0  0  0  0  0  0  0  0  0
    4.4352    3.0885  -21.5485 H   0  0  0  0  0  0  0  0  0  0  0  0
    3.2595    2.1272  -20.5892 H   0  0  0  0  0  0  0  0  0  0  0  0
    3.8372    5.1927  -20.4868 H   0  0  0  0  0  0  0  0  0  0  0  0
    3.1652    5.9635  -19.0100 H   0  0  0  0  0  0  0  0  0  0  0  0
    4.6057   -5.0713  -17.9413 H   0  0  0  0  0  0  0  0  0  0  0  0
    5.8131    3.5231  -19.6737 H   0  0  0  0  0  0  0  0  0  0  0  0
    4.7604    7.6019  -20.3459 H   0  0  0  0  0  0  0  0  0  0  0  0
    4.2767    4.1019  -17.6772 H   0  0  0  0  0  0  0  0  0  0  0  0
    4.3255   -2.1299  -18.1440 H   0  0  0  0  0  0  0  0  0  0  0  0
    4.5520    1.1935  -18.3188 H   0  0  0  0  0  0  0  0  0  0  0  0
    5.5055    5.8076  -18.1676 H   0  0  0  0  0  0  0  0  0  0  0  0
    5.9688    5.5009  -19.7031 H   0  0  0  0  0  0  0  0  0  0  0  0
    2.5478    2.6570  -18.2900 H   0  0  0  0  0  0  0  0  0  0  0  0
  1  3  2  0
  1  4  1  0
  2  5  2  0
  2  6  1  0
  3  7  1  0
  4  8  2  0
  5  9  1  0
  6 10  2  0
  7 16  2  0
  8 16  1  0
  9 17  2  0
 10 17  1  0
 11 14  2  0
 11 15  1  0
 12 14  1  0
 12 18  2  0
 13 15  2  0
 13 18  1  0
 14 19  1  0
 15 20  1  0
 16 26  1  0
 17 28  1  0
 18 34  1  0
 19 32  1  0
 19 36  2  0
 20 33  1  0
 20 37  2  0
 21 28  1  0
 22 30  1  0
 23 30  1  0
 24 34  1  0
 25 41  1  0
 26 29  1  0
 27 31  1  0
 27 35  1  0
 28 32  1  0
 29 31  1  0
 29 33  1  0
 30 35  1  0
 31 40  1  0
 34 41  1  0
 38 41  2  0
 39 41  2  0
  1 42  1  0
  2 43  1  0
  3 44  1  0
  4 45  1  0
  5 46  1  0
  6 47  1  0
  7 48  1  0
  8 49  1  0
  9 50  1  0
 10 51  1  0
 11 52  1  0
 12 53  1  0
 13 54  1  0
 21 55  1  0
 21 56  1  0
 21 57  1  0
 22 58  1  0
 22 59  1  0
 22 60  1  0
 23 61  1  0
 23 62  1  0
 23 63  1  0
 24 64  1  0
 24 65  1  0
 24 66  1  0
 25 67  1  0
 25 68  1  0
 25 69  1  0
 26 70  1  0
 26 71  1  0
 27 72  1  0
 27 73  1  0
 28 74  1  6
 29 75  1  6
 30 76  1  0
 31 77  1  1
 32 78  1  0
 33 79  1  0
 35 80  1  0
 35 81  1  0
 40 82  1  0
M  CHG  1  35   1
M  END
>  <OMEGA_C>  (40) 
2mrOQMbBqr/02azBWBrrPg70msCLpHjBbzTlQEBH/b097avBZ32hQF4eq78W8qvBXOMKPweFa8A+
qoLBiOPAP1YYucB/6HjBoyLPQGiLij81CqrBHWWLQAisC77Z36nB6rPVP7elXcDZNInBfJIoQIo9
ssCt+4LBLtvAQGDMAr92qInBUpXfQCodxr8ZtXPBqf3tQAJPTD94TXvB0QzHQJby0r8fOYPBszLU
QPsNNz+z6IbBZCOiQJ4dij+h2ajBWrctQEJZjcC+eInByRPzQLhoqr5w6m3B04q0QDtfPMDXRobB
sq3MQCGE8T/ZvY3ByixiQDS0hMBje5zBnj/YQBwu/EBfcZzBp6CTQHT+AUFgApLBDqEQQYzZv79p
BVPBZFPiQIBW67wWAjPB9GeKQBb6FkBY3KXBCgx+QLReqkDaOJvBSCB7QLoEh8Alo5DBqpOcQJqT
PkAxVZvBhripQAqD7EDITZvByLN7QP4/fkBftpXBS5GTQCX8PsC5rY3B3fOmQM659j9YpJPBjIIF
QQxpir7m91rBNfeoQBpRvkDkDZnBz2zCQN+TfsA+TILByyHnQC6xMkBiOI7BgO/eQCQx7T9FglDB
GD4TQTsdsT9CqT7B/rolQA1CYED/vpXBEQb+QL9OZT8nuUfBaWHfQOeLEMDEQK7BzhTRvjdaoMAR
tm7BsNEDQVhO9r1KqqzBpfOPQLKvEMAh16zBxAGEvnYgPcAhg4LBgAW5P7l31cBCF2/BGaHgQBe6
AEBWgKnBfflRQAoeFL4cEanB4TTeP9NmJMDsBI7BIR1cQF1EycBIB4PBgC6tQLLPE7/NvZDB9ovj
QL+OGsC2mWnBPNn9QJLa3D/uWnfBE/+NQF4egMC7XqHBwF9CQIGposA31p7Bijk2QI1XU8CpvZ3B
OMznQKo760DGGqPB8WTYQMpkD0HvDJ7BvcbpQC+39UAK/JTB2udkQEKd+EAdQZHBzwGlQFOK/UBE
h4rBA6CTQFxOE0EpmJPBhCwZQRkhor/8FkTBzsEEQcd3EsD2/k/BbyEcQRcj7L9yI1/BbPrYQLJa
KD+1EibBdozFQL+H/74kzDnB9Z/3QKuBTr+HkizBZ+2NQPypRUBeY6zBdptQQFUkCEC/tqTB7ZN1
QJwqpkAN5aPBMJNKQFjVvkCHFJjBLmKTQDpIosDOh4/B6QS6QAJ6YUC5Y53BP1WYQMlC80BTxKLB
0dqIQLBCg0Dnao3BK2qKQBhRCMACJ5HByqmRQI3FmD/+jJLB0SywQLXXuUAyV5HBVgC/QFoHsEAG
oJ3BXQ8jQAQNKkABUpLB7rDPQMzKq7+IG63BCo8PP0Z4l8CU+nbBVDfmQCTIDr6sbqvBlLyiQCZf
rr9TVqzBzsQpP8lGYsDnX4HBs6/HPzALt8DV03jBosrPQKSZhT9A/6jBPEyMQIS2P74rvKnBoSbh
P8AIVcDEQ4jBFAEqQH1+sMCBSYPB0EnCQLKL9r6ILorBpE7dQIKExr/WHHTBjL7pQERBVD+tDnrB
qQzIQEzM0b8O5IPBSyfTQP66QT/4zYbBFbmiQCpfgj8ZAqjBdTYwQBJ3isD/VInBUcPtQMJtqL4g
LW3BSRa3QHGIO8D6X4fBCvvLQGS4+T/heo3BHJ9bQE0MgcAJo5zBkGSaQFDv+0BrzYvBv/HnQIa7
60DTPY/BOKPpQMjhcb7XpUXBfRAeQWqZ5D+NnVLB5+KJQLrVEUCbXqXB5O+LQEhDnEATPo7BF2Z6
QDjNhMD6C5HBGcmbQKdkQUDod5vB3TK9QE8k2UBkP4vBpZF0QDB0gUA4fpfBSNqUQA9EPMB+XI7B
Mh2lQF93A0Dw5ZLBgW4BQQIXor4XtlnBrjmxQHbftEBFHpLBOIHFQCtLfsDVqIPBrSboQMn6MkDZ
eI7B7okkQZyEEr5Z8W7BiFElQQGlOr8vTkfBvKNdQIl/nUDKDqDBnBUcQTCyCT3YJ1nB0+jgQCrr
D8Cd+67BVYyRvj6lnMDDiGzB1lgEQQzu/70gBKzBa3iRQKT9EcAIv63Bo9nJvbmqMcBYmoDBqhG+
P21I1MCqsW/BYALhQOEi/D+04qfBdbNTQGO3VL6xDqnBPozrP9AaGsCuu4zB7TRbQJqgyMDe74PB
Cd2wQOJFC79doJHBafngQOCgG8A0SGrBjNz3QMyP4T8P+HTBZ4uJQHX+ecDm9aHBxqE4QFZAnsD6
357BuAAxQBtmSsBPZ53BJaZ3QCO47kDM84jBo7OjQA+TC0G2uobB6MiWQLBnA0GGH5TBfG4AQYXr
0kAJ2o7BmkvkQMid9kB3j5fBVDbxQEN6A0GnKorBlXX/QDP8cr6D1jfBC7DWQOXWMD8TnkXBdgvU
QPMejb/3m0TBMAMvQZ8eBUBP/lHBjsoVQfJBGEAV6l7Bb5cWQc/f+z/T8kLBOE+LQOAmPUAjTKzB
u8ZQQLNPAEAdyaPBri9mQPVkskC8XovBWtiVQMkRh0DZqofB13GSQPy/oMDvZ5DBTyi5QLyXY0A5
wp3BQuLAQAZ5zkCP6YLBHOA7QFfKX0BsrJTBueOLQBISBcD6u5HBfMWNQM0Ntj9hzZDBBULKQGoH
oUCBl5LBz1yqQIwywECzZpnBIZxHQFs3jUDj2qXB56jRQAT4q7+ioKzBBG/kPgvfmsC2VHrBjMLn
QJxDEL7ZoKrBbaCkQAM/r79ETKzBOh8PP+xoaMAG5oLBGci7P/HWucCtqHvBqNXQQA2ohD+6TKjB
Z6uNQLgjTr4ax6nBHS3YP8QtWcAoW4nBJEwmQJxFssAnQ4TBVxG/QMgD4b4jSonBtljfQGDIxb9b
9nPBFxjsQARnVD//9nnBl37GQJT4zb/KTIPBTMDRQEDYSD8MMobBNqijQESEgD8GuKfB+GktQCLM
i8DCHYrBn0DyQJylrL7nZW3B4sK0QBmmOcAlu4bB/+/JQAOu/T8n1ozBpF5hQPSjgMBpBJ3BtFOW
QCDf+kDSSovBjknkQIVJ60DIRY7BgpkQQTivyr/DsFPBUNHmQMylJ75AdzHBCzWKQN57EECYQaXB
OXuIQMl9m0BdIY7BwMx6QESehMDQOZHBY8OaQK+6QEBkQpvBS0W5QFpF2EAWmorBSNJwQNq8gEDo
j5fBT2GTQGHhOsAIAY7B9qijQP2HA0CJkZLBnYMFQQBrqL4vpFrBMzquQCpCtECJpJHB+0TDQNKe
fMBEGYPBTovlQC4+NkDIsI3B6d/fQJwF4j9BDE7BtLAUQZjIoz/5aj7B1AlcQMrZnEAZM6DBHQMA
QYXqTD8ZjEbBikPjQKa5D8Claa7BztXYvlHFoMDIhHDBXSYFQb+H+b284arBHLKTQIVaEsCV+63B
pytivoTOOMBNV4LB1dmwP0Nk18DxzXLBC8DhQPZH+z9z9abBgExWQKR7aL7faqnBfVLjP3nTHcCY
uo3BIoJYQMvzycBCuITBDeyqQAXD9b5oTZDBRgvkQIb3G8C+gGrBxIj7QKyE4D+NdnXBnICNQE70
dsAq56HBSkRBQPg0nsAYm5/B64s1QC7DSsBFA57BvR1vQBFc7UBerIjBsPGeQBb3CkGrF4bB7IGT
QIIIA0EEm5PBKFH9QCud0kBFyY3BzGvhQM999kCFlZbBkNvsQHstA0EsEonBPXsZQf1Osr/4zUTB
rakEQSTfF8Cb6lDBF8wbQSsB9L+LP2DBM9neQK2z/z40ACTBBGPJQJjJIL+qoTfBZ+v8QGKwcr8e
+SvByiSMQOiuO0ASMKzB6EhRQC+n/D/s4qPBsUFeQI9/sUAtfIvBXnWRQG5FhkA/eofB3jiTQE8F
oMC7XJDBwB64QDusY0BDYZ3BLiq8QIJEzUA2RoLBrp83QEnJXUBEB5XBj9iJQJltA8CINZHBbYCM
QHFetD+LoJDBAVPHQOxxoEDS9JHBBE+oQAzXv0C+85jB+PlHQHKXjECBHKbB

>  <OMEGA_E>  (40) 
MJNlPxy7RD9mWDw/

>  <OMEGA_NBR>  (40) 
     13490

$$$$
50150455
     RDKit          3D

 77 81  0  0  1  0  0  0  0  0999 V2000
    6.5511   -0.8872  -21.8508 C   0  0  0  0  0  0  0  0  0  0  0  0
    0.4705   -5.2534  -15.2679 C   0  0  0  0  0  0  0  0  0  0  0  0
    6.8366    0.4166  -22.2562 C   0  0  0  0  0  0  0  0  0  0  0  0
    5.5749   -1.1176  -20.8815 C   0  0  0  0  0  0  0  0  0  0  0  0
    0.8149   -3.9206  -15.4931 C   0  0  0  0  0  0  0  0  0  0  0  0
    1.2243   -6.2750  -15.8453 C   0  0  0  0  0  0  0  0  0  0  0  0
    6.1460    1.4897  -21.6927 C   0  0  0  0  0  0  0  0  0  0  0  0
    4.8843   -0.0445  -20.3181 C   0  0  0  0  0  0  0  0  0  0  0  0
    1.9130   -3.6095  -16.2953 C   0  0  0  0  0  0  0  0  0  0  0  0
    2.3224   -5.9639  -16.6474 C   0  0  0  0  0  0  0  0  0  0  0  0
    6.0939   -0.7701  -16.8253 C   0  0  0  0  0  0  0  0  0  0  0  0
    6.6875   -1.6801  -14.6689 C   0  0  0  0  0  0  0  0  0  0  0  0
    6.1188   -1.8393  -15.9318 C   0  0  0  0  0  0  0  0  0  0  0  0
    6.6302    0.4628  -16.4526 C   0  0  0  0  0  0  0  0  0  0  0  0
    7.1940    0.6373  -15.1818 C   0  0  0  0  0  0  0  0  0  0  0  0
    5.1698    1.2593  -20.7234 C   0  0  0  0  0  0  0  0  0  0  0  0
    2.6669   -4.6312  -16.8726 C   0  0  0  0  0  0  0  0  0  0  0  0
    7.2367   -0.4501  -14.2988 C   0  0  0  0  0  0  0  0  0  0  0  0
    5.5557   -3.1232  -16.3187 C   0  0  0  0  0  0  0  0  0  0  0  0
    6.5847    1.5458  -17.4280 C   0  0  0  0  0  0  0  0  0  0  0  0
    7.7686    1.9701  -14.7942 C   0  0  0  0  0  0  0  0  0  0  0  0
    7.9598    2.0475  -13.2855 C   0  0  0  0  0  0  0  0  0  0  0  0
    5.5442    8.6049  -18.6454 C   0  0  0  0  0  0  0  0  0  0  0  0
    7.0190    8.3317  -18.5617 C   0  0  0  0  0  0  0  0  0  0  0  0
    8.6024    0.7587  -12.7977 C   0  0  0  0  0  0  0  0  0  0  0  0
    6.1182    7.3760  -19.2902 C   0  0  0  0  0  0  0  0  0  0  0  0
    3.4728   -4.1415  -19.2127 C   0  0  0  0  0  0  0  0  0  0  0  0
    4.4215    2.4216  -20.1126 C   0  0  0  0  0  0  0  0  0  0  0  0
    4.5167    5.4809  -19.0023 C   0  0  0  0  0  0  0  0  0  0  0  0
    3.8577   -4.2942  -17.7426 C   0  0  1  0  0  0  0  0  0  0  0  0
    5.1115    2.9799  -18.8558 C   0  0  1  0  0  0  0  0  0  0  0  0
    4.3342    4.1662  -18.2468 C   0  0  2  0  0  0  0  0  0  0  0  0
    4.5320   -3.1054  -17.2727 N   0  0  0  0  0  0  0  0  0  0  0  0
    5.3203    1.9388  -17.8755 N   0  0  0  0  0  0  0  0  0  0  0  0
    5.8388    6.0644  -18.6484 N   0  0  0  0  0  0  0  0  0  0  0  0
    5.9665   -4.1749  -15.7979 O   0  0  0  0  0  0  0  0  0  0  0  0
    7.6354    2.0632  -17.8397 O   0  0  0  0  0  0  0  0  0  0  0  0
    7.7696   -0.3804  -13.0372 O   0  0  0  0  0  0  0  0  0  0  0  0
    2.9399    3.8459  -18.2376 O   0  0  0  0  0  0  0  0  0  0  0  0
    7.0887   -1.7227  -22.2894 H   0  0  0  0  0  0  0  0  0  0  0  0
   -0.3844   -5.4956  -14.6435 H   0  0  0  0  0  0  0  0  0  0  0  0
    7.5964    0.5961  -23.0112 H   0  0  0  0  0  0  0  0  0  0  0  0
    5.3525   -2.1326  -20.5656 H   0  0  0  0  0  0  0  0  0  0  0  0
    0.2282   -3.1249  -15.0433 H   0  0  0  0  0  0  0  0  0  0  0  0
    0.9562   -7.3128  -15.6702 H   0  0  0  0  0  0  0  0  0  0  0  0
    6.3755    2.5020  -22.0148 H   0  0  0  0  0  0  0  0  0  0  0  0
    4.1247   -0.2340  -19.5643 H   0  0  0  0  0  0  0  0  0  0  0  0
    2.1736   -2.5681  -16.4651 H   0  0  0  0  0  0  0  0  0  0  0  0
    2.9043   -6.7669  -17.0921 H   0  0  0  0  0  0  0  0  0  0  0  0
    5.6549   -0.8985  -17.8126 H   0  0  0  0  0  0  0  0  0  0  0  0
    6.7105   -2.5149  -13.9718 H   0  0  0  0  0  0  0  0  0  0  0  0
    8.7346    2.0978  -15.2972 H   0  0  0  0  0  0  0  0  0  0  0  0
    7.1101    2.7897  -15.1035 H   0  0  0  0  0  0  0  0  0  0  0  0
    8.5758    2.9144  -13.0249 H   0  0  0  0  0  0  0  0  0  0  0  0
    6.9829    2.1714  -12.8013 H   0  0  0  0  0  0  0  0  0  0  0  0
    4.9594    8.4948  -17.7404 H   0  0  0  0  0  0  0  0  0  0  0  0
    5.2172    9.4086  -19.2938 H   0  0  0  0  0  0  0  0  0  0  0  0
    7.6805    8.9519  -19.1543 H   0  0  0  0  0  0  0  0  0  0  0  0
    7.4231    8.0386  -17.6004 H   0  0  0  0  0  0  0  0  0  0  0  0
    9.5800    0.5921  -13.2670 H   0  0  0  0  0  0  0  0  0  0  0  0
    8.7664    0.8170  -11.7165 H   0  0  0  0  0  0  0  0  0  0  0  0
    6.1760    7.3601  -20.3720 H   0  0  0  0  0  0  0  0  0  0  0  0
    2.7287   -3.3512  -19.3609 H   0  0  0  0  0  0  0  0  0  0  0  0
    4.3479   -3.8993  -19.8263 H   0  0  0  0  0  0  0  0  0  0  0  0
    3.0370   -5.0715  -19.5952 H   0  0  0  0  0  0  0  0  0  0  0  0
    4.3367    3.2073  -20.8744 H   0  0  0  0  0  0  0  0  0  0  0  0
    3.3942    2.1075  -19.8870 H   0  0  0  0  0  0  0  0  0  0  0  0
    4.5237    5.3501  -20.0872 H   0  0  0  0  0  0  0  0  0  0  0  0
    3.7741    6.2319  -18.7166 H   0  0  0  0  0  0  0  0  0  0  0  0
    4.6007   -5.0974  -17.6710 H   0  0  0  0  0  0  0  0  0  0  0  0
    6.1192    3.3296  -19.1147 H   0  0  0  0  0  0  0  0  0  0  0  0
    4.6390    4.2943  -17.2002 H   0  0  0  0  0  0  0  0  0  0  0  0
    4.1918   -2.2145  -17.6186 H   0  0  0  0  0  0  0  0  0  0  0  0
    4.4995    1.4380  -17.5519 H   0  0  0  0  0  0  0  0  0  0  0  0
    5.8970    6.1694  -17.6263 H   0  0  0  0  0  0  0  0  0  0  0  0
    6.5796    5.3984  -18.9046 H   0  0  0  0  0  0  0  0  0  0  0  0
    2.8572    3.0115  -17.7538 H   0  0  0  0  0  0  0  0  0  0  0  0
  1  3  2  0
  1  4  1  0
  2  5  2  0
  2  6  1  0
  3  7  1  0
  4  8  2  0
  5  9  1  0
  6 10  2  0
  7 16  2  0
  8 16  1  0
  9 17  2  0
 10 17  1  0
 11 13  2  0
 11 14  1  0
 12 13  1  0
 12 18  2  0
 13 19  1  0
 14 15  2  0
 14 20  1  0
 15 18  1  0
 15 21  1  0
 16 28  1  0
 17 30  1  0
 18 38  1  0
 19 33  1  0
 19 36  2  0
 20 34  1  0
 20 37  2  0
 21 22  1  0
 22 25  1  0
 23 24  1  0
 23 26  1  0
 24 26  1  0
 25 38  1  0
 26 35  1  0
 27 30  1  0
 28 31  1  0
 29 32  1  0
 29 35  1  0
 30 33  1  0
 31 32  1  0
 31 34  1  0
 32 39  1  0
  1 40  1  0
  2 41  1  0
  3 42  1  0
  4 43  1  0
  5 44  1  0
  6 45  1  0
  7 46  1  0
  8 47  1  0
  9 48  1  0
 10 49  1  0
 11 50  1  0
 12 51  1  0
 21 52  1  0
 21 53  1  0
 22 54  1  0
 22 55  1  0
 23 56  1  0
 23 57  1  0
 24 58  1  0
 24 59  1  0
 25 60  1  0
 25 61  1  0
 26 62  1  0
 27 63  1  0
 27 64  1  0
 27 65  1  0
 28 66  1  0
 28 67  1  0
 29 68  1  0
 29 69  1  0
 30 70  1  6
 31 71  1  6
 32 72  1  1
 33 73  1  0
 34 74  1  0
 35 75  1  0
 35 76  1  0
 39 77  1  0
M  CHG  1  35   1
M  END
>  <OMEGA_C>  (41) 
NKLRQEohY79rzq7B5OPwPpcbqMBKSXTBcsXaQDdG1T6hDLLBa2WyQCcNj79fDafBFJ1QP5HqesDg
43fBOrecPxjNyMAmhn3BTKzEQPitvj+kiq3BRUycQGAYNr1ji6LB1tz0Pz8BZ8CwXILBwqIUQG/Y
vsDSLYXBZAHDQOIjRb8wmobB6f/VQLAN17/Is2rBZ83DQNZu67+w6H7BtirUQIj17D7gnoPBgzXm
QFIkIz+V6HLBO2+lQEowoT+EyaXBxK0qQJwylMAk+4bB4JLnQKp45r7Sx2TBGMixQC7iR8DBjILB
9rXSQB7dxT+dbIvB/pf4QNgt/D/ltGzBB7f+QOgKA0BekVTBCGqxQHmtCUHQKZXBfZvgQKVOBUFe
fpTBdKMJQaQ4Qj9Vw0zBTMjDQP0H7EBnUprBykFeQIKHhMCFs5nBvXyNQE/8GkCo5qDB0IiQQFpj
r0DBBJjBGeV2QDhqicDj8I3BVpGjQFa3PkC72JbB1LGKQK5RhUBs+ZHBNwaRQK6/RsCHLorB+D+q
QC4q+D8NAY/BPte6QMMPwkDhL5XB5+2+QH6YhcBPxHzBcVX0QDQLBEDMt47BraD4QNy9wr48mFDB
5iY8QCAjdkCj5pHBPNbiQKaB3L+pULLBKs/Evkvcr8CzS2rBtxXzQPKWGD/hFrjBAkirQJB8CMBi
hqTBRLZpPuL+R8BnsXDBMsx0P3wC6sAMuXrBEgTMQPggIEBTHrDBwP2DQPijb76fg5zBGRwLQG1b
JMCQuIPBjOA5QFSK2MCLvIjB5vS0QIQCZr8pgI7BTbzWQFTzIMBijF/B/8ALQV5CBkBjwXTBw4Xj
QCGKMkDIp3HBaTYJQZiFOkDRZVDBynPfQLL3CkAc0kzBObOeQJLqB0FQ7I3BNfOmQMGJFkGvWZrB
UMb1QBc7D0EWPJnB2IntQB+eAEGlzYzBvEcZQZ2RFz9uRVTB+UIMQeIjUT+xdjvBE6LFQOCF60Dd
+aLBHKMuQJh6VsAR45rBOiKLQA6OecA2nJ7BrF1CQBFKosAOw5zBZMaKQBhETUC+/qbBRTtZQP7h
BkClGJ/Bx8GQQNszq0B+sqDBGItxQJxrx0CZu5XBAzmTQA8eo8A2Xo3BbdDDQOgYVUDZ6pjBTnKU
QDxriUAFmonBMCOGQKG5DcDs8ozBz/uPQGQRuD8yaozBXLS8QNlrxUCTAo3BOozSQAjArECWPJfB
T9w2QBW8QEC+B47B3ADSQACuRr+3qq7B6nKhPtWxmsCBWnPB2LHdQLYfAz+IyrHB7t6yQATpdL+D
zabBLJA+P4+GYcAIu3bBjjt9PwCevMDdDX3BFEHKQA1Qzz8BDq3BKG6fQFJdGj76EKLBMm/sPwWC
UcB85oHBceIFQLmbtMDnD4XB4GDGQIkLNr/gZIbB5IrYQPrS2L8EsGrBVF3FQE6m5b+bw37B1Ffa
QGs29D4LV4PBOmftQH6zFz/yeHLB2R6rQGsxuD+5MKXBSFghQKitisAywIbBROnsQO9zAr8loGTB
+mywQMv8QcBSjYLBPK/aQPrIyT/IAIvBwGcBQSpW8D/QHGzBDfMEQY5r9T8+BFTBxfDHQLdUC0Hi
upPBEHv2QO9fBUE9TpPB1vQNQVmmFD9otkzBOEjXQCuL7kCKHpnBV15UQF4Ud8CbhZnBYA2WQMLd
KEBxDqDBAkCgQLlPtUBE0ZbB9+FtQL4BgsC61o3ByvStQHA/SEAxCZbBxAOYQMJVi0Cm6JDB0USP
QOh7O8BbCIrBs+uyQPTZA0A2Wo7BxuXLQNDuxEACG5TBu5G7QO23g8DYJX3BFR39QEzfAUA6Yo7B
jsH+QHUN/r7UlFDBVaRVQJYUhECXrJDBMSPhQOCy0b+HWrLBXg4Lv4buoMDeLWnBPe31QDApJz+x
6rfBnMSpQJfV+r8sXqTBpE1hPkuxLMBNLG/BXbknP05E3cD7bXrBSJPTQIymJ0Bgiq/B0i6HQACA
drig85vB8yILQLPzD8BgK4PBGR0nQF1Az8DPzIjB3o23QDAyS78mPo7BQd3XQAqKIsApv1/BhNMQ
Qadx+T/SZ3TBFmHvQFehL0DOq3DBzccPQbUnL0A30E/B9DzrQIFHBkD29UvBSIa1QOb1CUHTa4zB
rd++QBuuGEFLxZjBoU0GQW25DkGZEJjB3aIBQUgDAEEOtovBXEEdQaS+tj5CilTBke0QQTUyHD9o
czvBaoLYQAd77kACyKHBGxcoQH5JQcARgZrBYE+GQIK0asCThp7BtSQ0QDgZmMDnoZzBXJ6UQGIw
XEB6CqbBfWppQL31GECVJJ7B5pqfQKawsUC4gp/B7U6KQOK4zkCLVZTBEfqMQK5FncB2eI3BOrzO
QJ6LWkBQNZjBcJWiQLw5jkAOkYjBgCGGQJjHAMBBpIzBntGXQEYWzj/5tIvB1ojOQMWfx0An7YvB
VvvhQIU5rkCUV5bBKE9NQNa6UkDz5IzB

>  <OMEGA_E>  (41) 
z79VwetBQ8E=

>  <OMEGA_NBR>  (41) 
     16230

$$$$
50150462
     RDKit          3D

 73 76  0  0  1  0  0  0  0  0999 V2000
    6.2242   -1.6005  -21.6340 C   0  0  0  0  0  0  0  0  0  0  0  0
    0.4237   -4.8131  -15.6363 C   0  0  0  0  0  0  0  0  0  0  0  0
    7.0393   -0.4885  -21.3402 C   0  0  0  0  0  0  0  0  0  0  0  0
    4.8221   -1.4716  -21.6095 C   0  0  0  0  0  0  0  0  0  0  0  0
    0.5427   -3.6475  -16.4196 C   0  0  0  0  0  0  0  0  0  0  0  0
    1.4373   -5.7914  -15.6690 C   0  0  0  0  0  0  0  0  0  0  0  0
    6.4532    0.7531  -21.0218 C   0  0  0  0  0  0  0  0  0  0  0  0
    4.2344   -0.2374  -21.2766 C   0  0  0  0  0  0  0  0  0  0  0  0
    1.6758   -3.4592  -17.2359 C   0  0  0  0  0  0  0  0  0  0  0  0
    2.5676   -5.6085  -16.4890 C   0  0  0  0  0  0  0  0  0  0  0  0
    6.0674   -0.6013  -17.2281 C   0  0  0  0  0  0  0  0  0  0  0  0
    7.0889   -1.6729  -15.2922 C   0  0  0  0  0  0  0  0  0  0  0  0
    7.4370    0.7093  -15.6910 C   0  0  0  0  0  0  0  0  0  0  0  0
    6.3029   -1.7616  -16.4618 C   0  0  0  0  0  0  0  0  0  0  0  0
    6.6409    0.6307  -16.8569 C   0  0  0  0  0  0  0  0  0  0  0  0
    5.0461    0.8797  -20.9770 C   0  0  0  0  0  0  0  0  0  0  0  0
    2.6907   -4.4449  -17.2791 C   0  0  0  0  0  0  0  0  0  0  0  0
    7.6423   -0.4438  -14.8846 C   0  0  0  0  0  0  0  0  0  0  0  0
    5.7205   -3.0532  -16.8803 C   0  0  0  0  0  0  0  0  0  0  0  0
    6.4029    1.8200  -17.6983 C   0  0  0  0  0  0  0  0  0  0  0  0
    5.5088    7.6698  -19.1047 C   0  0  0  0  0  0  0  0  0  0  0  0
    6.4113    7.6284  -17.8713 C   0  0  0  0  0  0  0  0  0  0  0  0
    5.6545    6.3665  -18.3048 C   0  0  0  0  0  0  0  0  0  0  0  0
    3.5257   -4.1468  -19.6397 C   0  0  0  0  0  0  0  0  0  0  0  0
    8.9154    0.8181  -13.2510 C   0  0  0  0  0  0  0  0  0  0  0  0
    4.3863    2.2214  -20.6956 C   0  0  0  0  0  0  0  0  0  0  0  0
    4.1489    4.5371  -17.5477 C   0  0  0  0  0  0  0  0  0  0  0  0
    3.9153   -4.2649  -18.1594 C   0  0  1  0  0  0  0  0  0  0  0  0
    4.9019    2.9410  -19.4167 C   0  0  1  0  0  0  0  0  0  0  0  0
    3.8201    3.9508  -18.9518 C   0  0  2  0  0  0  0  0  0  0  0  0
    4.6412   -3.0560  -17.7579 N   0  0  0  0  0  0  0  0  0  0  0  0
    5.1775    1.9479  -18.3567 N   0  0  0  0  0  0  0  0  0  0  0  0
    4.4824    5.9790  -17.4990 N   0  0  0  0  0  0  0  0  0  0  0  0
    6.1793   -4.1060  -16.4484 O   0  0  0  0  0  0  0  0  0  0  0  0
    7.2928    2.6516  -17.8461 O   0  0  0  0  0  0  0  0  0  0  0  0
    3.6517    4.9556  -19.9582 O   0  0  0  0  0  0  0  0  0  0  0  0
    8.3558   -0.4411  -13.6910 O   0  0  0  0  0  0  0  0  0  0  0  0
    6.6750   -2.5511  -21.8778 H   0  0  0  0  0  0  0  0  0  0  0  0
   -0.4448   -4.9565  -15.0106 H   0  0  0  0  0  0  0  0  0  0  0  0
    8.1145   -0.5881  -21.3591 H   0  0  0  0  0  0  0  0  0  0  0  0
    4.1978   -2.3205  -21.8463 H   0  0  0  0  0  0  0  0  0  0  0  0
   -0.2348   -2.8984  -16.3942 H   0  0  0  0  0  0  0  0  0  0  0  0
    1.3474   -6.6821  -15.0649 H   0  0  0  0  0  0  0  0  0  0  0  0
    7.0792    1.6078  -20.8121 H   0  0  0  0  0  0  0  0  0  0  0  0
    3.1588   -0.1435  -21.2500 H   0  0  0  0  0  0  0  0  0  0  0  0
    1.7699   -2.5617  -17.8292 H   0  0  0  0  0  0  0  0  0  0  0  0
    3.3424   -6.3605  -16.5135 H   0  0  0  0  0  0  0  0  0  0  0  0
    5.4421   -0.6577  -18.1069 H   0  0  0  0  0  0  0  0  0  0  0  0
    7.2681   -2.5596  -14.7022 H   0  0  0  0  0  0  0  0  0  0  0  0
    7.8910    1.6486  -15.4119 H   0  0  0  0  0  0  0  0  0  0  0  0
    4.5627    8.2302  -19.0752 H   0  0  0  0  0  0  0  0  0  0  0  0
    5.9523    7.7516  -20.1080 H   0  0  0  0  0  0  0  0  0  0  0  0
    7.5038    7.6811  -17.9879 H   0  0  0  0  0  0  0  0  0  0  0  0
    6.1143    8.1597  -16.9551 H   0  0  0  0  0  0  0  0  0  0  0  0
    6.2500    5.5657  -18.7675 H   0  0  0  0  0  0  0  0  0  0  0  0
    4.4325   -4.0177  -20.2488 H   0  0  0  0  0  0  0  0  0  0  0  0
    2.9998   -5.0602  -19.9543 H   0  0  0  0  0  0  0  0  0  0  0  0
    2.8653   -3.2778  -19.7767 H   0  0  0  0  0  0  0  0  0  0  0  0
    9.4485    0.6707  -12.3002 H   0  0  0  0  0  0  0  0  0  0  0  0
    9.6173    1.1926  -14.0106 H   0  0  0  0  0  0  0  0  0  0  0  0
    8.1058    1.5489  -13.1079 H   0  0  0  0  0  0  0  0  0  0  0  0
    4.5682    2.8806  -21.5571 H   0  0  0  0  0  0  0  0  0  0  0  0
    3.3048    2.0550  -20.5832 H   0  0  0  0  0  0  0  0  0  0  0  0
    3.2725    4.3742  -16.9032 H   0  0  0  0  0  0  0  0  0  0  0  0
    5.0084    3.9808  -17.1454 H   0  0  0  0  0  0  0  0  0  0  0  0
    4.5689   -5.1413  -18.0389 H   0  0  0  0  0  0  0  0  0  0  0  0
    5.8219    3.4912  -19.6636 H   0  0  0  0  0  0  0  0  0  0  0  0
    2.8776    3.3921  -18.8544 H   0  0  0  0  0  0  0  0  0  0  0  0
    4.3423   -2.1806  -18.1378 H   0  0  0  0  0  0  0  0  0  0  0  0
    4.4387    1.3273  -18.0941 H   0  0  0  0  0  0  0  0  0  0  0  0
    4.6637    6.2249  -16.5468 H   0  0  0  0  0  0  0  0  0  0  0  0
    3.6918    6.4932  -17.8314 H   0  0  0  0  0  0  0  0  0  0  0  0
    3.4538    4.5414  -20.7899 H   0  0  0  0  0  0  0  0  0  0  0  0
  1  3  2  0
  1  4  1  0
  2  5  2  0
  2  6  1  0
  3  7  1  0
  4  8  2  0
  5  9  1  0
  6 10  2  0
  7 16  2  0
  8 16  1  0
  9 17  2  0
 10 17  1  0
 11 14  2  0
 11 15  1  0
 12 14  1  0
 12 18  2  0
 13 15  2  0
 13 18  1  0
 14 19  1  0
 15 20  1  0
 16 26  1  0
 17 28  1  0
 18 37  1  0
 19 31  1  0
 19 34  2  0
 20 32  1  0
 20 35  2  0
 21 22  1  0
 21 23  1  0
 22 23  1  0
 23 33  1  0
 24 28  1  0
 25 37  1  0
 26 29  1  0
 27 30  1  0
 27 33  1  0
 28 31  1  0
 29 30  1  0
 29 32  1  0
 30 36  1  0
  1 38  1  0
  2 39  1  0
  3 40  1  0
  4 41  1  0
  5 42  1  0
  6 43  1  0
  7 44  1  0
  8 45  1  0
  9 46  1  0
 10 47  1  0
 11 48  1  0
 12 49  1  0
 13 50  1  0
 21 51  1  0
 21 52  1  0
 22 53  1  0
 22 54  1  0
 23 55  1  0
 24 56  1  0
 24 57  1  0
 24 58  1  0
 25 59  1  0
 25 60  1  0
 25 61  1  0
 26 62  1  0
 26 63  1  0
 27 64  1  0
 27 65  1  0
 28 66  1  6
 29 67  1  6
 30 68  1  1
 31 69  1  0
 32 70  1  0
 33 71  1  0
 33 72  1  0
 36 73  1  0
M  CHG  1  33   1
M  END
>  <OMEGA_C>  (42) 
0izHQFTczL9nEq3Bqu/YPqwEmsAmLnrB0UHhQBIc+r7AuKrB3E6aQJBevL824KzB0PAKPzJxacBa
W4PBdvq3P2VTucBMtHrBboDOQCTOQD+uLKjBKoCHQI8fc76INqrBt3/WP0ljXcAX44nBvlIkQDh5
s8Bp6YPB2yfCQMvsGb8104nBVdjiQGoh1r+1rHTBIvztQFiSNT9PDnvBkLHJQGh94b+7sYPBRILU
QPh2IT/W2obBUHmhQA03YT/60KfBqzMsQMs8jsCWO4rB7o30QFg6474vJ27BZg63QENnQ8DzCofB
weTMQCz26D8Plo3BPUiwQMxu9UB41pjBWinNQP8b9ECG+I7BifG0QIW6y0BVcJLBY6VhQGiyhMAM
Hp3BWqUOQSVuUT9ABFTBjFyMQAArDkCPkKXBzMOEQPkvkUCwYYzBgZN6QLh5iMB0RpHBNtycQKs5
PEBqVZvBj3x0QFDZfEA/nZfBbYSUQK+VQ8AnEI7Baa6lQKBT+T+b2pLBCHCPQI9Tv0Dw/YvBxbzF
QItkg8BWloPBqV7pQIO0KUDDxI7BLrZpQDGUnkBcqp/Bb7EFQVnS4b55DlvBx5nVQHpFI8DLBa/B
fL/jvm2bnsBHK3DBC9UBQUyPFr+C36rBTVSGQMmCFMAixa7B0W5wvnF/OcBoJ4PBO3asP+rT1cDD
CXHBxojiQKvNzT8Xf6bB/SlKQPD8Er4CAKrBNY3iP83yI8A9oo7BVulVQFuJy8CdG4TBkiWuQA1e
KL/w2pDBHpToQEDQI8AmPGvBwYL8QOoG0z8Tl3bB7gGSQNSuA0EFmpjBTXm+QCQN+EA93aDBYh/w
QOHL9UBK54/BA6jDQDKOAkESpIfBGADIQBMaskDDI5bBLteNQP2QgMCT/aHBYfw/QHntocBcop/B
pWE3QJbHUcC2Np7BHC0XQd+zKz+8zUTBhuAZQUiomD+NK2DBQ7EBQbZBxj/HuVHBFi+SQAVcOEAL
dazBkYFTQJWEA0BYqqTB2nBRQEn5i0C5OYfBtkSgQNDFfkDPKYnBwjSSQJSFpMCST5DBuEy6QGtv
X0AQT53BKSo4QHoXWUDH1ZbBSfSKQAmPC8BGGpHBDwqOQFzjqT+pwJDBDj2VQMUyx0DmX4TBY0Zs
QPjHz0Czpo7BYQtdQOBSkUC1UabBiCbJQL/8gL95Ba3BVgAqPt5ol8DbOn/BSDzkQGyCvz0MI6vB
J4mcQHZlXL9P6avBL3C9Pld3X8A6uITB3tmOP8JmuMA8wYDBgMjSQFJZqz/LHajBEwqLQFRTwT6E
tajBmdHCP2sgUsBr/orB1EERQGbJscC0AYfB4jrCQI2hJb+7QInBZT3cQDox8b/menPBPHPtQECq
9D6+bXfBw3TFQE7V7b/2gIPB17TWQGP3Az/Nb4XB9hGmQB48vj+9t6bB2HYeQOEtisDbMIzB9arv
QB8hOL9dXWvBevewQBleRcDDpYfBherTQDas4j/mfovBLs2+QP+u80CwRqXBBxGeQOyFB0G2G5/B
nyzAQCVl9UB3AJnBoKxWQA6+dsAEvp7BNxwKQRyM1T4aaE7Bs0+TQP7HM0B8gqLB5naPQHiUtUDS
VpbBsgtuQIOkg8AV/pLB2x2pQOB4T0CoyZfBWPKPQHxEiUDsCZHBC5+PQKcsPsCD9I7Bsc+uQBf0
AkA+JJHBO+K0QJjGzkC2h5LBFw29QAHyhcC4j4TBN5LxQHbDJEBkQovBGfhJQE82d0DzhY/BH/YB
QUB7T7+colfBfYvWQPkM+787T6/B8Ps3vzWInMDYp3XBkTgDQYeVgLysAazBp6mHQJ1Z2b+ug63B
0MK2vt3aLMCP0oPBhKJ1P5nI1sDsqXnBYarnQDfUC0Dg3KbBwa1RQCm+9T7exafBP7LWP1hDFcBS
5Y7BY+U/QHATy8B41ofBRgiwQNpfHL+ml5DBCsneQJ3UM8CNqmrBH079QBAPrz+CrXHBF220QMJD
1kBXWqnBhRrYQF6hAUGS/qnBcPufQA4WGUHvap/BA5x4QJGWAkGzxp7BDV7aQLZ3BEEzu5XBe7+I
QLSRbcB6cKPBxP8yQATxlsBu6aHBtsEuQAzsPMCCS5/B2KwRQebGSz465z7BpAAWQdA/XD9fRVnB
1a35QKDqjz+6CkzB7GWYQG0bZkDMh6jBX5dhQCh4K0BnIaHBrzqRQJ7lsUBoFJ/BpHVjQKhexkAJ
NJTB1caKQJq6oMC6kpLBmafIQK2takCwtpnBjPOfQOY3jEBcPInBDviHQBXHA8CInJHBKpuWQGeJ
sj8vqZDBy1HOQB5cu0CTepLBSqOuQCt92EC4EYvBkp9JQAddQECEPozB16XHQFAaVr+/za3BCGkL
PxOQo8AFK3jBu0TcQGVEzj7EU6zB1zibQOr6cb/qF6zB07caPwJCeMDIiIHBVDjJPx7xwcCs33rB
QZ/EQOHiwz81DqnBoZaDQDIBNT7GpajB+CbYP68/ZsDNYIjBzBwqQMj7uMAQQYTBUhrBQBTNIL8T
UInBWfbhQPXe3L8I73PB5ADsQCjNKj9Yc3nB8N7IQF9b5r/JW4PBseTSQJ6wGT+8EYbBFkiYQOah
tT/cAKfBmvstQF6ukcDuzonBXyHzQFvk/b7Q+2zB+ma2QO1fRcAL7YbBEtLJQEow6D/eP4zBatSi
QIncBkEze5fBEKjQQOZyAUFG1JPBqSizQDHF30AcDpjBDqFaQENVgsAp15zBbpgMQdphST/VGlLB
vH9/QKVdJkAzNqLB0NxyQNdgrUAkBpTB5+F4QG/MiMDgQJHBPTCVQEUQRUBvk5fB2u9wQHD5fUCx
TJDBQjmTQG6JRMABwI3BBGSiQBZD9T97S5HBT+WhQGivwEATZJDBwr7FQBudhMA20YPBHOzjQFG9
LkBIjIzBNa0aQGd9YUAQXJDBqwYFQblj/L5w7VnByd/ZQHnT2b9gPrDBmuaTvnd/qsBbvW3BWUb+
QKEo+j7dtK3Bsz+LQAm58b/va63B4245vs2XScBnd4DBIW7DPz4f4MBDfHLBW27UQB/xHkCNHKjB
gTFDQKmPsz1pQqfBZfPdP/27KcCTiYzBCp1cQCNA0MCmPIXBFmatQM4zLL/qZpDBTQ/oQMDOJ8Cd
ymrBkeL5QPHnzT+tmXTBQmWKQLVJC0HGi5HBb6OdQOkJEEGQ4J7BITvsQAu/BkFlnZjB9PzYQNb+
AUGbSIvBNZ26QEPO00BaHqDBrBqJQDr7d8D2AKLBbaY5QJlgn8CWnp/BNVkuQCwCTsBCMZ3B0VYV
QVLZIz/5AkPBFlMXQSKPnj/jCF7B4Lv9QBz2uT9uVU/Boy9/QLiBW0DK+6fBj0s9QO6AEkBriqDB
4h9vQPamrkBJzpzBsHE8QEHnvkBTkJDB41iSQHlWpMAbCZHBIruxQLSKakAHt5nBVVWFQNsWe0DG
HYjBd9qIQM/nC8BfbZDBQOWNQICYkz/+mJDBuG63QCFkqUDrV4/BcbicQE6Qz0BrbYnBWVAYQHyb
J0BtDY7B6fPGQM7zrL+wnK7BhO7cPlcKmsAl+XjBSRrfQBziM74DNa3BRC+aQBAHqb/9Ta3BsPEN
PzQLZsCSDoLBptK2P8SmucDk/nrB9YDKQDabgz8VearB6paFQEygAL6jTKrB6h/WP8FGV8B/qojB
d/MiQJtcssBEGYTBTovEQPefFb8bbYnBOmTiQKQx0L8GC3PBvnvvQJphPT9GI3rB6h7KQHSr3L+O
CIPB/kHXQAhDJD/Gh4bBOa+dQDS/hj9CxqjBH/IqQEd4i8CMwInByLT0QEqQyr6Hx2zBKmG2QIe0
P8CybYbBmw/QQNI95z/7Xo3BHrjCQEzc9ECJ3pTBOvunQJXcAUFsN4vBKZmkQObe1UBaII/BL3Jc
QJDwfMAZqJzBqukMQcgFbj+JH1LBi8aHQFRCFEBTuKTB9iKAQBmPpEDOY5vBAe53QCmIhMCZ9ZDB
jWWgQAVMOEAc8prB29OHQF6LekDUdJTBYMWTQCpaPcCCc43BpIarQApj5z/EoZPBltJ3QJLXyUBr
W5TBZo7EQOsDgsBKKIPB61XpQCa8L0BJeY3BbDNAQGJkW0DxcJDBFG4FQR55ub7mglnBjb3WQHmr
EcD5sLDBCq/avgG2n8Dc4W7B9rQAQSeNSr4YOq7BvZmHQDLYDcCGnK7B9JhVvsiLNcCrQoHBD9qq
Pwx/18B0aXLBIOzcQErd9z+uqqnBEatGQIku470rKanBfVviPy5bG8CL54zBFdxTQEeaysCq1oTB
Y66xQFdRJr+epZDBMPvmQMYkIMCmMWnBCxr+QCkF1z9ByXXBqe66QE0sAEHm9JzBaZblQCMg8UB5
G5TBusG3QO9dBUEljIPB+hmNQCv6DEGTZYzBCQe0QGhuvUB0GorBTreKQIEMc8B2rKHB7vY5QKgh
m8AVZp/BMzoyQLnSRMANR53BSlkVQen/Tj+EzELBNuYXQQ7nrT/jCV7Bu1X+QLUtzT/X7U/B6FSH
QBV9REAtIavBl4FNQC0BBUDhV6LBN1CbQLUuqUCk3KDBcDZFQDxXoEDJD6DBRMmQQLfYoMD7eJDB
duy9QDJnVkD+6J3BbyecQNP9hkD6sY3B5pqKQBhZBMCARpDBV7CXQOhUgz+RFZPBC71MQPMdw0Bv
r47B4lVjQAqo4kALtpjBGRtKQEBeKkCoHozB6WHEQCwByL+bda3B457MPtDNmcC863rBrz/fQHDV
575IqKvBsJ2XQBhAtL+YAq3BWQMDPyjSasD0DoTBeSe5P5fyt8A3KHrBqmbNQO7iTz+Ya6nBorWF
QACxGL6+pqrBHdbVP6hKXsB3SIrBypomQF7ZscAgU4PBdG3DQCjwCr94yonBwKnhQAaCwr+MKnPB
FuTsQC9pWD/iFHvBpQfKQGhE1b/vK4PB5NDUQBwhNj/hDofBNIGgQMz/dz/O2KjBPRIuQBSLjcCi
/InB5ozyQNRDgr7gM23BzFe3QF5dPsASNobB/bjMQGKi7z8TFY7BXlKvQD67x0ARWorBynW3QMt6
80DOjI/B7QWPQIQ42kAhUZLB7RNoQIINhcA8r5zBfSQBQX5cgb8DKUnBA62MQPBvFUDhiKbBlgpa
QNkqo0BBy53BtUV+QPehh8DOuJDBVVebQLZBPkArr5vBofpvQB4ZeEDEuZbBIrGVQG+/QMDLiI3B
rGWmQHyP9j8iz5PBcaCMQEF2xkBlCJ3BJ+PEQORMgMCdK4LBsYznQDLHMECs247BiBUjQJx9SEDB
eJXBjhUEQRCIAb0tD1rBsxvSQNLrIcC/Lq/Bu0T6vh6XnsBhZHHBc8kAQVRIEr+R/avBswCDQHJa
EMCBea7BxdWUvjmePMBbWITBeFKuP4HA08De+2/BwBPiQPbP1D+PJKjBpMJGQH0RF70LOKrBvhDh
P2c5JsB3SY/BaNVZQI0EycCmBIPBHtmwQIIcJb+0B5HBdObmQIsbGMDS+2jBPhf7QFUw5j/VHnfB
9gzDQJIBrEB+mozBwSqnQH+4xUBWzoHBJie1QFBrCEHHuorBWwnRQLMf90DvhpXBtPFhQEVY5kBS
4Y7B1o6RQNrJgMCuW6HBhBdIQPPJosAeLJ/ByB09QJx4U8DMFZ7BjYUKQU2tNr/bCzvBDTLgQOYz
iL/J20TBQ5MGQRmJ/7+7xU7Bt5OVQDVAQUCtDa3BbFtTQMEPDkAOVqbBduJWQLmKmECXLKbB8Ckb
QKaJr0DrUpvBs0CUQAhXo8AGdo/BBLC3QAATZkCsP53BvlCDQK6ih0DP6Y7Bd0+MQLeECcCY05DB
duGQQEI2mj9RfJLBh4qEQMsa3UDjT6LBZIGpQHbRukCg4J7BJdUtQCKdF0DeJ5HBE9PJQI5Ygb9C
AK7Ba1TkPq3jnsB83HjBa3bfQGxFYT4sHa3BpUOdQD6siL+/VqzBU7AJP7+5ccBycoLBsUa9PyJ+
vcAX5nnBP7fIQJzvsT8ieqrBk4SGQNg5yj0tfanBQarUP1PiYsBl/4jBNZEmQGMntsAifoPB+N3B
QGW2E79CpYnBUuXfQAaczL+FLHPBShrtQNazQT+UvHrBr/7HQMCP2787J4PBjL7UQLGvJz+p2IbB
LEmcQGSsqj/SZ6jBs6ssQBczkMDqlInBtNjxQDZqtL54CW3BwmS1QJgdQcBwV4bBq8rNQLoI6z8w
p43BsDPWQFiQAkGtmJvBduq6QCRv9kAWKaXB3vioQHOq80D1xJnBB/dfQKSDhcCAiZzB0e8BQQrr
l7/JtEnB7RCFQNOGJEBWHaTBx+R/QA1PsEDxUZjBWTl6QAb/iMAiuJDByu6bQCwTR0BQ1pnB6i+B
QKTZg0A1JJPBW3eTQNUwQ8A8j43Bkc+mQFZ3/D+V5pLBC02lQIJLyUDDopTBjrfDQL/ggcDflILB
jXfpQLTvLECIVY7BU+8sQM8zakAq7JHB8dwDQcRcHr766FnBQFvbQMxQ9L+y86/B1/7UvsqSpMBq
2G7B3cgAQUtTiD5wda7B5n2MQE1VAMAMP63B66WBvk7IQsDDCYLBtE60P2ma2sAjp3DBfU7ZQN5/
FUAECarB7thIQPh6Sj2fIajBlKbdP+B1KMCQlI3B6TZZQKWgzcC/2oPBaZ2uQJdWJr8RzJDBHIfk
QFzQHcAlJGnBc0D8QJTT2D92snbB0zDyQHA+8kCqG5nBmtjcQImuE0EUZ5rB8AiuQAsUB0HuzqrB
KmHDQHUJ2UCDg6nBg3qQQNjFBUHisZfBFJ+MQPtTgMCQfKHBdR9AQPxHo8DcB5/BjLUzQIXiVMCU
jZ3BPFQLQc4IZ7/JiDvBQQ3iQIampr/MMEXBx/0HQXPlCMBbHFDBHh+FQKSwVkDzSarBsrlHQC1i
E0DzIKLB6AmBQKUGrUDVE6HBAJdEQLzUwECb/ZXBlOuSQPdmpMA014/B8JS5QHxAZ0DwWZzB21yQ
QBjihkDQPIvBBsKJQI3nC8DWxpDBUOSQQJqXoD+F5pHBmtO/QD+YuEAFP5bByMqiQOKNzUBYu4zB
gkwtQDMSM0Dpt47B

>  <OMEGA_E>  (42) 
6CQhP8Ytej96eWg/sDBoP/6pZz+gemc/

>  <OMEGA_NBR>  (42) 
     26543

$$$$
50150469
     RDKit          3D

 84 88  0  0  1  0  0  0  0  0999 V2000
    6.3203   -1.6014  -21.5425 C   0  0  0  0  0  0  0  0  0  0  0  0
    0.2559   -4.2663  -16.0030 C   0  0  0  0  0  0  0  0  0  0  0  0
    7.0611   -0.4213  -21.3383 C   0  0  0  0  0  0  0  0  0  0  0  0
    4.9141   -1.5701  -21.4778 C   0  0  0  0  0  0  0  0  0  0  0  0
    0.6373   -3.1769  -16.8108 C   0  0  0  0  0  0  0  0  0  0  0  0
    1.1126   -5.3769  -15.8617 C   0  0  0  0  0  0  0  0  0  0  0  0
    6.3944    0.7902  -21.0735 C   0  0  0  0  0  0  0  0  0  0  0  0
    4.2460   -0.3688  -21.1807 C   0  0  0  0  0  0  0  0  0  0  0  0
    1.8739   -3.1991  -17.4805 C   0  0  0  0  0  0  0  0  0  0  0  0
    2.3520   -5.4009  -16.5294 C   0  0  0  0  0  0  0  0  0  0  0  0
    5.9900   -0.6029  -17.1611 C   0  0  0  0  0  0  0  0  0  0  0  0
    7.0428   -1.5498  -15.1844 C   0  0  0  0  0  0  0  0  0  0  0  0
    7.4153    0.7848  -15.7635 C   0  0  0  0  0  0  0  0  0  0  0  0
    6.2380   -1.7143  -16.3274 C   0  0  0  0  0  0  0  0  0  0  0  0
    6.5727    0.6448  -16.8695 C   0  0  0  0  0  0  0  0  0  0  0  0
    4.9808    0.8163  -20.9753 C   0  0  0  0  0  0  0  0  0  0  0  0
    2.7353   -4.3134  -17.3424 C   0  0  0  0  0  0  0  0  0  0  0  0
    7.6744   -0.3137  -14.9377 C   0  0  0  0  0  0  0  0  0  0  0  0
    5.6971   -3.0395  -16.6766 C   0  0  0  0  0  0  0  0  0  0  0  0
    6.3519    1.7793  -17.7517 C   0  0  0  0  0  0  0  0  0  0  0  0
    7.9533    0.2112  -11.5974 C   0  0  0  0  0  0  0  0  0  0  0  0
    9.0136   -0.7775  -11.0335 C   0  0  0  0  0  0  0  0  0  0  0  0
    6.0797    7.5152  -17.5757 C   0  0  0  0  0  0  0  0  0  0  0  0
    4.9876    8.1277  -16.6798 C   0  0  0  0  0  0  0  0  0  0  0  0
    8.4222    0.8850  -12.9045 C   0  0  0  0  0  0  0  0  0  0  0  0
    9.2651   -1.9820  -11.9750 C   0  0  0  0  0  0  0  0  0  0  0  0
    5.1976    6.6261  -16.6949 C   0  0  0  0  0  0  0  0  0  0  0  0
    3.8570   -4.3907  -19.5852 C   0  0  0  0  0  0  0  0  0  0  0  0
    4.2358    2.1053  -20.6641 C   0  0  0  0  0  0  0  0  0  0  0  0
    4.6987    4.5389  -17.7363 C   0  0  0  0  0  0  0  0  0  0  0  0
    4.0635   -4.3449  -18.0665 C   0  0  1  0  0  0  0  0  0  0  0  0
    4.8695    2.8381  -19.4731 C   0  0  1  0  0  0  0  0  0  0  0  0
    3.9760    3.9583  -18.9460 C   0  0  2  0  0  0  0  0  0  0  0  0
    8.6235   -0.1562  -13.9403 N   0  0  0  0  0  0  0  0  0  0  0  0
    4.8046   -3.1345  -17.7319 N   0  0  0  0  0  0  0  0  0  0  0  0
    5.1315    1.8773  -18.3978 N   0  0  0  0  0  0  0  0  0  0  0  0
    4.1680    5.8253  -17.3458 N   0  0  0  0  0  0  0  0  0  0  0  0
    6.0494   -4.0406  -16.0603 O   0  0  0  0  0  0  0  0  0  0  0  0
    7.2450    2.6031  -17.9273 O   0  0  0  0  0  0  0  0  0  0  0  0
    9.7012   -2.4663  -14.5444 O   0  0  0  0  0  0  0  0  0  0  0  0
   11.0673   -0.6591  -13.3989 O   0  0  0  0  0  0  0  0  0  0  0  0
    3.8282    4.9478  -19.9640 O   0  0  0  0  0  0  0  0  0  0  0  0
    9.7896   -1.3602  -13.5785 S   0  0  0  0  0  0  0  0  0  0  0  0
    6.8308   -2.5305  -21.7488 H   0  0  0  0  0  0  0  0  0  0  0  0
   -0.6949   -4.2506  -15.4910 H   0  0  0  0  0  0  0  0  0  0  0  0
    8.1398   -0.4455  -21.3847 H   0  0  0  0  0  0  0  0  0  0  0  0
    4.3468   -2.4715  -21.6568 H   0  0  0  0  0  0  0  0  0  0  0  0
   -0.0191   -2.3257  -16.9158 H   0  0  0  0  0  0  0  0  0  0  0  0
    0.8180   -6.2100  -15.2408 H   0  0  0  0  0  0  0  0  0  0  0  0
    6.9609    1.7007  -20.9451 H   0  0  0  0  0  0  0  0  0  0  0  0
    3.1684   -0.3543  -21.1098 H   0  0  0  0  0  0  0  0  0  0  0  0
    2.1664   -2.3648  -18.1008 H   0  0  0  0  0  0  0  0  0  0  0  0
    3.0088   -6.2512  -16.4193 H   0  0  0  0  0  0  0  0  0  0  0  0
    5.3513   -0.7100  -18.0253 H   0  0  0  0  0  0  0  0  0  0  0  0
    7.1766   -2.3711  -14.4959 H   0  0  0  0  0  0  0  0  0  0  0  0
    7.8667    1.7416  -15.5464 H   0  0  0  0  0  0  0  0  0  0  0  0
    7.0239   -0.3420  -11.7975 H   0  0  0  0  0  0  0  0  0  0  0  0
    7.7612    0.9912  -10.8459 H   0  0  0  0  0  0  0  0  0  0  0  0
    9.9608   -0.2361  -10.8934 H   0  0  0  0  0  0  0  0  0  0  0  0
    8.6608   -1.1566  -10.0630 H   0  0  0  0  0  0  0  0  0  0  0  0
    5.9564    7.5058  -18.6687 H   0  0  0  0  0  0  0  0  0  0  0  0
    7.1418    7.6581  -17.3278 H   0  0  0  0  0  0  0  0  0  0  0  0
    5.2692    8.7132  -15.7922 H   0  0  0  0  0  0  0  0  0  0  0  0
    4.0838    8.5609  -17.1331 H   0  0  0  0  0  0  0  0  0  0  0  0
    7.6590    1.6005  -13.2446 H   0  0  0  0  0  0  0  0  0  0  0  0
    9.3690    1.4157  -12.7265 H   0  0  0  0  0  0  0  0  0  0  0  0
   10.0513   -2.6246  -11.5519 H   0  0  0  0  0  0  0  0  0  0  0  0
    8.3381   -2.5631  -12.0884 H   0  0  0  0  0  0  0  0  0  0  0  0
    5.6845    6.1960  -15.8072 H   0  0  0  0  0  0  0  0  0  0  0  0
    4.8350   -4.4129  -20.0883 H   0  0  0  0  0  0  0  0  0  0  0  0
    3.2877   -5.2937  -19.8506 H   0  0  0  0  0  0  0  0  0  0  0  0
    3.2998   -3.4983  -19.9065 H   0  0  0  0  0  0  0  0  0  0  0  0
    4.2678    2.7605  -21.5470 H   0  0  0  0  0  0  0  0  0  0  0  0
    3.1896    1.8660  -20.4228 H   0  0  0  0  0  0  0  0  0  0  0  0
    4.5926    3.8415  -16.8923 H   0  0  0  0  0  0  0  0  0  0  0  0
    5.7642    4.6560  -17.9834 H   0  0  0  0  0  0  0  0  0  0  0  0
    4.6294   -5.2345  -17.7528 H   0  0  0  0  0  0  0  0  0  0  0  0
    5.8210    3.2791  -19.8049 H   0  0  0  0  0  0  0  0  0  0  0  0
    3.0019    3.5486  -18.6406 H   0  0  0  0  0  0  0  0  0  0  0  0
    4.6598   -2.3236  -18.2988 H   0  0  0  0  0  0  0  0  0  0  0  0
    4.3936    1.2633  -18.1175 H   0  0  0  0  0  0  0  0  0  0  0  0
    3.4073    5.6885  -16.7113 H   0  0  0  0  0  0  0  0  0  0  0  0
    3.8414    6.3071  -18.1589 H   0  0  0  0  0  0  0  0  0  0  0  0
    3.3766    4.5705  -20.7098 H   0  0  0  0  0  0  0  0  0  0  0  0
  1  3  2  0
  1  4  1  0
  2  5  2  0
  2  6  1  0
  3  7  1  0
  4  8  2  0
  5  9  1  0
  6 10  2  0
  7 16  2  0
  8 16  1  0
  9 17  2  0
 10 17  1  0
 11 14  2  0
 11 15  1  0
 12 14  1  0
 12 18  2  0
 13 15  2  0
 13 18  1  0
 14 19  1  0
 15 20  1  0
 16 29  1  0
 17 31  1  0
 18 34  1  0
 19 35  1  0
 19 38  2  0
 20 36  1  0
 20 39  2  0
 21 22  1  0
 21 25  1  0
 22 26  1  0
 23 24  1  0
 23 27  1  0
 24 27  1  0
 25 34  1  0
 26 43  1  0
 27 37  1  0
 28 31  1  0
 29 32  1  0
 30 33  1  0
 30 37  1  0
 31 35  1  0
 32 33  1  0
 32 36  1  0
 33 42  1  0
 34 43  1  0
 40 43  2  0
 41 43  2  0
  1 44  1  0
  2 45  1  0
  3 46  1  0
  4 47  1  0
  5 48  1  0
  6 49  1  0
  7 50  1  0
  8 51  1  0
  9 52  1  0
 10 53  1  0
 11 54  1  0
 12 55  1  0
 13 56  1  0
 21 57  1  0
 21 58  1  0
 22 59  1  0
 22 60  1  0
 23 61  1  0
 23 62  1  0
 24 63  1  0
 24 64  1  0
 25 65  1  0
 25 66  1  0
 26 67  1  0
 26 68  1  0
 27 69  1  0
 28 70  1  0
 28 71  1  0
 28 72  1  0
 29 73  1  0
 29 74  1  0
 30 75  1  0
 30 76  1  0
 31 77  1  1
 32 78  1  6
 33 79  1  1
 35 80  1  0
 36 81  1  0
 37 82  1  0
 37 83  1  0
 42 84  1  0
M  CHG  1  37   1
M  END
>  <OMEGA_C>  (43) 
/D/KQDj6zL8EV6zBsgODPo+FiMA6BoDBrfThQEmx177GtKrBokCdQJn4yL900qvBqCYjP3BSS8Ce
fIbBNWqOP2IPrMCpyX3B5J7MQPRHSj+BlqjBAd+HQGrNvL4CcqnB5tvvP1q9TMAc2IvBSYcWQGbU
rMA7PITBdK6/QIJXGr/fSYnBxV7hQA9gxr9083LBVkrtQIDmSD9RN3zBFp7HQCFv2791noLBn1PS
QAATJT+z9IbBVGKfQDr3UD9SzafBYA4vQFwHisBMvYrBjJT1QIyaoL7DAG/Bo062QAeHQsCtaYXB
m0LLQHjB4z9nA47BrIH+QAZRWD7NjjnBojcQQW4JR79oiTDB5ozCQG188ED+mozBWJqfQBsLAkEy
cIXBJcEGQQaOYj+9eE7B/D0UQQ+x/b9mmT/Bj1KmQPMI1EAPj4XBxdh2QKqAjMCNrpzBfYuHQF29
BkD7T6XBGlyWQPY+kUDt443BcwiCQBwJi8AyiJDBqdKbQBikNUD4yJvBX3Z+QJpUfUBukZfB0/kJ
QafuH76XC1/BZL+ZQACcSMD+2o3BIDWkQGJL8D+pLpPBemCFQKNoukA3xIrBmJTBQKFMgcB8e4DB
/tbnQN2ZJkAFa4/BBzgbQQDYHcDntWjBjxMxQW67KL/VYVbBxAF1QCxUnkBTtp/BT6IcQR4crr+O
QVnB8ZXaQKXzIcB7/a3BaeIxv7EEiMD12nfBzzwCQQQZ5L7rE6vBYhmLQMcsHsAuQa3BE6icvNnY
FMB2U4fBoGpRPyS4xsBM2nPBcL/eQGSv2T+Ej6fB+8ZKQP9itb7x4KjB56YKQCZYF8B3zpDB849A
QJkJyMC0WoPB/j2rQAzFNb/hM5DBFKflQJK/F8Bk72fBr7v7QHbt3j8lvnjB5MPgQNcgr76FwjzB
dVv4QLm+fT+kiC3BcF8fQae7cb5WSy7B0ZIKQecJlL81AiHBhJq+QHUv8ECBWZXBz4nkQD8P9UA8
n4rBsZ2oQENpC0GxrHzBZq6CQF75CEGdEInB4Bb1QNvdzD+/6VPBm+cVQTo3tT+ln0vBB9IgQav5
J8CI1DjBxWgFQZ0JJMAKakHBkue1QJpFxkBX6nzB7LeaQMg2jcDWtKDBGWlSQDdmqcARzp7BKi9T
QN7kX8BtQJ/BAJKIQLmsMEBPYKzBCCJMQI7Y7j/0YaPBRfaSQFnadUCHI4fBe3S4QFT+lEDw3Y/B
1SOUQOyAp8DNBY7B70W6QDrdUUBYcJ7B4x5AQCAcY0DgH5XBLh2VQCW1FMD9Y5LBbZiMQDe0oT+o
8JDB2hBaQH0ItkDNsIXB4dl1QLnTyUCARZHBqhpYQHBBkkC1raXBzFvNQPNPpL/0y6vBHlu4PgcL
nsCkq3rB7i/lQFD5wr1dwarBv2egQKEOn79BBqvB+b0APxCEb8DDLoPBWkywP0E6vcBPQHvBuxvQ
QNnwkD9/8ajBQ0uLQGDpp7z//ajB8prUPxxkYcDaWonBe1siQL43tsCPxoPBWuK+QEbSCr+Es4nB
xIfdQO+Iwb92FHPBSvTqQC5wUT/c03vBQyLFQAmZ1L9I84LBTx7SQACVMT+kHofBmPaiQODTlj/0
4afBV6ArQIsLkMCgtInBokzxQMhGjr7Jcm7BMn2zQCq1PsBR14XB4JnNQG5Z7T+ZA47B8lbtQE7d
Qj6WejnB2LYGQW61SL/omC7B6UXRQIpxA0HmnaLBw+2sQN5h+kBhTKrBPsQAQQQAaT+A1UzBZFYN
QT9X+r8LZj3B+COnQJgh9UB1Lp7B+fVkQGuwhsBuaZzB6g+MQILSH0Ai76TBp22BQGdesECRI5vB
Dzl7QORRicACeZDBlPKfQERlSEA7r5rBePWEQGekhkBoxZTBQlgGQTDUy721Rl3BbtSSQLQOQ8Au
VY3BdRqnQHJZA0BDE5PBJ6KoQJzvyUBhXZnBJ/3BQOwEgMBOw4HBSunqQGaeKkCly47BvywZQVqh
F8DEnmXBe0AsQR6AEb9DM1DB1k42QM48bkAZhpLBbYIYQXPCpL8KsVXB6n3dQPtEDsCdLq3Bi44H
v4B8o8D3QXHB2dMDQfd7/L0yWKvBawaOQOqMCcCH/avBahmNvh6mP8C87oLBj0OiP+uG2sClQXLB
oYLiQILKAkBDXKjBPbdRQOOWXrmMR6jBS5DiP2WmJsD70o3BCkxUQLAZzsDN9IPBb3SrQD4zIr8j
z5DBXhXhQIv+FcAxM2jBwln5QOVu4j8n6nfBvFbRQENLw75Z9j7BOyDjQMp9cT+qtS3BYicVQTiD
Yr5CGyrBHmX+QHBhmb8WISDBxZLuQAtv80ABQaLBFnXZQPllFEFicKHB5RebQE2rCUFxna7BlTWw
QLX53UAPbq/Bu4fqQKWr0D/AhVPBYk0PQXaWuD85u0fBGloZQT0LJcCaRTXBDmv+QJpIJMABNkHB
NPuRQI5QBkGzUJrBG+uPQA3TgcCsFKHBSP5FQKWkpMD1757BgxE5QCtuV8Dbxp3BVzaPQPgnTUDa
nqvBxfdTQDiPEkBle6PBxjh8QDcQqUAQtaPBzaNKQDaKwkAXapjBonqTQPNypMDqOY/BMNO+QDU8
ZUBd45zBS1aVQGftjUCZMo3B8TmJQA6hDMAOypDBOPKOQKzRtj9RdpHB4mbBQFMdukBwh5zBZwGt
QIAfzUDdepHBCkA6QAZzOkCiko7B

>  <OMEGA_E>  (43) 
VIU+P044aD8=

>  <OMEGA_NBR>  (43) 
     31057

$$$$
50163076
     RDKit          3D

 80 83  0  0  1  0  0  0  0  0999 V2000
    7.6323   -0.7108  -21.9502 C   0  0  0  0  0  0  0  0  0  0  0  0
    7.9559    0.6589  -21.9128 C   0  0  0  0  0  0  0  0  0  0  0  0
    6.3252   -1.1394  -21.6413 C   0  0  0  0  0  0  0  0  0  0  0  0
    6.9749    1.5998  -21.5626 C   0  0  0  0  0  0  0  0  0  0  0  0
    5.3472   -0.2003  -21.2631 C   0  0  0  0  0  0  0  0  0  0  0  0
    1.7197   -3.9352  -16.8034 C   0  0  0  0  0  0  0  0  0  0  0  0
    2.5225   -6.1901  -16.3104 C   0  0  0  0  0  0  0  0  0  0  0  0
    0.5381   -4.2002  -16.0838 C   0  0  0  0  0  0  0  0  0  0  0  0
    1.3435   -6.4506  -15.5858 C   0  0  0  0  0  0  0  0  0  0  0  0
    6.2068   -0.9806  -17.1203 C   0  0  0  0  0  0  0  0  0  0  0  0
    7.0003   -1.8705  -14.9942 C   0  0  0  0  0  0  0  0  0  0  0  0
    7.4754    0.4384  -15.5898 C   0  0  0  0  0  0  0  0  0  0  0  0
    6.3158   -2.0572  -16.2100 C   0  0  0  0  0  0  0  0  0  0  0  0
    6.8052    0.2630  -16.8164 C   0  0  0  0  0  0  0  0  0  0  0  0
    5.6753    1.1724  -21.2189 C   0  0  0  0  0  0  0  0  0  0  0  0
    2.7182   -4.9311  -16.9200 C   0  0  0  0  0  0  0  0  0  0  0  0
    7.5690   -0.6232  -14.6718 C   0  0  0  0  0  0  0  0  0  0  0  0
    0.3503   -5.4572  -15.4744 C   0  0  0  0  0  0  0  0  0  0  0  0
    5.7173   -3.3703  -16.5129 C   0  0  0  0  0  0  0  0  0  0  0  0
    6.7080    1.3910  -17.7518 C   0  0  0  0  0  0  0  0  0  0  0  0
    6.4565    8.1339  -20.2401 C   0  0  0  0  0  0  0  0  0  0  0  0
    5.8594    7.4095  -21.4570 C   0  0  0  0  0  0  0  0  0  0  0  0
    5.2213    7.2414  -20.0697 C   0  0  0  0  0  0  0  0  0  0  0  0
    3.6147   -4.5975  -19.2443 C   0  0  0  0  0  0  0  0  0  0  0  0
    7.9238    0.8000  -12.6505 C   0  0  0  0  0  0  0  0  0  0  0  0
    8.4089   -2.7035  -11.7361 C   0  0  0  0  0  0  0  0  0  0  0  0
    4.6984    2.1799  -20.6634 C   0  0  0  0  0  0  0  0  0  0  0  0
    4.2114    5.0546  -19.5177 C   0  0  0  0  0  0  0  0  0  0  0  0
    3.9657   -4.6872  -17.7530 C   0  0  1  0  0  0  0  0  0  0  0  0
    5.2756    2.7396  -19.3366 C   0  0  1  0  0  0  0  0  0  0  0  0
    4.3451    3.7738  -18.6676 C   0  0  2  0  0  0  0  0  0  0  0  0
    4.6218   -3.4354  -17.3613 N   0  0  0  0  0  0  0  0  0  0  0  0
    5.5146    1.6016  -18.4286 N   0  0  0  0  0  0  0  0  0  0  0  0
    8.1965   -0.4298  -13.4376 N   0  0  0  0  0  0  0  0  0  0  0  0
    5.3735    5.9554  -19.3409 N   0  0  0  0  0  0  0  0  0  0  0  0
    6.1716   -4.3868  -15.9960 O   0  0  0  0  0  0  0  0  0  0  0  0
    7.6364    2.1880  -17.8436 O   0  0  0  0  0  0  0  0  0  0  0  0
   10.2717   -0.8465  -11.9632 O   0  0  0  0  0  0  0  0  0  0  0  0
    9.8390   -2.3770  -13.9472 O   0  0  0  0  0  0  0  0  0  0  0  0
    3.0471    3.2101  -18.5099 O   0  0  0  0  0  0  0  0  0  0  0  0
   -0.7823   -5.7092  -14.7801 F   0  0  0  0  0  0  0  0  0  0  0  0
    9.3302   -1.5812  -12.8194 S   0  0  0  0  0  0  0  0  0  0  0  0
    8.3877   -1.4354  -22.2163 H   0  0  0  0  0  0  0  0  0  0  0  0
    8.9570    0.9851  -22.1532 H   0  0  0  0  0  0  0  0  0  0  0  0
    6.0743   -2.1885  -21.6948 H   0  0  0  0  0  0  0  0  0  0  0  0
    7.2155    2.6527  -21.5564 H   0  0  0  0  0  0  0  0  0  0  0  0
    4.3503   -0.5283  -21.0080 H   0  0  0  0  0  0  0  0  0  0  0  0
    1.8639   -2.9703  -17.2667 H   0  0  0  0  0  0  0  0  0  0  0  0
    3.2795   -6.9552  -16.4002 H   0  0  0  0  0  0  0  0  0  0  0  0
   -0.2243   -3.4399  -15.9991 H   0  0  0  0  0  0  0  0  0  0  0  0
    1.2004   -7.4122  -15.1153 H   0  0  0  0  0  0  0  0  0  0  0  0
    5.6668   -1.1086  -18.0468 H   0  0  0  0  0  0  0  0  0  0  0  0
    7.0904   -2.6934  -14.3006 H   0  0  0  0  0  0  0  0  0  0  0  0
    7.9200    1.3937  -15.3529 H   0  0  0  0  0  0  0  0  0  0  0  0
    7.4264    7.8143  -19.8313 H   0  0  0  0  0  0  0  0  0  0  0  0
    6.3624    9.2261  -20.1496 H   0  0  0  0  0  0  0  0  0  0  0  0
    5.3372    7.9828  -22.2371 H   0  0  0  0  0  0  0  0  0  0  0  0
    6.4012    6.5710  -21.9188 H   0  0  0  0  0  0  0  0  0  0  0  0
    4.2710    7.7752  -19.9211 H   0  0  0  0  0  0  0  0  0  0  0  0
    4.5307   -4.4210  -19.8272 H   0  0  0  0  0  0  0  0  0  0  0  0
    3.1497   -5.5401  -19.5688 H   0  0  0  0  0  0  0  0  0  0  0  0
    2.9117   -3.7671  -19.4061 H   0  0  0  0  0  0  0  0  0  0  0  0
    8.5037    0.7741  -11.7161 H   0  0  0  0  0  0  0  0  0  0  0  0
    8.2147    1.6833  -13.2380 H   0  0  0  0  0  0  0  0  0  0  0  0
    6.8508    0.8538  -12.4145 H   0  0  0  0  0  0  0  0  0  0  0  0
    9.0943   -3.4560  -11.3188 H   0  0  0  0  0  0  0  0  0  0  0  0
    7.9522   -2.1292  -10.9166 H   0  0  0  0  0  0  0  0  0  0  0  0
    7.6205   -3.2067  -12.3150 H   0  0  0  0  0  0  0  0  0  0  0  0
    4.5600    2.9997  -21.3837 H   0  0  0  0  0  0  0  0  0  0  0  0
    3.7309    1.6930  -20.4717 H   0  0  0  0  0  0  0  0  0  0  0  0
    4.1378    4.7721  -20.5783 H   0  0  0  0  0  0  0  0  0  0  0  0
    3.2980    5.5883  -19.2162 H   0  0  0  0  0  0  0  0  0  0  0  0
    4.6601   -5.5275  -17.6058 H   0  0  0  0  0  0  0  0  0  0  0  0
    6.2341    3.2312  -19.5595 H   0  0  0  0  0  0  0  0  0  0  0  0
    4.7657    4.0437  -17.6877 H   0  0  0  0  0  0  0  0  0  0  0  0
    4.2581   -2.5787  -17.7271 H   0  0  0  0  0  0  0  0  0  0  0  0
    4.7738    0.9438  -18.2929 H   0  0  0  0  0  0  0  0  0  0  0  0
    6.1920    5.4912  -19.6795 H   0  0  0  0  0  0  0  0  0  0  0  0
    5.4806    6.1512  -18.3661 H   0  0  0  0  0  0  0  0  0  0  0  0
    3.1063    2.4184  -17.9882 H   0  0  0  0  0  0  0  0  0  0  0  0
  1  2  2  0
  1  3  1  0
  2  4  1  0
  3  5  2  0
  4 15  2  0
  5 15  1  0
  6  8  2  0
  6 16  1  0
  7  9  1  0
  7 16  2  0
  8 18  1  0
  9 18  2  0
 10 13  2  0
 10 14  1  0
 11 13  1  0
 11 17  2  0
 12 14  2  0
 12 17  1  0
 13 19  1  0
 14 20  1  0
 15 27  1  0
 16 29  1  0
 17 34  1  0
 18 41  1  0
 19 32  1  0
 19 36  2  0
 20 33  1  0
 20 37  2  0
 21 22  1  0
 21 23  1  0
 22 23  1  0
 23 35  1  0
 24 29  1  0
 25 34  1  0
 26 42  1  0
 27 30  1  0
 28 31  1  0
 28 35  1  0
 29 32  1  0
 30 31  1  0
 30 33  1  0
 31 40  1  0
 34 42  1  0
 38 42  2  0
 39 42  2  0
  1 43  1  0
  2 44  1  0
  3 45  1  0
  4 46  1  0
  5 47  1  0
  6 48  1  0
  7 49  1  0
  8 50  1  0
  9 51  1  0
 10 52  1  0
 11 53  1  0
 12 54  1  0
 21 55  1  0
 21 56  1  0
 22 57  1  0
 22 58  1  0
 23 59  1  0
 24 60  1  0
 24 61  1  0
 24 62  1  0
 25 63  1  0
 25 64  1  0
 25 65  1  0
 26 66  1  0
 26 67  1  0
 26 68  1  0
 27 69  1  0
 27 70  1  0
 28 71  1  0
 28 72  1  0
 29 73  1  6
 30 74  1  6
 31 75  1  1
 32 76  1  0
 33 77  1  0
 35 78  1  0
 35 79  1  0
 40 80  1  0
M  CHG  1  35   1
M  END
>  <OMEGA_C>  (44) 
2jv0QHj4Nb8Emq/BfJb+QOSuKD92Ta/Ba2jKQEDYkb9WIa3BeDLfQHbHzD9AgKzBIxyrQGAlTb7e
GqrBvSDcP+LZe8BMbYbBTHEhQPIUxsCie4LB5r8JP/JnhsCyq4DBT/irP5FrzsBUX3nBYp7GQFwG
e79c9ojBwALgQABs779P6G/BlDbvQOh34D7Rb3nBOBvKQOapA8AcroHBO8TZQKimhj7wh4bBZJy1
QNMSlj9CwKnBLPYtQNLLncA0XIfBNDXyQEyJH7+Lv2rBgFezPgChrsAhl3fBAPS2QMiyV8BeGoTB
16fWQMoNsj+WA47BypvOQHwkAkGo66HB2X+7QIAa7UDcp6vBwhSnQKq550CojqDBHFdnQMEek8BS
9JnB/I/9QCrOTD9TaErBDYsGQTQGLcAJxzvBKFmWQBGEC0CkTqXBbsOGQF2/oUA+JJzBqM19QJ79
lcA8Bo7BidGoQOpVL0BmsZrBcQuLQDSFcUA6V5XBgOWTQAzdW8De44rB4HewQNgCzT/IbZPBDCUD
QXgQ3L5cAFfB5/OrQHySvkA0uprBtn3FQI1gjMB373/BWl30QCYIDECov47B/FgkQRC0WL9qaT/B
u2wdQZQgGMCeJ1/BLgNDQBRzTUBCFJTBIEZIv12xtsA8e2zBiUgVQRxkyr8THE3B7zMGQYu6t78P
u7HB408PQQQtfD+sObHBoWDCQDMQDMDkjq3Bo+XmQGLFKUBoc6zBtDWLQMM7B79SEKjBl5XuP/cZ
PsA+IorB3OJRQLWQ3sCPM4PBMq5lvsYnXMBh/H/BpKeZP3Aw7cAc2HHBwla1QHPljb/bX5DB4OTi
QM9gLMBXz2TB7nD9QP5ksj9spXXBbaXtQOQO+kB3pp7BJJnLQEOeE0FoMqHBMsqqQOpy/0Cn5bHB
etbMQEhF0kC2Wa/BA6yIQAvO+EBWXp/BzvuQQCl5jcACnp7BgZRJQJFIscDNjJzBf1g6QD8YccCj
P5vBSg8IQTMrRj8rdTvBjG8DQc911z/0zlPBjznbQNCPWj/WoUbBFYIRQR4vXcD7GTXBmHj+QGRF
CMBGqi7BWNvzQB47TcBMCkXBIeuRQIH7P0C+EavBScZuQNGy2D8cxqPB+2iEQP20mEBCoKTBJBJT
QLHTskDaupnBYR+VQHfhsMCz2IzBgn3HQEzLTkDieZzBeICYQDlmgUBUgI3BREKIQFEJJcAk0Y3B
KcOYQBaccT/WV5LBrCTGQOC3r0C0b53BP2GvQNjWxEDg7ZLBRs5GQM3HGkDG54/B

>  <OMEGA_E>  (44) 
rC5/Pw==

>  <OMEGA_NBR>  (44) 
      7431

$$$$
50163079
     RDKit          3D

 79 81  0  0  1  0  0  0  0  0999 V2000
    6.5404   -1.5221  -22.2927 C   0  0  0  0  0  0  0  0  0  0  0  0
    7.2351   -0.3126  -22.1009 C   0  0  0  0  0  0  0  0  0  0  0  0
    5.1724   -1.6145  -21.9675 C   0  0  0  0  0  0  0  0  0  0  0  0
    6.5596    0.8070  -21.5910 C   0  0  0  0  0  0  0  0  0  0  0  0
    4.4996   -0.5020  -21.4351 C   0  0  0  0  0  0  0  0  0  0  0  0
    1.7423   -3.8369  -16.7573 C   0  0  0  0  0  0  0  0  0  0  0  0
    2.4708   -6.1437  -16.4082 C   0  0  0  0  0  0  0  0  0  0  0  0
    0.5983   -4.0802  -15.9729 C   0  0  0  0  0  0  0  0  0  0  0  0
    1.3266   -6.3847  -15.6238 C   0  0  0  0  0  0  0  0  0  0  0  0
    6.2678   -1.0608  -17.1508 C   0  0  0  0  0  0  0  0  0  0  0  0
    7.0316   -1.9648  -15.0277 C   0  0  0  0  0  0  0  0  0  0  0  0
    7.4961    0.3560  -15.5927 C   0  0  0  0  0  0  0  0  0  0  0  0
    6.3733   -2.1428  -16.2606 C   0  0  0  0  0  0  0  0  0  0  0  0
    6.8391    0.1826  -16.8217 C   0  0  0  0  0  0  0  0  0  0  0  0
    5.1931    0.7083  -21.2415 C   0  0  0  0  0  0  0  0  0  0  0  0
    2.6869   -4.8683  -16.9739 C   0  0  0  0  0  0  0  0  0  0  0  0
    7.5614   -0.7025  -14.6644 C   0  0  0  0  0  0  0  0  0  0  0  0
    0.3911   -5.3534  -15.4053 C   0  0  0  0  0  0  0  0  0  0  0  0
    5.7529   -3.4322  -16.6041 C   0  0  0  0  0  0  0  0  0  0  0  0
    6.6741    1.3149  -17.7255 C   0  0  0  0  0  0  0  0  0  0  0  0
    4.5002    6.8025  -16.8615 C   0  0  0  0  0  0  0  0  0  0  0  0
    3.5043   -4.4405  -19.3139 C   0  0  0  0  0  0  0  0  0  0  0  0
    9.0576    0.6385  -13.1530 C   0  0  0  0  0  0  0  0  0  0  0  0
    8.2201   -2.7986  -11.7227 C   0  0  0  0  0  0  0  0  0  0  0  0
    4.4720    1.8920  -20.6512 C   0  0  0  0  0  0  0  0  0  0  0  0
    5.0538    6.4968  -18.2502 C   0  0  0  0  0  0  0  0  0  0  0  0
    4.3527    4.6881  -19.7290 C   0  0  0  0  0  0  0  0  0  0  0  0
    3.9084   -4.6308  -17.8443 C   0  0  1  0  0  0  0  0  0  0  0  0
    5.2606    2.4348  -19.4404 C   0  0  1  0  0  0  0  0  0  0  0  0
    4.5258    3.5551  -18.7154 C   0  0  2  0  0  0  0  0  0  0  0  0
    4.6194   -3.4278  -17.4070 N   0  0  0  0  0  0  0  0  0  0  0  0
    5.5399    1.3517  -18.5131 N   0  0  0  0  0  0  0  0  0  0  0  0
    8.0940   -0.4764  -13.3807 N   0  0  0  0  0  0  0  0  0  0  0  0
    3.9678    5.9240  -19.0591 N   0  0  0  0  0  0  0  0  0  0  0  0
    6.2248   -4.4803  -16.1761 O   0  0  0  0  0  0  0  0  0  0  0  0
    7.4882    2.2333  -17.7333 O   0  0  0  0  0  0  0  0  0  0  0  0
    5.9663   -1.5090  -12.2799 O   0  0  0  0  0  0  0  0  0  0  0  0
    7.7031   -0.3766  -10.8186 O   0  0  0  0  0  0  0  0  0  0  0  0
    3.2529    3.1335  -18.2226 O   0  0  0  0  0  0  0  0  0  0  0  0
   -0.7062   -5.5857  -14.6503 F   0  0  0  0  0  0  0  0  0  0  0  0
    7.3763   -1.2162  -11.9796 S   0  0  0  0  0  0  0  0  0  0  0  0
    7.0580   -2.3824  -22.6907 H   0  0  0  0  0  0  0  0  0  0  0  0
    8.2849   -0.2465  -22.3456 H   0  0  0  0  0  0  0  0  0  0  0  0
    4.6410   -2.5410  -22.1274 H   0  0  0  0  0  0  0  0  0  0  0  0
    7.0832    1.7433  -21.4655 H   0  0  0  0  0  0  0  0  0  0  0  0
    3.4538   -0.5746  -21.1752 H   0  0  0  0  0  0  0  0  0  0  0  0
    1.8990   -2.8618  -17.1942 H   0  0  0  0  0  0  0  0  0  0  0  0
    3.1846   -6.9363  -16.5776 H   0  0  0  0  0  0  0  0  0  0  0  0
   -0.1201   -3.2912  -15.8064 H   0  0  0  0  0  0  0  0  0  0  0  0
    1.1657   -7.3603  -15.1893 H   0  0  0  0  0  0  0  0  0  0  0  0
    5.7474   -1.1836  -18.0892 H   0  0  0  0  0  0  0  0  0  0  0  0
    7.1334   -2.8009  -14.3516 H   0  0  0  0  0  0  0  0  0  0  0  0
    7.9537    1.3056  -15.3576 H   0  0  0  0  0  0  0  0  0  0  0  0
    5.2958    7.2331  -16.2356 H   0  0  0  0  0  0  0  0  0  0  0  0
    3.6719    7.5212  -16.9472 H   0  0  0  0  0  0  0  0  0  0  0  0
    4.1335    5.8736  -16.4004 H   0  0  0  0  0  0  0  0  0  0  0  0
    4.4042   -4.2704  -19.9232 H   0  0  0  0  0  0  0  0  0  0  0  0
    2.9849   -5.3421  -19.6710 H   0  0  0  0  0  0  0  0  0  0  0  0
    2.8338   -3.5728  -19.4003 H   0  0  0  0  0  0  0  0  0  0  0  0
    9.3583    0.6537  -12.0949 H   0  0  0  0  0  0  0  0  0  0  0  0
    9.9460    0.4899  -13.7843 H   0  0  0  0  0  0  0  0  0  0  0  0
    8.5796    1.5948  -13.4119 H   0  0  0  0  0  0  0  0  0  0  0  0
    7.7952   -3.3025  -10.8421 H   0  0  0  0  0  0  0  0  0  0  0  0
    8.0845   -3.4345  -12.6100 H   0  0  0  0  0  0  0  0  0  0  0  0
    9.2932   -2.6196  -11.5605 H   0  0  0  0  0  0  0  0  0  0  0  0
    4.3821    2.6814  -21.4120 H   0  0  0  0  0  0  0  0  0  0  0  0
    3.4685    1.5821  -20.3240 H   0  0  0  0  0  0  0  0  0  0  0  0
    5.4188    7.4229  -18.7182 H   0  0  0  0  0  0  0  0  0  0  0  0
    5.8805    5.7753  -18.1714 H   0  0  0  0  0  0  0  0  0  0  0  0
    5.3030    4.8459  -20.2600 H   0  0  0  0  0  0  0  0  0  0  0  0
    3.5708    4.4102  -20.4512 H   0  0  0  0  0  0  0  0  0  0  0  0
    4.5749   -5.5028  -17.7709 H   0  0  0  0  0  0  0  0  0  0  0  0
    6.2131    2.8389  -19.8141 H   0  0  0  0  0  0  0  0  0  0  0  0
    5.1535    3.9142  -17.8865 H   0  0  0  0  0  0  0  0  0  0  0  0
    4.2646   -2.5422  -17.7069 H   0  0  0  0  0  0  0  0  0  0  0  0
    4.8831    0.6010  -18.4420 H   0  0  0  0  0  0  0  0  0  0  0  0
    3.1898    5.7338  -18.4603 H   0  0  0  0  0  0  0  0  0  0  0  0
    3.6992    6.5928  -19.7524 H   0  0  0  0  0  0  0  0  0  0  0  0
    3.3729    2.4306  -17.5949 H   0  0  0  0  0  0  0  0  0  0  0  0
  1  2  2  0
  1  3  1  0
  2  4  1  0
  3  5  2  0
  4 15  2  0
  5 15  1  0
  6  8  2  0
  6 16  1  0
  7  9  1  0
  7 16  2  0
  8 18  1  0
  9 18  2  0
 10 13  2  0
 10 14  1  0
 11 13  1  0
 11 17  2  0
 12 14  2  0
 12 17  1  0
 13 19  1  0
 14 20  1  0
 15 25  1  0
 16 28  1  0
 17 33  1  0
 18 40  1  0
 19 31  1  0
 19 35  2  0
 20 32  1  0
 20 36  2  0
 21 26  1  0
 22 28  1  0
 23 33  1  0
 24 41  1  0
 25 29  1  0
 26 34  1  0
 27 30  1  0
 27 34  1  0
 28 31  1  0
 29 30  1  0
 29 32  1  0
 30 39  1  0
 33 41  1  0
 37 41  2  0
 38 41  2  0
  1 42  1  0
  2 43  1  0
  3 44  1  0
  4 45  1  0
  5 46  1  0
  6 47  1  0
  7 48  1  0
  8 49  1  0
  9 50  1  0
 10 51  1  0
 11 52  1  0
 12 53  1  0
 21 54  1  0
 21 55  1  0
 21 56  1  0
 22 57  1  0
 22 58  1  0
 22 59  1  0
 23 60  1  0
 23 61  1  0
 23 62  1  0
 24 63  1  0
 24 64  1  0
 24 65  1  0
 25 66  1  0
 25 67  1  0
 26 68  1  0
 26 69  1  0
 27 70  1  0
 27 71  1  0
 28 72  1  6
 29 73  1  6
 30 74  1  1
 31 75  1  0
 32 76  1  0
 34 77  1  0
 34 78  1  0
 39 79  1  0
M  CHG  1  34   1
M  END
>  <OMEGA_C>  (45) 
HEvRQDnTwr+KV7LBlYXnQAAIoL6yzrDBdISlQAWnzr9ava/BiujRQKWaTj9JuqzBbPyPQEyAAL8m
e6vBlwLfPzyQdcDyDobB1CAeQJSZxMAWRIPBJSsZP/GQgsAhkX/B9sypP8hPzMAK+3nBjpHIQKDJ
h7/cNInBrgLhQGd/+79UcXDB69/vQE9Itj7Ie3nBJfLLQAgjCcCeFYLBFNraQD4AOz7vkobB4y2m
QKtRNT+q7qnBdvUrQDDJm8CdyofBK/fxQFrVM78uoWrB3D/IPglPq8D/e3bB0Re4QKCpW8BD1YTB
fJLVQApQqD/fzY3B7wGQQFOu2UBJ5IbB0EVgQL4YjsDzgprBEOwQQaB3Iz+CclLBhoUDQbYbM8Bh
kDvBVRqPQNws8j+PNaXBILmhQJ/lz0BTAJLB+EiLQLEElkDr1J3BqSN6QJwvlMAJwY7BOleoQPTT
G0D/hZvBStOQQB6GY0AduZXB7tGTQIhgW8CNQYvB90axQJ4ErT/UGpTBK4EBQfjt874sF1bB8/B9
QLKRvUD7eJjBvTHHQM9ej8CgaIHBH5/vQC7vDkDb3Y3Bteu+QBkowb9tekTBCYD2QKzVwL4wGS3B
9C9QQKSKSEDlx5HBmsc0v+a9ssCqZ2rBygrsQCWrm7+RrD/BL9vhQMl4GMCYhrXB+Y4EQXllfL65
w7LBy4KUQO2eIsACBbHB56niQGAj3z9quavBeQtdQBAcE7/fZqnB8hLzP0knN8DDjYnBDdFLQO71
3cDsnoTBGwb2vQijUsAM53zBWTWVP8mH68CFB3PBV+q3QCCAl7+atpDBt0TkQFRBM8AgoGXB94T+
QNAdpz/luHXBNnepQNB150CY4oHBDwBrQKCt8EDOk4fBxkWEQIH0u0D7M4PBQO+MQG+niMCsYp/B
Uwk/QH/yqsAeXp3BuFw1QCWoZMDPM5vBZrsVQYpbJz/ghEHB+yIfQRbT+j6ejFzB+UUJQeUhzD9Q
l1bBqHL5QI9cU8BHeS3BA1oBQYHPW8BlwknBILEUQd2nJ8Cj9zjBRTqMQGqbK0CxS6vBy/tdQJWD
yj+Hl6LB82atQG6I7UDwvpXBsSy8QE/PuEAdX5HB+LGpQLMRm0BzFKLBqIhkQHEgjUD1m6PBlGWS
QD0XsMC7Ko7BktHGQC6wNUAwg57Bl+mkQHOBekCYF4/BYXeIQBC0IsDOp43BlkKcQCHaGT82iZPB
8iVMQKx7t0C1rpPBN8BsQN330kDcBJ7B8NxXQD6OG0BQwozBZ+TUQMT5uL96LLLB50LsQM1gjr5R
0K/BG8qoQOWuwb8k5a/B2mHXQGg0VD+6UavBbfiTQCud1L52O6vBFsPbP/DWa8C0j4XBB40YQAGd
wMCVToPBQowRP0/eesCwn37B6iGeP1ENyMCbHHrB2hXIQKg1dr8hkojB6n7hQM+4+b8n32/BBdPw
QF3NxD7yxXfBkMfLQCoKBcAIwIHBSfvaQOTmiD5nuIXB/jKrQLiHQT/n96jB34soQCeBl8BbjIfB
8QfzQA7+Nb+peWnBvzmoPih6psAdGXbBk4m3QIDTVsCrsYTBfGzWQEfBtz/r0IzBzvORQCi3t0BL
c3PBwdJcQBBCicCCP5rB2LoSQaARBD+WDFHBeUQFQVCxPcA6JDzBRsCTQHxT+j/v0aTBrtKkQN0i
0EB8R4PBT5+qQIiukEBhyY7BXtN2QLtCkMCQiI7Ba1yrQHvDJUBWUJvBGiKRQIXKcUD8QpfByfaS
QEW1VMAV+4rBIZ2xQBeHxz/3ApPBcKwCQUxvDr8p/FTBy+GXQIyDu0B8R43BLCrGQHtkjcCKZoHB
eEbyQA0uE0AY/YzBlUTCQI8K0b+S2ELBK8b7QMhKFb97qSvByPWIQOyClUD885/B1JdFvxilrcD3
C2rBFcfvQEp7rr9mqz7BIdrkQIG3EsCov7XBohQHQVQocb6jdbHBmgOXQKlBGsDLvLHBIALpQO4B
3j/EqKnBMIBkQOYv8L5/Y6nBsvnyP7P1LMCo14jBR81EQH1s2sCZ3ITBLz4Dvs57R8CfknvBzlqG
P/SA58BwmHPBDLa2QLkvhr/oAZDB3MzkQLryM8DpkGXBugAAQejKqD/PlnPBksmbQMZcx0CpeGTB
V6ZdQIW7t0BalHTB0LadQEaKlkCtm3PBnDqLQNAYhMBSIp/BHGE6QNqdpcD8L53ByvkyQFEWWsAs
0ZrBi/oXQUPH9D7OQkDBVpggQTkcuz54nlvBq3oLQQiPvz9vXVTBvbr9QN0tYMCXMi7BLIQCQV7A
Y8CqsErBSIsWQeZRM8DiATrBnf2QQGu7LEA7RavBiSxnQJgL0z+YOKLBqA6ZQDlP8UBmL4PBTfLH
QPsd0EAPs4LBiGWpQNHDfUBnM4fB1xjMQOnNk0C8ZJHBjzmQQD6WrMBlEI7BFq3KQP8ePUBFE57B
Ev9lQPxxWkAMxpPBYO6HQBNrG8C6PY3BdeGZQAYaaD+WwZHBKwJwQKi4uEC/TY3BagmhQB0YzkCQ
YJPBzApyQEsUh0BZU6XB

>  <OMEGA_E>  (45) 
MM5ZP64Ncz8=

>  <OMEGA_NBR>  (45) 
     11747

$$$$
50163097
     RDKit          3D

 80 83  0  0  1  0  0  0  0  0999 V2000
    6.9538   -1.2368  -22.4222 C   0  0  0  0  0  0  0  0  0  0  0  0
    0.3714   -5.3508  -15.4019 C   0  0  0  0  0  0  0  0  0  0  0  0
    7.4490    0.0732  -22.2888 C   0  0  0  0  0  0  0  0  0  0  0  0
    5.6331   -1.5398  -22.0333 C   0  0  0  0  0  0  0  0  0  0  0  0
    1.3806   -6.3305  -15.4801 C   0  0  0  0  0  0  0  0  0  0  0  0
    0.5284   -4.1239  -16.0763 C   0  0  0  0  0  0  0  0  0  0  0  0
    6.6213    1.0813  -21.7748 C   0  0  0  0  0  0  0  0  0  0  0  0
    4.8140   -0.5393  -21.4807 C   0  0  0  0  0  0  0  0  0  0  0  0
    2.5409   -6.0901  -16.2417 C   0  0  0  0  0  0  0  0  0  0  0  0
    1.6896   -3.8797  -16.8361 C   0  0  0  0  0  0  0  0  0  0  0  0
    6.1950   -1.0195  -17.0679 C   0  0  0  0  0  0  0  0  0  0  0  0
    7.0477   -1.9092  -14.9738 C   0  0  0  0  0  0  0  0  0  0  0  0
    7.4608    0.4187  -15.5600 C   0  0  0  0  0  0  0  0  0  0  0  0
    6.3373   -2.0960  -16.1757 C   0  0  0  0  0  0  0  0  0  0  0  0
    6.7632    0.2322  -16.7661 C   0  0  0  0  0  0  0  0  0  0  0  0
    5.3106    0.7723  -21.3461 C   0  0  0  0  0  0  0  0  0  0  0  0
    2.6989   -4.8670  -16.9285 C   0  0  0  0  0  0  0  0  0  0  0  0
    7.6013   -0.6480  -14.6549 C   0  0  0  0  0  0  0  0  0  0  0  0
    5.7350   -3.3978  -16.5068 C   0  0  0  0  0  0  0  0  0  0  0  0
    6.6003    1.3396  -17.7008 C   0  0  0  0  0  0  0  0  0  0  0  0
    4.1334    7.3503  -17.0121 C   0  0  0  0  0  0  0  0  0  0  0  0
    4.2881    5.8802  -16.6020 C   0  0  0  0  0  0  0  0  0  0  0  0
    4.8617    6.3801  -17.9333 C   0  0  0  0  0  0  0  0  0  0  0  0
    3.5724   -4.4770  -19.2622 C   0  0  0  0  0  0  0  0  0  0  0  0
    8.0035    0.8032  -12.6609 C   0  0  0  0  0  0  0  0  0  0  0  0
    8.4944   -2.7274  -11.7738 C   0  0  0  0  0  0  0  0  0  0  0  0
    4.4667    1.8386  -20.6998 C   0  0  0  0  0  0  0  0  0  0  0  0
    4.6655    4.7589  -19.7628 C   0  0  0  0  0  0  0  0  0  0  0  0
    3.9379   -4.6360  -17.7772 C   0  0  1  0  0  0  0  0  0  0  0  0
    5.2356    2.4002  -19.4870 C   0  0  1  0  0  0  0  0  0  0  0  0
    4.5233    3.5599  -18.8142 C   0  0  2  0  0  0  0  0  0  0  0  0
    4.6241   -3.4198  -17.3412 N   0  0  0  0  0  0  0  0  0  0  0  0
    5.4891    1.3406  -18.5267 N   0  0  0  0  0  0  0  0  0  0  0  0
    8.2568   -0.4384  -13.4383 N   0  0  0  0  0  0  0  0  0  0  0  0
    4.1678    6.0040  -19.1727 N   0  0  0  0  0  0  0  0  0  0  0  0
    6.2209   -4.4348  -16.0674 O   0  0  0  0  0  0  0  0  0  0  0  0
    7.4125    2.2598  -17.7209 O   0  0  0  0  0  0  0  0  0  0  0  0
   10.3302   -0.8416  -11.9616 O   0  0  0  0  0  0  0  0  0  0  0  0
    9.9320   -2.3450  -13.9741 O   0  0  0  0  0  0  0  0  0  0  0  0
    3.1495    3.2681  -18.5523 O   0  0  0  0  0  0  0  0  0  0  0  0
    9.4054   -1.5771  -12.8352 S   0  0  0  0  0  0  0  0  0  0  0  0
    7.5878   -2.0133  -22.8240 H   0  0  0  0  0  0  0  0  0  0  0  0
   -0.5220   -5.5401  -14.8254 H   0  0  0  0  0  0  0  0  0  0  0  0
    8.4632    0.3016  -22.5814 H   0  0  0  0  0  0  0  0  0  0  0  0
    5.2499   -2.5415  -22.1599 H   0  0  0  0  0  0  0  0  0  0  0  0
    1.2644   -7.2674  -14.9554 H   0  0  0  0  0  0  0  0  0  0  0  0
   -0.2420   -3.3699  -16.0108 H   0  0  0  0  0  0  0  0  0  0  0  0
    6.9859    2.0956  -21.7063 H   0  0  0  0  0  0  0  0  0  0  0  0
    3.8096   -0.7750  -21.1611 H   0  0  0  0  0  0  0  0  0  0  0  0
    3.3121   -6.8438  -16.3004 H   0  0  0  0  0  0  0  0  0  0  0  0
    1.8096   -2.9368  -17.3490 H   0  0  0  0  0  0  0  0  0  0  0  0
    5.6473   -1.1534  -17.9891 H   0  0  0  0  0  0  0  0  0  0  0  0
    7.1704   -2.7363  -14.2902 H   0  0  0  0  0  0  0  0  0  0  0  0
    7.8893    1.3826  -15.3283 H   0  0  0  0  0  0  0  0  0  0  0  0
    3.1449    7.7404  -17.2960 H   0  0  0  0  0  0  0  0  0  0  0  0
    4.6969    8.1312  -16.4805 H   0  0  0  0  0  0  0  0  0  0  0  0
    4.9641    5.6058  -15.7788 H   0  0  0  0  0  0  0  0  0  0  0  0
    3.4121    5.2150  -16.5943 H   0  0  0  0  0  0  0  0  0  0  0  0
    5.9560    6.4823  -17.9796 H   0  0  0  0  0  0  0  0  0  0  0  0
    4.4875   -4.3115  -19.8498 H   0  0  0  0  0  0  0  0  0  0  0  0
    3.0698   -5.3893  -19.6157 H   0  0  0  0  0  0  0  0  0  0  0  0
    2.8982   -3.6163  -19.3836 H   0  0  0  0  0  0  0  0  0  0  0  0
    8.6048    0.7888  -11.7399 H   0  0  0  0  0  0  0  0  0  0  0  0
    8.2819    1.6781  -13.2667 H   0  0  0  0  0  0  0  0  0  0  0  0
    6.9363    0.8616  -12.4010 H   0  0  0  0  0  0  0  0  0  0  0  0
    9.1879   -3.4763  -11.3637 H   0  0  0  0  0  0  0  0  0  0  0  0
    8.0252   -2.1715  -10.9486 H   0  0  0  0  0  0  0  0  0  0  0  0
    7.7162   -3.2331  -12.3644 H   0  0  0  0  0  0  0  0  0  0  0  0
    4.2710    2.6455  -21.4214 H   0  0  0  0  0  0  0  0  0  0  0  0
    3.5122    1.4055  -20.3663 H   0  0  0  0  0  0  0  0  0  0  0  0
    5.7291    4.8873  -20.0120 H   0  0  0  0  0  0  0  0  0  0  0  0
    4.0962    4.5516  -20.6809 H   0  0  0  0  0  0  0  0  0  0  0  0
    4.6103   -5.4999  -17.6699 H   0  0  0  0  0  0  0  0  0  0  0  0
    6.2023    2.7730  -19.8563 H   0  0  0  0  0  0  0  0  0  0  0  0
    5.0428    3.7954  -17.8736 H   0  0  0  0  0  0  0  0  0  0  0  0
    4.2689   -2.5433  -17.6663 H   0  0  0  0  0  0  0  0  0  0  0  0
    4.8378    0.5847  -18.4595 H   0  0  0  0  0  0  0  0  0  0  0  0
    3.1950    5.8922  -18.9699 H   0  0  0  0  0  0  0  0  0  0  0  0
    4.2869    6.7404  -19.8387 H   0  0  0  0  0  0  0  0  0  0  0  0
    3.0898    2.5242  -17.9644 H   0  0  0  0  0  0  0  0  0  0  0  0
  1  3  2  0
  1  4  1  0
  2  5  2  0
  2  6  1  0
  3  7  1  0
  4  8  2  0
  5  9  1  0
  6 10  2  0
  7 16  2  0
  8 16  1  0
  9 17  2  0
 10 17  1  0
 11 14  2  0
 11 15  1  0
 12 14  1  0
 12 18  2  0
 13 15  2  0
 13 18  1  0
 14 19  1  0
 15 20  1  0
 16 27  1  0
 17 29  1  0
 18 34  1  0
 19 32  1  0
 19 36  2  0
 20 33  1  0
 20 37  2  0
 21 22  1  0
 21 23  1  0
 22 23  1  0
 23 35  1  0
 24 29  1  0
 25 34  1  0
 26 41  1  0
 27 30  1  0
 28 31  1  0
 28 35  1  0
 29 32  1  0
 30 31  1  0
 30 33  1  0
 31 40  1  0
 34 41  1  0
 38 41  2  0
 39 41  2  0
  1 42  1  0
  2 43  1  0
  3 44  1  0
  4 45  1  0
  5 46  1  0
  6 47  1  0
  7 48  1  0
  8 49  1  0
  9 50  1  0
 10 51  1  0
 11 52  1  0
 12 53  1  0
 13 54  1  0
 21 55  1  0
 21 56  1  0
 22 57  1  0
 22 58  1  0
 23 59  1  0
 24 60  1  0
 24 61  1  0
 24 62  1  0
 25 63  1  0
 25 64  1  0
 25 65  1  0
 26 66  1  0
 26 67  1  0
 26 68  1  0
 27 69  1  0
 27 70  1  0
 28 71  1  0
 28 72  1  0
 29 73  1  6
 30 74  1  6
 31 75  1  1
 32 76  1  0
 33 77  1  0
 35 78  1  0
 35 79  1  0
 40 80  1  0
M  CHG  1  35   1
M  END
>  <OMEGA_C>  (46) 
IoXeQJxQnr+jYLPBsiy+Ptw5q8BHbnbBBV7uQDAAlj1zT7LBD0K0QCQXxb8pRLDB37WwP8KTysCR
rnfBvEQHP0/3g8AunIDB0eHTQLRnij+6Mq7BIAyaQIMQCr9g2KvBup4iQMHhwsAW74HBj0XYP0lM
eMBIsIbBPj3GQHyAgr8ci4jBdIbhQNph9L+nlG/Bvr7uQIZj1j7E9XjB2crKQNskBsDbZ4HBEGzY
QLS/bT74IIbBTvCpQL21RT/YxKrB2LosQIi+m8CUbYfBMT7zQH/iJb+hemrBuIS3QEt1WcDWDYTB
szXTQOx4qz8xm43By0SEQJA160C8GIjB5zeJQPYqvEDg0ITBO5ObQKApzEB+d4/BwqJkQD5Dj8Dy
GJrBeQ4AQU2bTT8Ek0rB7ugHQaWNLsCDYTzBK++OQIRY6z9ImaXBYkuVQO9ImEA3Gp7BYAZ8QBla
lMC+N47Bx4mnQCucGUBM5ZvBNL+QQM7UY0Bjg5bBS/iTQPfdWsDGuorBT6avQDGYqz+YNpTBAxwE
QQZy4L4ZA1fBX16FQCQhwECaYZnBjhHHQL3pjcAcioDBVTPtQKagEEB9xI3BdkglQR1xV7+tYj/B
UukeQR8UFsAIll/B4pFJQL4oUUAPa5TBb3wWQcDdyb/HXE3BAc/yQFzaAMCfl7bBEaAFv4ZIscDM
NG3BUWkHQVxmmj6jprTBAf+nQGyoIsCSR7HBAtmhPyKO6MBxSW/BMNh3vqmsV8AcFoDB34zfQLQd
BkBopq3BMNFzQNdoRr/YSanBLfpTQNAA28AvZ4LBc5/nP8T0O8CzyorBl7a0QOeik7+h6Y/BBXTl
QF8fL8CcpGTBCXX8QBD6sD/NQHXBTUVJQHax90AdXorBS02WQGwZAkEI2IPBQ9qeQLJis0ALdnzB
PF9aQE/hpkAbwYTBa5e+QA1vz0BK1o/BTpmPQJv3icB1zJ7BDHdEQBZ1rMDw7JzBAHw5QCVyZ8CU
EZvBHq0JQVbtST9w1jvBeoIEQYjM1j9NRFTB3PXdQDyQXD+xakbBiAETQXB7XsCU0TXBUGcAQXn6
CsCRLS/BLOv2QGzqTsB81EXB5auIQHBPKUAhX6vBKMdgQKTmsz9E7qLBC1W3QGlknECfGKDByxOD
QJ6mkUCDcqXBu4eTQCv/r8D5W43BTXnGQIl4MUC52Z7BiF6hQAHockAU/Y7BNZuIQKjFIsCFVI3B
6c6aQPiwFT8drZPBK3pMQJmMvEBTwpfBUi6JQEex10CltZ7BEb9FQDKNIUAat4/BmMv0QFjqM79w
HLDB7P2pPnxwrcCsWHfBAMD+QChKKz95rK/BGDLLQDD8kr+Pl63BpAYHPwZkhcDCnYDBVjapP3he
zcAh83jBFi/fQEQtzD/EsKzBCrmrQICgZb6mYqrBEhnbP5mFesAIYYbBKVQgQEBcxcCxQYLBNlbG
QBh6eL8d5YjBJivfQDbz7r9avm/Big7vQGTJ4D4FNHnBLJbJQMkqA8DmooHBkIHZQPj1ij7faIbB
SNa1QDlLkz+z46nBMzQtQBpMncDrPIfBhuvxQMycIL/emmrBUN62QEtVV8ALKITB7mXWQP6Dsz/T
3I3BDpnOQMzhAUFDNaLBYIm7QMqX7ED48qvB8CanQIwR50Bd2aDBb5FmQEZvk8BG35nB6R0AQZwW
Rj+nTErBQZ4GQfPrLMACeDvBnkuWQHpDCUC+XqXBQN6GQHwSoUBKXpzBdRR9QHzslcAP8I3BEOeo
QDj1LUCm0ZrBkiOLQOlmcEAbg5XBrK6TQCupW8Dt5IrBNKawQEQfyz+Kg5PBmJsDQWSY6b7wJFfB
hiKsQFzkvUAyBpvBHvvFQCw1jMB5KIDBAovzQH42DkDOYY7BCrElQWQFcr8bMkHBdPobQT9jH8B9
+l/BZTdDQF5TTEDWOJTBpV8VQRoC07/31U3ByowGQQ1Etb8eYrLByp8Tv5eos8A5im7Brk4PQUAP
gT9IobHBUHjDQMa6DMBcH67BS3psvuDTWcB0+X/BgjiWP0gA7MAWT3HBrJDmQEuaKUAIiqzBif6L
QDa0EL9+UKjBpCfuPxsOPcCeJYrBja9QQFjt3cDq4YLBezi1QGwrjL+oVZDBpGLhQIr2K8AXjmTB
pHL9QP8Osj+cW3XB7KztQCmc+UCE8p7Bo3vLQMBZE0EieKHBxcGqQFru/kAXLrLBDvPMQAHX0UB5
qK/BErOIQFQP+ECcpp/BCJyQQGoZjsCdjZ7BiYBIQJuescBkZZzBMdI5QMuaccAFOZvBBc8JQSLe
OT/RoDvBGtwEQWGu0z8kvFPB9i7eQEVhWj+cBUbB7EYRQRHDXsDoEjXBSmwAQXLHBcByNy7BfF3y
QH4uS8B69EPBCTORQCd0PUATI6vBYE5vQCZT0j+svaPBZWaEQNvYl0Ca1qTBkmVTQK5BskCO9ZnB
3KeUQLnbsMB/s4zBA4jHQMlbTUDJqZzBKJqYQBABgUBMr43BUwyIQMvtJMCC2Y3B+1GZQB2caT9K
k5LB2DvGQLQCr0BUx53BDMqvQPIpxECVO5PB0g5HQFDVGUAABJDB

>  <OMEGA_E>  (46) 
KBCBP7JWfj8=

>  <OMEGA_NBR>  (46) 
      5804

$$$$
50163161
     RDKit          3D

 77 80  0  0  1  0  0  0  0  0999 V2000
    6.2965   -1.5395  -21.6400 C   0  0  0  0  0  0  0  0  0  0  0  0
    7.0685   -0.4067  -21.3161 C   0  0  0  0  0  0  0  0  0  0  0  0
    4.8908   -1.4542  -21.6444 C   0  0  0  0  0  0  0  0  0  0  0  0
    6.4349    0.8083  -20.9869 C   0  0  0  0  0  0  0  0  0  0  0  0
    4.2548   -0.2485  -21.2925 C   0  0  0  0  0  0  0  0  0  0  0  0
    1.6471   -3.4849  -17.3990 C   0  0  0  0  0  0  0  0  0  0  0  0
    2.5228   -5.6237  -16.6042 C   0  0  0  0  0  0  0  0  0  0  0  0
    0.4676   -3.6941  -16.6572 C   0  0  0  0  0  0  0  0  0  0  0  0
    1.3454   -5.8288  -15.8606 C   0  0  0  0  0  0  0  0  0  0  0  0
    6.0874   -0.5863  -17.1976 C   0  0  0  0  0  0  0  0  0  0  0  0
    7.0149   -1.6134  -15.1955 C   0  0  0  0  0  0  0  0  0  0  0  0
    7.4445    0.7416  -15.6628 C   0  0  0  0  0  0  0  0  0  0  0  0
    6.2719   -1.7294  -16.3913 C   0  0  0  0  0  0  0  0  0  0  0  0
    6.6768    0.6447  -16.8407 C   0  0  0  0  0  0  0  0  0  0  0  0
    5.0201    0.8847  -20.9419 C   0  0  0  0  0  0  0  0  0  0  0  0
    2.6792   -4.4535  -17.3783 C   0  0  0  0  0  0  0  0  0  0  0  0
    7.5707   -0.3699  -14.8112 C   0  0  0  0  0  0  0  0  0  0  0  0
    0.3176   -4.8655  -15.8870 C   0  0  0  0  0  0  0  0  0  0  0  0
    5.6692   -3.0242  -16.7885 C   0  0  0  0  0  0  0  0  0  0  0  0
    6.4528    1.8264  -17.6835 C   0  0  0  0  0  0  0  0  0  0  0  0
    6.5830    7.3920  -18.1177 C   0  0  0  0  0  0  0  0  0  0  0  0
    5.6680    7.5284  -19.3480 C   0  0  0  0  0  0  0  0  0  0  0  0
    5.0506    7.4156  -17.9453 C   0  0  0  0  0  0  0  0  0  0  0  0
    3.6423   -4.1368  -19.6819 C   0  0  0  0  0  0  0  0  0  0  0  0
    8.6326   -2.5844  -12.0687 C   0  0  0  0  0  0  0  0  0  0  0  0
    4.3009    2.1824  -20.5808 C   0  0  0  0  0  0  0  0  0  0  0  0
    4.8735    4.8919  -17.8450 C   0  0  0  0  0  0  0  0  0  0  0  0
    3.9532   -4.2544  -18.1822 C   0  0  1  0  0  0  0  0  0  0  0  0
    4.9592    2.9326  -19.3949 C   0  0  1  0  0  0  0  0  0  0  0  0
    4.0664    4.0826  -18.8781 C   0  0  2  0  0  0  0  0  0  0  0  0
    8.2013   -0.1926  -13.5792 N   0  0  0  0  0  0  0  0  0  0  0  0
    4.6515   -3.0395  -17.7403 N   0  0  0  0  0  0  0  0  0  0  0  0
    5.2194    1.9733  -18.3102 N   0  0  0  0  0  0  0  0  0  0  0  0
    4.2591    6.2076  -17.5385 N   0  0  0  0  0  0  0  0  0  0  0  0
    6.0601   -4.0696  -16.2783 O   0  0  0  0  0  0  0  0  0  0  0  0
    7.3491    2.6492  -17.8390 O   0  0  0  0  0  0  0  0  0  0  0  0
    8.1715   -0.2039  -11.0114 O   0  0  0  0  0  0  0  0  0  0  0  0
    6.2867   -1.3544  -12.2674 O   0  0  0  0  0  0  0  0  0  0  0  0
    3.6921    4.9120  -19.9773 O   0  0  0  0  0  0  0  0  0  0  0  0
   -0.8096   -5.0634  -15.1669 F   0  0  0  0  0  0  0  0  0  0  0  0
    7.7141   -1.0213  -12.1424 S   0  0  0  0  0  0  0  0  0  0  0  0
    6.7821   -2.4726  -21.8848 H   0  0  0  0  0  0  0  0  0  0  0  0
    8.1466   -0.4693  -21.3201 H   0  0  0  0  0  0  0  0  0  0  0  0
    4.2995   -2.3154  -21.9182 H   0  0  0  0  0  0  0  0  0  0  0  0
    7.0287    1.6835  -20.7683 H   0  0  0  0  0  0  0  0  0  0  0  0
    3.1763   -0.1903  -21.2907 H   0  0  0  0  0  0  0  0  0  0  0  0
    1.7639   -2.5847  -17.9841 H   0  0  0  0  0  0  0  0  0  0  0  0
    3.3089   -6.3639  -16.5825 H   0  0  0  0  0  0  0  0  0  0  0  0
   -0.3215   -2.9571  -16.6785 H   0  0  0  0  0  0  0  0  0  0  0  0
    1.2298   -6.7251  -15.2693 H   0  0  0  0  0  0  0  0  0  0  0  0
    5.4903   -0.6542  -18.0949 H   0  0  0  0  0  0  0  0  0  0  0  0
    7.1601   -2.4811  -14.5691 H   0  0  0  0  0  0  0  0  0  0  0  0
    7.9362    1.6704  -15.4141 H   0  0  0  0  0  0  0  0  0  0  0  0
    7.1418    6.4598  -17.9480 H   0  0  0  0  0  0  0  0  0  0  0  0
    7.1878    8.2480  -17.7838 H   0  0  0  0  0  0  0  0  0  0  0  0
    5.6203    8.4820  -19.8942 H   0  0  0  0  0  0  0  0  0  0  0  0
    5.5743    6.6939  -20.0584 H   0  0  0  0  0  0  0  0  0  0  0  0
    4.6637    8.3672  -17.5519 H   0  0  0  0  0  0  0  0  0  0  0  0
    4.5788   -3.9936  -20.2409 H   0  0  0  0  0  0  0  0  0  0  0  0
    3.1466   -5.0562  -20.0267 H   0  0  0  0  0  0  0  0  0  0  0  0
    2.9785   -3.2764  -19.8522 H   0  0  0  0  0  0  0  0  0  0  0  0
    8.3441   -3.1374  -11.1626 H   0  0  0  0  0  0  0  0  0  0  0  0
    8.3987   -3.1892  -12.9573 H   0  0  0  0  0  0  0  0  0  0  0  0
    9.7120   -2.3744  -12.0419 H   0  0  0  0  0  0  0  0  0  0  0  0
    4.3081    2.8430  -21.4603 H   0  0  0  0  0  0  0  0  0  0  0  0
    3.2619    1.9432  -20.3103 H   0  0  0  0  0  0  0  0  0  0  0  0
    4.9382    4.3088  -16.9145 H   0  0  0  0  0  0  0  0  0  0  0  0
    5.8850    5.0605  -18.2432 H   0  0  0  0  0  0  0  0  0  0  0  0
    4.6063   -5.1262  -18.0290 H   0  0  0  0  0  0  0  0  0  0  0  0
    5.9118    3.3601  -19.7409 H   0  0  0  0  0  0  0  0  0  0  0  0
    3.1773    3.6573  -18.3896 H   0  0  0  0  0  0  0  0  0  0  0  0
    9.1609   -0.4338  -13.7240 H   0  0  0  0  0  0  0  0  0  0  0  0
    4.3791   -2.1683  -18.1485 H   0  0  0  0  0  0  0  0  0  0  0  0
    4.4648    1.3924  -18.0051 H   0  0  0  0  0  0  0  0  0  0  0  0
    4.1153    6.2550  -16.5500 H   0  0  0  0  0  0  0  0  0  0  0  0
    3.3761    6.2490  -18.0061 H   0  0  0  0  0  0  0  0  0  0  0  0
    3.1958    4.4009  -20.6057 H   0  0  0  0  0  0  0  0  0  0  0  0
  1  2  2  0
  1  3  1  0
  2  4  1  0
  3  5  2  0
  4 15  2  0
  5 15  1  0
  6  8  2  0
  6 16  1  0
  7  9  1  0
  7 16  2  0
  8 18  1  0
  9 18  2  0
 10 13  2  0
 10 14  1  0
 11 13  1  0
 11 17  2  0
 12 14  2  0
 12 17  1  0
 13 19  1  0
 14 20  1  0
 15 26  1  0
 16 28  1  0
 17 31  1  0
 18 40  1  0
 19 32  1  0
 19 35  2  0
 20 33  1  0
 20 36  2  0
 21 22  1  0
 21 23  1  0
 22 23  1  0
 23 34  1  0
 24 28  1  0
 25 41  1  0
 26 29  1  0
 27 30  1  0
 27 34  1  0
 28 32  1  0
 29 30  1  0
 29 33  1  0
 30 39  1  0
 31 41  1  0
 37 41  2  0
 38 41  2  0
  1 42  1  0
  2 43  1  0
  3 44  1  0
  4 45  1  0
  5 46  1  0
  6 47  1  0
  7 48  1  0
  8 49  1  0
  9 50  1  0
 10 51  1  0
 11 52  1  0
 12 53  1  0
 21 54  1  0
 21 55  1  0
 22 56  1  0
 22 57  1  0
 23 58  1  0
 24 59  1  0
 24 60  1  0
 24 61  1  0
 25 62  1  0
 25 63  1  0
 25 64  1  0
 26 65  1  0
 26 66  1  0
 27 67  1  0
 27 68  1  0
 28 69  1  6
 29 70  1  6
 30 71  1  1
 31 72  1  0
 32 73  1  0
 33 74  1  0
 34 75  1  0
 34 76  1  0
 39 77  1  0
M  CHG  1  34   1
M  END
>  <OMEGA_C>  (47) 
2nzJQBwPxb/EHq3B1jDiQFM50L5xh6rBQYGcQEciur+oJ63BVurNQBzvTj8t5afB7CaIQNZ0fr7z
VqrBSdXSP2YJX8A7MYvBR3UhQJn1s8Bw1YTBD2/vPkVsbMDgQYXBLjWsP26FusDXxH3BPszCQBIV
Fr+clInBOHrgQEqDzr+VIHPBADnuQIbYPT/CmnrBEbPIQMJb3b97IYPBlajVQIgNJT/HuYbBxqSg
QMB8Yj/0iKfBnngrQOmCjsDaBovBTkPyQF9dvb7J+mzB956iPu2xm8BCMX7BZWq1QBWNQcDgTobB
T33OQF3H6T/Kd43B3qfSQAOL7EAX8ZDBH2C1QAfp8ECkyJrBlJ6hQFRM7UDtj4/BuRtpQLVghMCG
dJ3B9B4KQTNnJcBwGUHBQ6GJQMKrC0BtpaTB1fObQHiKnECjwo7B2QF9QDckiMAudZHBXrGeQAOv
O0DWKJvBuB+CQIakgkBkBpfBhTgDQRw/Rb5eRFnBSNmUQPCHQsAl7I3BTAWnQGeW/D8/e5LBPEqI
QLKkxkDNTozBbOzBQHg6gsDvOYLB4yvrQO6MKUA2to7BW74CQdrRUL7FLjDBXizJQH9drb8zR0TB
iEtsQF4vnUCH0Z/BwkBPvwoHosDLq3LBmNn2QJK7gr94R0LBNgfZQDo/HsAHFK/BolgCQcJF8L6U
j6rBJZWJQMMvFMCEWK/BSuvgQLt91z+RJabB4khLQETVQr5bU6rBl8bhP4trJcBz34/BrMVTQEWl
y8ANqYTBUJ6kvk5BPcCGbYXBzGidP2I018AST3TB6LCvQHt6J79rwpDBZh/lQIPKHsDbGmnB8vT9
QBvR1T8EoHbBUInkQJq2zkBslY/BOQLmQLT3A0E+RY7BRdmzQGu2B0FcJ5/BXGCyQAg01kCKd6DB
0jyVQPPfBUFYaozBeIWSQEGXf8Bo7aHBXGFJQMXMocCYNqDBLqA+QNivUcBc0Z7BfIEFQXDLSMAY
mjLBHmEGQYQcTMDrUE/BQ2QbQWb1F8Bzq0DB1NuJQL3zNUCerqvBtMJQQNm5+D95e6LB1AWeQLXh
iUD/UIfBxVG8QNbvoUD98ZHBEmeTQNIJpMBrO5DBKi29QKkMV0Bj7Z3BW1lLQHYQakDOHZPBJ5MS
QUQX3r5slVvByyGMQKfECsAvMJHBnd+OQBI5sj+GCpDBtLCDQM0oyEBkZoTB6BFYQPj3x0BzDJDB
MIdMQCLUjEB12KTB

>  <OMEGA_E>  (47) 
mD/gPg==

>  <OMEGA_NBR>  (47) 
     39422

$$$$
50147876
     RDKit          3D

 90 93  0  0  1  0  0  0  0  0999 V2000
    5.5414   10.2045  -21.7889 C   0  0  0  0  0  0  0  0  0  0  0  0
    6.0456    8.9250  -22.0966 C   0  0  0  0  0  0  0  0  0  0  0  0
    5.7341   10.7490  -20.5035 C   0  0  0  0  0  0  0  0  0  0  0  0
    6.7442    8.1899  -21.1196 C   0  0  0  0  0  0  0  0  0  0  0  0
    6.4296   10.0141  -19.5249 C   0  0  0  0  0  0  0  0  0  0  0  0
    6.8516   -0.0287  -16.7684 C   0  0  0  0  0  0  0  0  0  0  0  0
    8.4299    1.5806  -15.8299 C   0  0  0  0  0  0  0  0  0  0  0  0
    8.1605   -0.6091  -14.7940 C   0  0  0  0  0  0  0  0  0  0  0  0
    6.7711    1.0387  -21.3819 C   0  0  0  0  0  0  0  0  0  0  0  0
    4.9467   -0.4458  -20.7183 C   0  0  0  0  0  0  0  0  0  0  0  0
    7.0548   -1.3788  -21.5148 C   0  0  0  0  0  0  0  0  0  0  0  0
    7.4662    1.2439  -16.8052 C   0  0  0  0  0  0  0  0  0  0  0  0
    7.2218   -0.9653  -15.7809 C   0  0  0  0  0  0  0  0  0  0  0  0
    6.9347    8.7298  -19.8271 C   0  0  0  0  0  0  0  0  0  0  0  0
    8.7532    0.6669  -14.8081 C   0  0  0  0  0  0  0  0  0  0  0  0
    5.4597    0.8551  -20.8897 C   0  0  0  0  0  0  0  0  0  0  0  0
    7.5717   -0.0783  -21.6807 C   0  0  0  0  0  0  0  0  0  0  0  0
    5.7387   -1.5601  -21.0433 C   0  0  0  0  0  0  0  0  0  0  0  0
    7.0864    2.2148  -17.8442 C   0  0  0  0  0  0  0  0  0  0  0  0
    6.6246   -2.3110  -15.7565 C   0  0  0  0  0  0  0  0  0  0  0  0
    5.4974    7.8205  -17.2970 C   0  0  0  0  0  0  0  0  0  0  0  0
    6.0472    5.9104  -18.8595 C   0  0  0  0  0  0  0  0  0  0  0  0
    4.5698    6.8827  -16.5195 C   0  0  0  0  0  0  0  0  0  0  0  0
    6.6413    7.0063  -17.9536 C   0  0  1  0  0  0  0  0  0  0  0  0
    5.0639    5.0237  -18.0550 C   0  0  2  0  0  0  0  0  0  0  0  0
    9.7960    1.0249  -13.7750 C   0  0  0  0  0  0  0  0  0  0  0  0
    3.9306   -3.3484  -17.6515 C   0  0  0  0  0  0  0  0  0  0  0  0
    9.5786   -4.1028  -17.0614 C   0  0  0  0  0  0  0  0  0  0  0  0
    7.6223    7.9127  -18.7436 C   0  0  0  0  0  0  0  0  0  0  0  0
    4.6044    2.0467  -20.5277 C   0  0  0  0  0  0  0  0  0  0  0  0
    4.8900   -4.5392  -17.8400 C   0  0  0  0  0  0  0  0  0  0  0  0
    8.6792   -3.9299  -18.2988 C   0  0  0  0  0  0  0  0  0  0  0  0
    6.0336   -4.5168  -16.8110 C   0  0  0  0  0  0  0  0  0  0  0  0
    7.5759   -2.8913  -18.0393 C   0  0  0  0  0  0  0  0  0  0  0  0
    4.3446    3.9961  -18.9457 C   0  0  2  0  0  0  0  0  0  0  0  0
    5.3237    2.9515  -19.5080 C   0  0  1  0  0  0  0  0  0  0  0  0
    5.8208    2.1164  -18.4058 N   0  0  0  0  0  0  0  0  0  0  0  0
    6.7606   -3.2169  -16.8322 N   0  0  0  0  0  0  0  0  0  0  0  0
    4.0219    5.8650  -17.4308 N   0  0  0  0  0  0  0  0  0  0  0  0
    7.8619    3.1063  -18.1738 O   0  0  0  0  0  0  0  0  0  0  0  0
    6.0447   -2.6457  -14.7291 O   0  0  0  0  0  0  0  0  0  0  0  0
    3.6746    4.6693  -20.0135 O   0  0  0  0  0  0  0  0  0  0  0  0
    8.8329    0.0989  -22.1342 F   0  0  0  0  0  0  0  0  0  0  0  0
    5.2344   -2.8053  -20.8997 F   0  0  0  0  0  0  0  0  0  0  0  0
    5.0067   10.7684  -22.5390 H   0  0  0  0  0  0  0  0  0  0  0  0
    5.8963    8.5084  -23.0817 H   0  0  0  0  0  0  0  0  0  0  0  0
    5.3481   11.7301  -20.2693 H   0  0  0  0  0  0  0  0  0  0  0  0
    7.1350    7.2117  -21.3581 H   0  0  0  0  0  0  0  0  0  0  0  0
    6.5775   10.4332  -18.5406 H   0  0  0  0  0  0  0  0  0  0  0  0
    6.0972   -0.2843  -17.4978 H   0  0  0  0  0  0  0  0  0  0  0  0
    8.9208    2.5419  -15.8676 H   0  0  0  0  0  0  0  0  0  0  0  0
    8.4264   -1.3176  -14.0235 H   0  0  0  0  0  0  0  0  0  0  0  0
    7.1585    2.0361  -21.5287 H   0  0  0  0  0  0  0  0  0  0  0  0
    3.9459   -0.5864  -20.3375 H   0  0  0  0  0  0  0  0  0  0  0  0
    7.6673   -2.2369  -21.7490 H   0  0  0  0  0  0  0  0  0  0  0  0
    4.9216    8.3367  -18.0793 H   0  0  0  0  0  0  0  0  0  0  0  0
    5.9269    8.5625  -16.6079 H   0  0  0  0  0  0  0  0  0  0  0  0
    5.5099    6.3821  -19.6954 H   0  0  0  0  0  0  0  0  0  0  0  0
    6.8613    5.2843  -19.2536 H   0  0  0  0  0  0  0  0  0  0  0  0
    5.1373    6.3885  -15.7172 H   0  0  0  0  0  0  0  0  0  0  0  0
    3.7452    7.4638  -16.0809 H   0  0  0  0  0  0  0  0  0  0  0  0
    7.2091    6.5131  -17.1509 H   0  0  0  0  0  0  0  0  0  0  0  0
    5.6259    4.4887  -17.2753 H   0  0  0  0  0  0  0  0  0  0  0  0
    9.3081    1.4944  -12.9081 H   0  0  0  0  0  0  0  0  0  0  0  0
   10.3196    0.1132  -13.4516 H   0  0  0  0  0  0  0  0  0  0  0  0
   10.5200    1.7276  -14.2132 H   0  0  0  0  0  0  0  0  0  0  0  0
    3.1294   -3.3997  -18.4035 H   0  0  0  0  0  0  0  0  0  0  0  0
    3.4909   -3.3878  -16.6440 H   0  0  0  0  0  0  0  0  0  0  0  0
    4.4868   -2.4070  -17.7722 H   0  0  0  0  0  0  0  0  0  0  0  0
   10.3573   -4.8499  -17.2749 H   0  0  0  0  0  0  0  0  0  0  0  0
   10.0515   -3.1408  -16.8147 H   0  0  0  0  0  0  0  0  0  0  0  0
    8.9697   -4.4411  -16.2101 H   0  0  0  0  0  0  0  0  0  0  0  0
    8.3850    7.2759  -19.2156 H   0  0  0  0  0  0  0  0  0  0  0  0
    8.1069    8.6034  -18.0379 H   0  0  0  0  0  0  0  0  0  0  0  0
    4.3924    2.6274  -21.4376 H   0  0  0  0  0  0  0  0  0  0  0  0
    3.6593    1.6920  -20.0906 H   0  0  0  0  0  0  0  0  0  0  0  0
    4.3238   -5.4750  -17.7234 H   0  0  0  0  0  0  0  0  0  0  0  0
    5.3197   -4.4942  -18.8516 H   0  0  0  0  0  0  0  0  0  0  0  0
    9.2950   -3.5958  -19.1469 H   0  0  0  0  0  0  0  0  0  0  0  0
    8.2132   -4.8962  -18.5423 H   0  0  0  0  0  0  0  0  0  0  0  0
    5.6140   -4.6755  -15.8066 H   0  0  0  0  0  0  0  0  0  0  0  0
    6.7410   -5.3260  -17.0449 H   0  0  0  0  0  0  0  0  0  0  0  0
    8.0445   -1.9068  -17.8940 H   0  0  0  0  0  0  0  0  0  0  0  0
    6.9114   -2.8555  -18.9152 H   0  0  0  0  0  0  0  0  0  0  0  0
    3.6049    3.4685  -18.3256 H   0  0  0  0  0  0  0  0  0  0  0  0
    6.1599    3.4657  -20.0043 H   0  0  0  0  0  0  0  0  0  0  0  0
    5.2013    1.4258  -18.0326 H   0  0  0  0  0  0  0  0  0  0  0  0
    3.4037    5.2738  -16.9128 H   0  0  0  0  0  0  0  0  0  0  0  0
    3.5111    6.3284  -18.1550 H   0  0  0  0  0  0  0  0  0  0  0  0
    3.2315    4.0322  -20.5616 H   0  0  0  0  0  0  0  0  0  0  0  0
  1  2  2  0
  1  3  1  0
  2  4  1  0
  3  5  2  0
  4 14  2  0
  5 14  1  0
  6 12  2  0
  6 13  1  0
  7 12  1  0
  7 15  2  0
  8 13  2  0
  8 15  1  0
  9 16  2  0
  9 17  1  0
 10 16  1  0
 10 18  2  0
 11 17  2  0
 11 18  1  0
 12 19  1  0
 13 20  1  0
 14 29  1  0
 15 26  1  0
 16 30  1  0
 17 43  1  0
 18 44  1  0
 19 37  1  0
 19 40  2  0
 20 38  1  0
 20 41  2  0
 21 23  1  0
 21 24  1  0
 22 24  1  0
 22 25  1  0
 23 39  1  0
 24 29  1  0
 25 35  1  0
 25 39  1  0
 27 31  1  0
 28 32  1  0
 30 36  1  0
 31 33  1  0
 32 34  1  0
 33 38  1  0
 34 38  1  0
 35 36  1  0
 35 42  1  0
 36 37  1  0
  1 45  1  0
  2 46  1  0
  3 47  1  0
  4 48  1  0
  5 49  1  0
  6 50  1  0
  7 51  1  0
  8 52  1  0
  9 53  1  0
 10 54  1  0
 11 55  1  0
 21 56  1  0
 21 57  1  0
 22 58  1  0
 22 59  1  0
 23 60  1  0
 23 61  1  0
 24 62  1  1
 25 63  1  1
 26 64  1  0
 26 65  1  0
 26 66  1  0
 27 67  1  0
 27 68  1  0
 27 69  1  0
 28 70  1  0
 28 71  1  0
 28 72  1  0
 29 73  1  0
 29 74  1  0
 30 75  1  0
 30 76  1  0
 31 77  1  0
 31 78  1  0
 32 79  1  0
 32 80  1  0
 33 81  1  0
 33 82  1  0
 34 83  1  0
 34 84  1  0
 35 85  1  1
 36 86  1  6
 37 87  1  0
 39 88  1  0
 39 89  1  0
 42 90  1  0
M  CHG  1  39   1
M  END
>  <OMEGA_C>  (48) 
IFOxQMJFI0GbT67B3nXBQPrMDkHYxbDBXH23QMr7K0FEB6TBHdDXQLAJA0Hn9KjBKL/NQN85IEEB
M5zBf0DbQNRv67ylJYbB8uAGQYZQyj9UR33BNZECQUXvG78NtGzB2azYQPX0hD82DqvBg0ueQI09
5L4Ov6XBMsHhQOB7sL9SHqzBYuvuQOQ3nz8ScYbBFxnnQP8fd7+ifnzB9ejdQFOtC0HdnZ7B+AwM
Qdu7Kj/o7WzB1bWuQCDmWj8KHqfB/0ryQFdEoL0Icq3BXaO3QMKxx7+9WKjB48PiQO6/DUDewI7B
lPzTQPDmE8DUGnzBouqvQEBB+kBYYIrBioLBQNAhvUBV4JbBITySQBA/3EDdJ4TBeoXUQMYz4EAR
oY/BbQuiQBDCoECdcJDBb7wcQRkvgz9+ZlzBxY97QG9LVsBQNo3BCUIZQUtKg8DHfYjB6enzQHk0
/UDc8pXBOFeTQFb9AkCzOKTBqHqcQPZAkcA+uI7BEt4KQSiEe8ADZJLBDRPBQJWJkMDofIbBY23y
QK4LOcCBUJDB9QaLQCrAf0DKkJfBZ1uqQAjmPEBUEJzBSkS6QINzB0AeP5PBD1fYQMLhTcBrqIbB
abOAQDiuu0BacovB5JT7QBrORkD7Y5HB7G3BQAhTKcBCqmvBkixrQL1qlUC7G6DBrFMNQTWayj3l
ErHBjYCnQImJM8CBMqfBSDegQEpLLEHGT7TB2668QDkiCEFkp7jBbCOrQFOuO0F1J6LBF1LkQKDG
5kB13arBkXrSQGDuJkEWU5TBYhzDQIGJkb5l+4vBhbsOQaytIkCU4X3BstIGQf2nqL8XYGDBpBLl
QHJPAkDWOqzBpYl8QAAgFr89s6LBtFr1QNUpD8Dr/a3BEn6dQD9jBUF6opDBVKm9QO7/CEH83ITB
xVCwQGI6zEBDkJ3Boo/bQFAZqUB3B5rBJmWkQIduzEB7eXvBuLFvQJTX7kDBpYDBNrHmQJ5r0EAi
NYnBeAe0QKmjj0DDM4rB6O0UQTVHvz+rh07BRB0lQa7A5z3pOVfBu1EoQeUi3T9waWPBqUhIQEWV
WcBJOpPBe2pfQCTSWMD4JoXBtZOPQEMMGsCBLY7BaLclQUcym8AKM4rB5NIgQXcCScB+hIbB5IMP
QXkdjsA7roHBGSkGQUHU6ECMuZnB17UBQaOnCUGYTZDBho6MQOYmKEAkgKvBszJqQN6U2D9zuaDB
Q1yKQG8zr8B4yY3BuzqqQH/Qj8AB0JbBWLgUQU8iZsDPLJnBWGkDQWStnMCMVpTBLKazQICdlcDR
53zBC7bXQNpuqsABXIjBXrYAQSQT9L8DJ4/BCyrdQPG/NsBWUpfBVLdmQIb8XUC8mpLB0h3FQL/O
XUC+CKDBT3GmQCqBtj/QQpDBitZZQCHDqEB2TYfBm7ZgQDOCykBwPZHBm9FOQNAHgUAafqTB

>  <OMEGA_E>  (48) 
ANPdPA==

>  <OMEGA_NBR>  (48) 
      1787

$$$$
50209132
     RDKit          3D

 86 88  0  0  1  0  0  0  0  0999 V2000
    6.8469   -0.0284  -16.7512 C   0  0  0  0  0  0  0  0  0  0  0  0
    8.4363    1.5710  -15.8150 C   0  0  0  0  0  0  0  0  0  0  0  0
    8.1438   -0.6109  -14.7693 C   0  0  0  0  0  0  0  0  0  0  0  0
    6.7819    1.0655  -21.4012 C   0  0  0  0  0  0  0  0  0  0  0  0
    4.9928   -0.4519  -20.7169 C   0  0  0  0  0  0  0  0  0  0  0  0
    7.1072   -1.3456  -21.5442 C   0  0  0  0  0  0  0  0  0  0  0  0
    7.4722    1.2395  -16.7916 C   0  0  0  0  0  0  0  0  0  0  0  0
    7.2045   -0.9625  -15.7565 C   0  0  0  0  0  0  0  0  0  0  0  0
    8.7478    0.6591  -14.7878 C   0  0  0  0  0  0  0  0  0  0  0  0
    5.4805    0.8592  -20.8932 C   0  0  0  0  0  0  0  0  0  0  0  0
    7.5998   -0.0356  -21.7081 C   0  0  0  0  0  0  0  0  0  0  0  0
    5.8006   -1.5520  -21.0569 C   0  0  0  0  0  0  0  0  0  0  0  0
    7.0980    2.2139  -17.8311 C   0  0  0  0  0  0  0  0  0  0  0  0
    6.5948   -2.3015  -15.7244 C   0  0  0  0  0  0  0  0  0  0  0  0
    5.4671    7.8990  -17.4036 C   0  0  0  0  0  0  0  0  0  0  0  0
    6.0356    5.9928  -18.9886 C   0  0  0  0  0  0  0  0  0  0  0  0
    4.6560    6.9146  -16.5560 C   0  0  0  0  0  0  0  0  0  0  0  0
    6.6063    7.1545  -18.1423 C   0  0  1  0  0  0  0  0  0  0  0  0
    5.1284    5.0752  -18.1128 C   0  0  2  0  0  0  0  0  0  0  0  0
    9.7855    1.0140  -13.7489 C   0  0  0  0  0  0  0  0  0  0  0  0
    6.0979    8.7470  -21.0904 C   0  0  0  0  0  0  0  0  0  0  0  0
    9.5395   -4.1636  -17.0392 C   0  0  0  0  0  0  0  0  0  0  0  0
    3.9190   -3.4143  -17.7186 C   0  0  0  0  0  0  0  0  0  0  0  0
    4.6164    2.0408  -20.5140 C   0  0  0  0  0  0  0  0  0  0  0  0
    7.5025    8.1281  -18.9741 C   0  0  0  0  0  0  0  0  0  0  0  0
    6.8013    9.2453  -19.8139 C   0  0  0  0  0  0  0  0  0  0  0  0
    8.6292   -3.9703  -18.2656 C   0  0  0  0  0  0  0  0  0  0  0  0
    4.9171   -4.5800  -17.8501 C   0  0  0  0  0  0  0  0  0  0  0  0
    7.5582   -2.9009  -17.9946 C   0  0  0  0  0  0  0  0  0  0  0  0
    6.0028   -4.5154  -16.7626 C   0  0  0  0  0  0  0  0  0  0  0  0
    4.3827    4.0064  -18.9344 C   0  0  2  0  0  0  0  0  0  0  0  0
    5.3463    2.9518  -19.5029 C   0  0  1  0  0  0  0  0  0  0  0  0
    5.8388    2.1127  -18.4029 N   0  0  0  0  0  0  0  0  0  0  0  0
    6.7290   -3.2146  -16.7931 N   0  0  0  0  0  0  0  0  0  0  0  0
    4.0942    5.8770  -17.4305 N   0  0  0  0  0  0  0  0  0  0  0  0
    7.8676    3.1152  -18.1482 O   0  0  0  0  0  0  0  0  0  0  0  0
    6.0201   -2.6286  -14.6915 O   0  0  0  0  0  0  0  0  0  0  0  0
    3.6543    4.6365  -19.9889 O   0  0  0  0  0  0  0  0  0  0  0  0
    8.8584    0.1671  -22.1580 F   0  0  0  0  0  0  0  0  0  0  0  0
    5.3239   -2.8078  -20.9080 F   0  0  0  0  0  0  0  0  0  0  0  0
    6.0944   -0.2820  -17.4832 H   0  0  0  0  0  0  0  0  0  0  0  0
    8.9367    2.5272  -15.8556 H   0  0  0  0  0  0  0  0  0  0  0  0
    8.4017   -1.3184  -13.9952 H   0  0  0  0  0  0  0  0  0  0  0  0
    7.1488    2.0697  -21.5540 H   0  0  0  0  0  0  0  0  0  0  0  0
    4.0006   -0.6112  -20.3214 H   0  0  0  0  0  0  0  0  0  0  0  0
    7.7309   -2.1917  -21.7919 H   0  0  0  0  0  0  0  0  0  0  0  0
    4.8048    8.3744  -18.1421 H   0  0  0  0  0  0  0  0  0  0  0  0
    5.9008    8.6701  -16.7499 H   0  0  0  0  0  0  0  0  0  0  0  0
    5.4409    6.4059  -19.8167 H   0  0  0  0  0  0  0  0  0  0  0  0
    6.8670    5.3983  -19.3953 H   0  0  0  0  0  0  0  0  0  0  0  0
    5.3109    6.4486  -15.8050 H   0  0  0  0  0  0  0  0  0  0  0  0
    3.8401    7.4505  -16.0489 H   0  0  0  0  0  0  0  0  0  0  0  0
    7.2511    6.7063  -17.3720 H   0  0  0  0  0  0  0  0  0  0  0  0
    5.7586    4.5713  -17.3651 H   0  0  0  0  0  0  0  0  0  0  0  0
    9.2947    1.4913  -12.8879 H   0  0  0  0  0  0  0  0  0  0  0  0
   10.2997    0.0999  -13.4174 H   0  0  0  0  0  0  0  0  0  0  0  0
   10.5180    1.7091  -14.1851 H   0  0  0  0  0  0  0  0  0  0  0  0
    5.6365    9.5987  -21.6117 H   0  0  0  0  0  0  0  0  0  0  0  0
    6.8349    8.2680  -21.7518 H   0  0  0  0  0  0  0  0  0  0  0  0
    5.3200    8.0180  -20.8194 H   0  0  0  0  0  0  0  0  0  0  0  0
   10.2947   -4.9324  -17.2600 H   0  0  0  0  0  0  0  0  0  0  0  0
   10.0415   -3.2141  -16.8020 H   0  0  0  0  0  0  0  0  0  0  0  0
    8.9327   -4.4824  -16.1789 H   0  0  0  0  0  0  0  0  0  0  0  0
    3.1584   -3.4911  -18.5096 H   0  0  0  0  0  0  0  0  0  0  0  0
    3.4300   -3.4597  -16.7343 H   0  0  0  0  0  0  0  0  0  0  0  0
    4.4557   -2.4592  -17.8177 H   0  0  0  0  0  0  0  0  0  0  0  0
    4.3820    2.6212  -21.4185 H   0  0  0  0  0  0  0  0  0  0  0  0
    3.6832    1.6746  -20.0612 H   0  0  0  0  0  0  0  0  0  0  0  0
    8.1817    8.6288  -18.2684 H   0  0  0  0  0  0  0  0  0  0  0  0
    8.0884    7.5139  -19.6738 H   0  0  0  0  0  0  0  0  0  0  0  0
    7.5636    9.9817  -20.1083 H   0  0  0  0  0  0  0  0  0  0  0  0
    6.0487    9.7317  -19.1759 H   0  0  0  0  0  0  0  0  0  0  0  0
    9.2427   -3.6557  -19.1228 H   0  0  0  0  0  0  0  0  0  0  0  0
    8.1338   -4.9241  -18.4997 H   0  0  0  0  0  0  0  0  0  0  0  0
    4.3716   -5.5305  -17.7551 H   0  0  0  0  0  0  0  0  0  0  0  0
    5.3973   -4.5300  -18.8385 H   0  0  0  0  0  0  0  0  0  0  0  0
    8.0575   -1.9336  -17.8361 H   0  0  0  0  0  0  0  0  0  0  0  0
    6.8975   -2.8330  -18.8714 H   0  0  0  0  0  0  0  0  0  0  0  0
    5.5295   -4.6376  -15.7771 H   0  0  0  0  0  0  0  0  0  0  0  0
    6.7227   -5.3307  -16.9272 H   0  0  0  0  0  0  0  0  0  0  0  0
    3.6792    3.4939  -18.2618 H   0  0  0  0  0  0  0  0  0  0  0  0
    6.1850    3.4556  -20.0057 H   0  0  0  0  0  0  0  0  0  0  0  0
    5.2200    1.4165  -18.0391 H   0  0  0  0  0  0  0  0  0  0  0  0
    3.5303    5.2645  -16.8765 H   0  0  0  0  0  0  0  0  0  0  0  0
    3.5247    6.3186  -18.1237 H   0  0  0  0  0  0  0  0  0  0  0  0
    3.1948    3.9769  -20.4951 H   0  0  0  0  0  0  0  0  0  0  0  0
  1  7  2  0
  1  8  1  0
  2  7  1  0
  2  9  2  0
  3  8  2  0
  3  9  1  0
  4 10  2  0
  4 11  1  0
  5 10  1  0
  5 12  2  0
  6 11  2  0
  6 12  1  0
  7 13  1  0
  8 14  1  0
  9 20  1  0
 10 24  1  0
 11 39  1  0
 12 40  1  0
 13 33  1  0
 13 36  2  0
 14 34  1  0
 14 37  2  0
 15 17  1  0
 15 18  1  0
 16 18  1  0
 16 19  1  0
 17 35  1  0
 18 25  1  0
 19 31  1  0
 19 35  1  0
 21 26  1  0
 22 27  1  0
 23 28  1  0
 24 32  1  0
 25 26  1  0
 27 29  1  0
 28 30  1  0
 29 34  1  0
 30 34  1  0
 31 32  1  0
 31 38  1  0
 32 33  1  0
  1 41  1  0
  2 42  1  0
  3 43  1  0
  4 44  1  0
  5 45  1  0
  6 46  1  0
 15 47  1  0
 15 48  1  0
 16 49  1  0
 16 50  1  0
 17 51  1  0
 17 52  1  0
 18 53  1  1
 19 54  1  1
 20 55  1  0
 20 56  1  0
 20 57  1  0
 21 58  1  0
 21 59  1  0
 21 60  1  0
 22 61  1  0
 22 62  1  0
 22 63  1  0
 23 64  1  0
 23 65  1  0
 23 66  1  0
 24 67  1  0
 24 68  1  0
 25 69  1  0
 25 70  1  0
 26 71  1  0
 26 72  1  0
 27 73  1  0
 27 74  1  0
 28 75  1  0
 28 76  1  0
 29 77  1  0
 29 78  1  0
 30 79  1  0
 30 80  1  0
 31 81  1  1
 32 82  1  6
 33 83  1  0
 35 84  1  0
 35 85  1  0
 38 86  1  0
M  CHG  1  35   1
M  END
>  <OMEGA_C>  (49) 
1xnbQHy/6LyCAobB5foGQdAVyT8QCn3BJk0CQbRgHL84T2zBUgXZQMdiiD+0NavBSMWfQDRi575B
vKXB123jQAA7rL91WqzB3BvvQIGpnj80VYbBFovmQIhkdr+FGnzBCPcLQR+6KD/xmmzBKmCvQLDx
Wz8/JafBWDHzQMC6Eb0rqq3BJp65QFupxr+MdKjBiCLjQJ2wDUAGpo7BnwjTQEFLE8AXl3vBq/Ku
QGXE/ECTOovBWiPBQKnEv0C46JfBVv6UQIFE3UCZcoTBJGfTQOfx5EBkI5HBCRykQCpookDu5pDB
RJEcQeXKgT+x+1vB4iHDQL3zC0EkuajB3KEYQY88hcBIUIjBTtB6QJODWsC2v43B6LmTQNGcAkCb
HKTBhhTwQKIMAkHzypfBI6TZQOzsE0HVgp7BNxEKQRYZfsD2H5LBoVidQCWPksAFzY7B8tzxQJin
OcD39I/BKRfAQAV+kMC8GYbBHT+MQC80gEC7eZfBqRSrQJfqPED9BZzBbde6QMU2B0AQOZPBQlTX
QFu7TcAwWIbB6wODQBwQvECScYvBpMP7QKhfR0CIL5HB3KTAQDI7KMCOEGvB0eBpQDlelEBL6Z/B
3bsNQWwZKz5/Q7HBI12qQFOzM8CXQ6fBUAXDQPVbkL6v3YvBiPwOQYm9IUCZsH3BYm0GQW/BqL9l
7F/BKMPkQEh2BECWbqzBlgSAQNV6HL9MkqLBOGP3QDBFDMDgVa7BA8GZQF/9BUH7IpHBFdO8QNW4
CkHe/4XB1RuuQFX9zECPiJ7BWb7bQL2+rEB7KZvBO/OpQIxazkBe4XzBMsR1QCZq7kApZIDBWgno
QCWa1kDa+YrBI0a4QOhHkkDB64rBNbcUQcbjvj/9NE7BvcskQVydzD2BrVbBmUkoQSPF2j8m9mLB
MF60QDOUGUHL5KzBK7faQMRJBEGpA67BJz2qQNBJAEE4jqbBKbckQdDVncCFFIrBMKogQTSzTcCC
aobBOOwOQTdwj8BoboHBOCNKQENuX8CgE5TBN4VbQEBrXcDa34XB9ZSOQB9kHcCuio7BlTmMQLTB
J0AgWavB/rlrQFda1j9OfaDBM+gCQagPCkG8JZLBHGoBQTpy8EDlY53B1QjyQCS1H0G03aDB0o7B
QC+1G0FCaJnB9+ETQVT3acBp+5jB/yMCQUeSncBP/5PBKuSLQJT5sMBnCo7Bg7asQAP2kMA7tZbB
sOsAQemA9788sI7BFrjcQBJQNcCv+JbB1PGwQBpnlMAzb3zBWiDXQMWUqsDsaofBvndrQEWbX0BC
GJLBWOvFQGYoXUCtC6DB9gmnQC9QtT8GUJDBYfBhQN12qEANA4fBX5RhQEQyykBF/ZDBondMQK6F
fkAH9qPBKCnbQKB93bwFDYbBVQoHQfgIyT+dHn3Bg3gCQb/sHb+8g2zBdG7ZQGBAhz9aPKvBlg2g
QJgG6r5NxqXBlpvjQO10rb+XaKzBPAXvQHgcnz9BVobBqLLmQLr/dr+0QnzBVo0MQTIaJD++Gm3B
MruvQDIwWj8NMqfBnoPzQCRLPr3qsq3Bjsu5QPx3x78WgKjBfOXiQCUSDkDyoI7BzjHTQLKOE8Az
33vBgAyuQCpq+0C53YrBFhPBQDRSv0APtZfBilSUQDlj20ATM4TBWt7SQEkr5EAYxZDBesCjQHR9
oUA45JDBAXocQU5Egj/O7FvB2srFQHipC0GgrqjBs+d5QK0eVcBTLY3Bq64YQSWrhMB4aYjBOP2T
QOsfAkCfOqTBppDvQE/6AUGpOJfBGiTZQPenE0GSE57BPoabQMvDkMD9rI7BLlIKQZa/fMAuS5LB
cPG/QIpHkMD7Y4bBtvDxQPInOcDaJJDBjBWMQCD2f0AHspfB/B6rQLaPPECNJJzBcrS6QBk9B0A5
RZPBVJHXQDu3TcBEhobBcIWCQJ2dukD5VovBEoz7QCqwR0CWLJHB9ILAQBK8KMC6cmvB8WhrQJX6
lECoK6DBUegNQakZHD6jS7HBuGqqQF/7M8CxTKfBBhjDQBY6j76p6YvBG7kOQUVpIkD9gH3BLFgG
QaaiqL9j8l/BWEblQNjZA0CubqzBuk+AQDg6Hb+9mKLByXX3QIr7DMAvaq7BttKYQJhNBUEqxZDB
HIq7QNYGCkEdkIXBKFquQFPUzEChWZ7BU+fbQM6KrEAe75rB3mWpQIctzEC0hnzBmk90QF4f7EDz
D4DBfVrnQHqY1UBGnIrBXby3QA3KkECr+IrBGQMUQTE6vj/Hb07BZM4kQe4P6j1uUVbBszQoQeUE
3T8thWLBfc+2QDsjGUEk7azBcTzfQL3DBEHOsK3BjIOtQIS8/kAYAafBlt5GQHsKWMBFOpPBvmhd
QAa/V8AKI4XB3eOOQAX+GMARGI7BPO0kQcX1nMCqKorBDYUgQa9oTMBhZIbBcdwOQdtUj8AMnYHB
zp6MQHIWJ0AFfavBMSBsQPFq1T8xo6DBWS4CQeQvCkGkbZHBBqYBQbS78EAbs5zBx/TwQKkQIEFK
8p/B4ju/QC2rGkGUQpnBY0WJQFanrsCZyo3B4XSpQNVGj8Cgv5bBfz8UQROxZ8AcEZnB4pYCQQ35
nMDHSZTBhkmyQDI8lcD5v3zBGWzWQKhaqsCVOYjBisIAQYej9b/M5Y7Bd8HcQJWBNcAxKJfBBOZp
QKoHX0C+fpLB5QnGQIrGXECjIqDBTN2mQM12tT80XZDBYQ9hQF+kpkDu/4bBU4pgQPMNyUCs1JDB
DidOQAJRgEC8YKTBFRbdQNfS1L1PJIbBe6MIQXzPvT8EJH7B/6wDQdVuLr+ezWzB6mvYQEQPiT+l
eKvBt1mhQKax8r5AJaXBtwXlQGiyqr9GBqzBMqrxQJLekz9fsYbB++3nQIycgr9uAnzBoiQOQV6y
ED+U9m3BHnivQKnVVz+YDafBEVHzQIdGh7zA163Bcga8QDTIx7+QsKfBs8DkQKUNCUBq2I7BChTP
QBq/EMCTgnnBg8GsQP2h/UAh4ozBLsvBQHSdvECg3pfBAeSUQNnB30BJOYXBvT/SQPZh5UC3JZLB
rZKkQKANoUCggZDBlBkeQX5Idj+n71zBh9LAQH36H0F0jaLBenGFQBmOUsB1p43BKFwXQRndacBW
iZfB1Y6TQPKfAEBK2aPBprvsQJQTAUGa75nBx2bVQMDHCUHPI6TBxPKgQMAIksCF1YzBs/kDQUyE
Q8BN1ZHBanC8QFU7k8CViILBxd0CQd1zaMCbeIbB22uMQFNxfEDO2ZbBDiarQCIIOkBMtZvB/9e7
QNCBA0CQF5PBbyDbQNUGXsBFp4HBKluDQEGyu0AkW4vB3Q/9QMkaQ0BFcZHB6suuQFVwDcA8am7B
3NxmQBnYkUDnFp/BG34NQRGMUj5sxrHBf2yuQFCnNMCg3aXByPzEQA9Lur6n+YvB9IwQQURIHEBB
4n7BIbcHQZRXsL8SOmDBUhLjQNkYBUD7Bq3BRBeCQHv3Jb8dvKHBZn/5QGTZCsA/9K3B5aGWQFl0
BEHYHpPBgEO5QCOcDEF+ZojB7WivQF82xkDv+p7B53LdQNg3qUAqWJrBaiGrQDy000BzNX7BglV1
QGhP8UAaU4HB8/TnQIkI20CnuIvBWH+4QEqdkUAhXYrBa64VQQ43uj9spE/BhVUmQRCogz2O91bB
fOcpQfHv0z/NzmPBSSGxQKwBJUGLBKrBwu+oQLIdH0FjGpzBfrjZQOWmK0HGZqDBclNlQJtHVMAI
GJXBREhfQKktT8AbwobB32CaQOb1GcCSsY3BPl0YQTnxT8Drs5/BxQAmQcZkWcAQHJPB3qsVQWjw
l8Cq5pfBUauLQKuFJkB2/6rB0NBrQKWt0D9rNKDBMAr4QHv8DkFAWJXBCC8EQYlD70CGqJzBfBy8
QHvC/ECxXqbBOOXsQHDqCkEUq6rB3aOLQDgNrsAD34zBmmC2QFdxk8B7zpPBPKAFQVP/+r/sb5HB
qZbqQLP7U8CGOpbBuN2mQFtGksAFK3fBV63OQDBWscBNc4LBM7kGQYSLlsB1zYbBeLAOQehOR8A1
cIHBsx9uQBnYWkDdQZHB847FQE5iW0AixJ/B1kCoQL0prj8eEJDBbs9kQIk0qUCUY4bBfztgQNJS
x0CmDJHB7SdJQH3KeECT/aLB

>  <OMEGA_E>  (49) 
UINwPrD0az6QkeE+

>  <OMEGA_NBR>  (49) 
      6071

$$$$
50209144
     RDKit          3D

 93 96  0  0  1  0  0  0  0  0999 V2000
    5.3929   10.5323  -21.6590 C   0  0  0  0  0  0  0  0  0  0  0  0
    5.8373   10.8528  -20.3609 C   0  0  0  0  0  0  0  0  0  0  0  0
    5.7298    9.2918  -22.2343 C   0  0  0  0  0  0  0  0  0  0  0  0
    6.6480    9.9472  -19.6499 C   0  0  0  0  0  0  0  0  0  0  0  0
    6.5226    8.3775  -21.5177 C   0  0  0  0  0  0  0  0  0  0  0  0
    6.8770   -0.0515  -16.7474 C   0  0  0  0  0  0  0  0  0  0  0  0
    8.5070    1.5222  -15.8377 C   0  0  0  0  0  0  0  0  0  0  0  0
    8.2144   -0.6642  -14.8025 C   0  0  0  0  0  0  0  0  0  0  0  0
    6.7866    1.0581  -21.3656 C   0  0  0  0  0  0  0  0  0  0  0  0
    4.9924   -0.4488  -20.6704 C   0  0  0  0  0  0  0  0  0  0  0  0
    7.0787   -1.3550  -21.5484 C   0  0  0  0  0  0  0  0  0  0  0  0
    7.5164    1.2068  -16.7931 C   0  0  0  0  0  0  0  0  0  0  0  0
    7.2475   -0.9967  -15.7700 C   0  0  0  0  0  0  0  0  0  0  0  0
    6.9932    8.7024  -20.2267 C   0  0  0  0  0  0  0  0  0  0  0  0
    8.8330    0.5992  -14.8251 C   0  0  0  0  0  0  0  0  0  0  0  0
    5.4909    0.8573  -20.8421 C   0  0  0  0  0  0  0  0  0  0  0  0
    7.5850   -0.0487  -21.7033 C   0  0  0  0  0  0  0  0  0  0  0  0
    5.7793   -1.5524  -21.0385 C   0  0  0  0  0  0  0  0  0  0  0  0
    7.1364    2.1827  -17.8234 C   0  0  0  0  0  0  0  0  0  0  0  0
    6.6248   -2.3287  -15.7407 C   0  0  0  0  0  0  0  0  0  0  0  0
    5.4894    7.7750  -17.2091 C   0  0  0  0  0  0  0  0  0  0  0  0
    6.1192    5.8060  -18.6118 C   0  0  0  0  0  0  0  0  0  0  0  0
    4.3871    6.9387  -16.5463 C   0  0  0  0  0  0  0  0  0  0  0  0
    6.6436    6.8309  -17.5919 C   0  0  1  0  0  0  0  0  0  0  0  0
    4.9939    4.9819  -17.9452 C   0  0  2  0  0  0  0  0  0  0  0  0
    9.9052    0.9307  -13.8136 C   0  0  0  0  0  0  0  0  0  0  0  0
    3.8931   -3.3569  -17.6162 C   0  0  0  0  0  0  0  0  0  0  0  0
    9.5359   -4.1772  -17.1104 C   0  0  0  0  0  0  0  0  0  0  0  0
    8.0426    7.8093  -19.5930 C   0  0  0  0  0  0  0  0  0  0  0  0
    4.6297    2.0360  -20.4657 C   0  0  0  0  0  0  0  0  0  0  0  0
    7.9064    7.5901  -18.0689 C   0  0  0  0  0  0  0  0  0  0  0  0
    4.8518   -4.5459  -17.8149 C   0  0  0  0  0  0  0  0  0  0  0  0
    8.6133   -3.9780  -18.3263 C   0  0  0  0  0  0  0  0  0  0  0  0
    5.9964   -4.5275  -16.7876 C   0  0  0  0  0  0  0  0  0  0  0  0
    7.5403   -2.9164  -18.0355 C   0  0  0  0  0  0  0  0  0  0  0  0
    4.3432    3.9844  -18.9140 C   0  0  2  0  0  0  0  0  0  0  0  0
    5.3458    2.9491  -19.4520 C   0  0  1  0  0  0  0  0  0  0  0  0
    5.8483    2.1254  -18.3428 N   0  0  0  0  0  0  0  0  0  0  0  0
    6.7364   -3.2351  -16.8184 N   0  0  0  0  0  0  0  0  0  0  0  0
    3.9192    5.8855  -17.4685 N   0  0  0  0  0  0  0  0  0  0  0  0
    7.9411    3.0317  -18.1902 O   0  0  0  0  0  0  0  0  0  0  0  0
    6.0549   -2.6557  -14.7053 O   0  0  0  0  0  0  0  0  0  0  0  0
    3.7559    4.6972  -20.0038 O   0  0  0  0  0  0  0  0  0  0  0  0
    8.8348    0.1442  -22.1811 F   0  0  0  0  0  0  0  0  0  0  0  0
    5.2863   -2.8027  -20.8986 F   0  0  0  0  0  0  0  0  0  0  0  0
    4.7931   11.2388  -22.2136 H   0  0  0  0  0  0  0  0  0  0  0  0
    5.5562   11.7936  -19.9111 H   0  0  0  0  0  0  0  0  0  0  0  0
    5.3796    9.0427  -23.2251 H   0  0  0  0  0  0  0  0  0  0  0  0
    7.0063   10.2029  -18.6637 H   0  0  0  0  0  0  0  0  0  0  0  0
    6.7726    7.4229  -21.9567 H   0  0  0  0  0  0  0  0  0  0  0  0
    6.1032   -0.2897  -17.4622 H   0  0  0  0  0  0  0  0  0  0  0  0
    9.0160    2.4736  -15.8835 H   0  0  0  0  0  0  0  0  0  0  0  0
    8.4822   -1.3812  -14.0404 H   0  0  0  0  0  0  0  0  0  0  0  0
    7.1638    2.0603  -21.5066 H   0  0  0  0  0  0  0  0  0  0  0  0
    4.0066   -0.6014  -20.2565 H   0  0  0  0  0  0  0  0  0  0  0  0
    7.6867   -2.2052  -21.8204 H   0  0  0  0  0  0  0  0  0  0  0  0
    5.0940    8.2648  -18.1112 H   0  0  0  0  0  0  0  0  0  0  0  0
    5.8511    8.5393  -16.5056 H   0  0  0  0  0  0  0  0  0  0  0  0
    5.7226    6.3300  -19.4939 H   0  0  0  0  0  0  0  0  0  0  0  0
    6.9365    5.1371  -18.9193 H   0  0  0  0  0  0  0  0  0  0  0  0
    4.7853    6.4714  -15.6336 H   0  0  0  0  0  0  0  0  0  0  0  0
    3.5427    7.5934  -16.2847 H   0  0  0  0  0  0  0  0  0  0  0  0
    6.9236    6.2745  -16.6852 H   0  0  0  0  0  0  0  0  0  0  0  0
    5.4165    4.4286  -17.0936 H   0  0  0  0  0  0  0  0  0  0  0  0
    9.4462    1.4071  -12.9347 H   0  0  0  0  0  0  0  0  0  0  0  0
   10.4160    0.0067  -13.5047 H   0  0  0  0  0  0  0  0  0  0  0  0
   10.6346    1.6195  -14.2648 H   0  0  0  0  0  0  0  0  0  0  0  0
    3.0900   -3.4033  -18.3665 H   0  0  0  0  0  0  0  0  0  0  0  0
    3.4558   -3.4032  -16.6079 H   0  0  0  0  0  0  0  0  0  0  0  0
    4.4488   -2.4146  -17.7319 H   0  0  0  0  0  0  0  0  0  0  0  0
   10.2928   -4.9402  -17.3448 H   0  0  0  0  0  0  0  0  0  0  0  0
   10.0355   -3.2272  -16.8698 H   0  0  0  0  0  0  0  0  0  0  0  0
    8.9388   -4.5063  -16.2472 H   0  0  0  0  0  0  0  0  0  0  0  0
    7.9885    6.8254  -20.0819 H   0  0  0  0  0  0  0  0  0  0  0  0
    9.0282    8.2593  -19.7827 H   0  0  0  0  0  0  0  0  0  0  0  0
    4.4002    2.6163  -21.3715 H   0  0  0  0  0  0  0  0  0  0  0  0
    3.6941    1.6684  -20.0189 H   0  0  0  0  0  0  0  0  0  0  0  0
    7.9038    8.5792  -17.5876 H   0  0  0  0  0  0  0  0  0  0  0  0
    8.7857    7.0210  -17.7329 H   0  0  0  0  0  0  0  0  0  0  0  0
    4.2866   -5.4829  -17.7030 H   0  0  0  0  0  0  0  0  0  0  0  0
    5.2795   -4.4943  -18.8271 H   0  0  0  0  0  0  0  0  0  0  0  0
    9.2170   -3.6531  -19.1866 H   0  0  0  0  0  0  0  0  0  0  0  0
    8.1202   -4.9322  -18.5639 H   0  0  0  0  0  0  0  0  0  0  0  0
    5.5764   -4.6751  -15.7817 H   0  0  0  0  0  0  0  0  0  0  0  0
    6.6956   -5.3452  -17.0166 H   0  0  0  0  0  0  0  0  0  0  0  0
    8.0356   -1.9455  -17.8869 H   0  0  0  0  0  0  0  0  0  0  0  0
    6.8625   -2.8538  -18.8996 H   0  0  0  0  0  0  0  0  0  0  0  0
    3.5577    3.4427  -18.3667 H   0  0  0  0  0  0  0  0  0  0  0  0
    6.1770    3.4688  -19.9511 H   0  0  0  0  0  0  0  0  0  0  0  0
    5.2135    1.4726  -17.9295 H   0  0  0  0  0  0  0  0  0  0  0  0
    3.2322    5.3347  -16.9945 H   0  0  0  0  0  0  0  0  0  0  0  0
    3.5026    6.3259  -18.2638 H   0  0  0  0  0  0  0  0  0  0  0  0
    3.3526    4.0817  -20.6047 H   0  0  0  0  0  0  0  0  0  0  0  0
  1  2  2  0
  1  3  1  0
  2  4  1  0
  3  5  2  0
  4 14  2  0
  5 14  1  0
  6 12  2  0
  6 13  1  0
  7 12  1  0
  7 15  2  0
  8 13  2  0
  8 15  1  0
  9 16  2  0
  9 17  1  0
 10 16  1  0
 10 18  2  0
 11 17  2  0
 11 18  1  0
 12 19  1  0
 13 20  1  0
 14 29  1  0
 15 26  1  0
 16 30  1  0
 17 44  1  0
 18 45  1  0
 19 38  1  0
 19 41  2  0
 20 39  1  0
 20 42  2  0
 21 23  1  0
 21 24  1  0
 22 24  1  0
 22 25  1  0
 23 40  1  0
 24 31  1  0
 25 36  1  0
 25 40  1  0
 27 32  1  0
 28 33  1  0
 29 31  1  0
 30 37  1  0
 32 34  1  0
 33 35  1  0
 34 39  1  0
 35 39  1  0
 36 37  1  0
 36 43  1  0
 37 38  1  0
  1 46  1  0
  2 47  1  0
  3 48  1  0
  4 49  1  0
  5 50  1  0
  6 51  1  0
  7 52  1  0
  8 53  1  0
  9 54  1  0
 10 55  1  0
 11 56  1  0
 21 57  1  0
 21 58  1  0
 22 59  1  0
 22 60  1  0
 23 61  1  0
 23 62  1  0
 24 63  1  1
 25 64  1  1
 26 65  1  0
 26 66  1  0
 26 67  1  0
 27 68  1  0
 27 69  1  0
 27 70  1  0
 28 71  1  0
 28 72  1  0
 28 73  1  0
 29 74  1  0
 29 75  1  0
 30 76  1  0
 30 77  1  0
 31 78  1  0
 31 79  1  0
 32 80  1  0
 32 81  1  0
 33 82  1  0
 33 83  1  0
 34 84  1  0
 34 85  1  0
 35 86  1  0
 35 87  1  0
 36 88  1  1
 37 89  1  6
 38 90  1  0
 40 91  1  0
 40 92  1  0
 43 93  1  0
M  CHG  1  40   1
M  END
>  <OMEGA_C>  (50) 
pZKsQFaEKEG1Ra3Bdcu6QDClLUE446LBlFq3QBirFEHM37HBE7zUQIknH0HvMp3BiLnQQBgKBkFH
JKzBGRDcQHoMU72T+oXB2BwIQeDXwj8pZ33BTm4DQfgJKr/i1mzB3ivZQERxhz/Z7KrBdsGfQMDD
5b4NXaXB54TiQDZwrb8GY6zBDIbwQLZ3mj9DWIbBL+vnQH8nf78QUnzBYcjfQBg9C0FY0KHBJ1QN
QRhmGT/DM23BbrWvQBV6Wz+MvKbBarjyQMpaR71IoK3BAvC4QCe2xr/nTqjBXV3kQOSxC0Bplo7B
dv7TQDwKFcAD2nvBc6mvQM3M+EBTrInBpNDDQM/KuUDe5JTB/GKMQC4K3kDnXoTBMpjUQF+W2kBK
vIzBAc6fQKNrn0DSj4/B53seQbdBbj9jBF3BRCh5QL7WVsDv7YzBNZMYQXirhcAK4ojBYa4AQdnl
+UCBvpzBjyaUQGdNAkC2uaPBFgH9QPrh8kA0jZDB20GbQMR3kcADhY7BJtAJQQKYfsBQnJLB2uK/
QOXgkMD4TIbBJErxQFmmOsCsSJDBZvuKQDUAf0DoT5fBcBCrQNO+PEC+nZvBIiW7QNAGCEASvpLB
TZDXQEELT8AIjIbBXtR6QPRVvEB3v4vBkx3+QMwHQkCLhZHB3MHBQDv3KcDlSGvBa2FwQENPlkDT
B6DBVVsNQRiyEz79crHBLimpQLFeM8BnMKfBZmGZQEjSM0FitbHBDMyxQG6yPEHwSZ/BTSWsQNau
EEHzzLnBQDPgQDA/I0EvT5XB7rjYQFOI7UBdp6/BWk3DQD1VlL59sovBu0EQQR9QHkDaIn7BKLcH
QfDJsL+lpWDBlT3lQL/bA0ByDazBCzaAQAXzGb8+DaLBFvn1QHohDcAtkK7B8QGjQIo8BEHF45DB
XDy7QBWhCEFxC4TBzh+3QE6PykB585vBLvjdQFxjpEC1WpfB6iCZQJwVz0BfI3rBYLtiQMr88kD/
RoLB1Y3dQObIyEBfe4XBt1OtQOy2jUCsv4jB1yMXQQgctD+v9E7B8qcmQXL62ztFE1jBJScqQchL
zz/SPGTBo8JFQLPPWcB+7pLBLyxdQH3NWcDy3ITBdFyOQEOJGsD+2o3BOK8kQWMWnsAbworBi5Eg
QbGJTsBv9YbBRwUPQTszkMAy+oHBt6H/QKFp2kCzp6DBnHMQQSQmBEEDQ57BlM6MQEZxJ0Dm+KrB
5mxsQDeP1T+kJqDBOuz8QE1ECUFns4zBYZIMQVGs4EAD3Y3BiCuJQMZzr8DJn43B5fGoQKnRj8DV
nZbBzngTQXDMacARfpnBiuwBQZrUncDVgpTBC3KyQAialcDZgXzBN0LWQA0Mq8AIIojBApIAQZ8H
+b9xGI/B3pnbQPOkNsBnMpfBpbBjQI1VXEAJ75LBzqnFQMQAXkDDm5/BM9WmQLp8vD+Ib4/B8txO
QNy1qkCu9IfBVSpgQM1tykAvHJLBOpFWQH+dgkBo1qTBz3etQH2cKEF9ea3Blv26QFDMLUGpCaPB
A6C4QKzAFEEWArLBiInUQDhWH0FYN53BmZrRQNgoBkHVJazB5L7cQBgIMb3r74XBaZ4IQUkewz9q
c33B97gDQQrnJ7+iuWzBJjfZQC3Rhj8z3KrBYYSfQJTd476RU6XBmiLiQAU7rr8yWazBW1rxQIoh
mz+GVobBf27oQK9rfL+lL3zBjOvfQDtmC0FSwqHBHsYNQT9TGj9AMW3BI7evQIq8Wz8JrqbBTJLy
QChMa706kq3BrYS4QMq1xr8gRqjBXffkQHEQDEBykI7BfP/TQE3SE8DAk3vBrgOvQIr0+EB7m4nB
y6nDQP3+uUDJzJTBZraLQFgS3kBRWoTBKiPUQGjp2kDHn4zBBLSfQPt5n0CMfI/Btu8eQZvCbj/3
/VzB+S4YQUiOhsBr5YjB8F94QHhCWMCZFo3BUqUAQVhV+kCBj5zBQlqUQJ6PAkAZqqPBPH38QAl7
80CMX5DBnzQJQQMEgMDqiJLBrnWbQKjRkcAOcI7BbsrwQGXGOsDoJpDBgku/QOBokMBNA4bBgxiL
QKS6fkCGN5fBoVarQFDgPEBzjJvBHq+7QJYYCEArs5LBDxbXQMM7TsC/YIbBeix6QIg/vEDiu4vB
2pH+QPSiQkAegpHBRI3BQAm6J8Cg/WrBTPZvQJAElkBd65/BUE8NQUD7Az7QYLHBLY6oQDw3M8CX
JqfB/IaaQK/gM0FuALLBa8KxQFrfPEEJgJ/BYQGuQGy7EEEI+7nBy3DfQOx3I0EvSJXBnt/ZQJjA
7UDnm6/BYPrDQCvaj76pp4vB598QQcowHkBgRn7BTuoHQRR2r793eGDBqHXlQMxtA0Al+avBNNp/
QNW5F78iB6LBu3D1QHG2DcDpiK7BWnSiQCtLBEH81pDBdl+6QNm5CEE/9oPBnP62QMSrykCJ35vB
f/bdQBG3pEDoOpfB0VKYQFY7z0BqC3rBCxZhQFPq8kDLUILBRQndQHMpyUCZW4XByjStQJ3vjUD1
pIjBRpwXQZwutT81+k7BrwMnQY4I6Tur+FfBeq4qQeHCzj/7PGTB9wgkQdtvn8BkzYrBL3sgQey5
UMDAF4fBlLwOQZOIkMAe54HBSxNGQC0+XMCfOZPBXAhbQHEYW8DPGIXB2aqNQF2RG8Dq+Y3Bwr7/
QF7I2kB4caDB33AQQfFdBEEmA57BaBiNQBnGJ0Aw6arBS7lsQD6K1j8JGKDBl/37QA2ZCUHAjozB
BVYMQf6N4UCFmI3BqMASQUJWbMB2gZnBDQIBQb5WnsDUUJTBt7KJQNADsMB4lI3BYtmpQEZAkMCS
dZbBi6IAQYON+r//+o7B5fzaQBzhNcCTCJfBPhWxQFJKlMCaCnzBoMnVQOfIqsAWi4fBBUtkQEex
W0BC0ZLB4MzFQId3XkDmjZ/BLISnQLsLvD8xZY/BZTZOQCqKqkAS94fBn6hfQJ46ykAMH5LBymRW
QJE2gkDut6TBUa+rQEPjJ0Egdq3BifC1QM6lE0FEsrHBMG+6QGrFLUGhOKPBQoXPQMNtBUHfxavB
w2DUQHegH0FiUJ3BC//bQAyLlb2MCYbB5xkIQTRJvz8OYn3BO2YDQXS1Mr9cB23B0MHYQCtEhz+i
MqvBe5GfQDGF474SZaXB0szhQMjDrb8Wq6zBz4HwQEijlz/pWYbBMeznQFRgg79PlHzBpDXfQDxm
C0FpnKHBzEgNQYDzED83QG3B1Y2vQOgiXD842qbBUgHyQCSyVr0gAa7BEXq4QBuGxr+JaajBdXXk
QN+WCkAkko7Brq3TQCO0FsBdGXzB1xqvQFKp+EBTgInBhUDEQE3kuUD6vpTBV/+LQIx83UDoR4TB
+W/UQAzw2kDLiozBcSagQHY9n0B9g4/BxlweQYA9ZT+f91zBYGV3QGtyVcDHtozBJ4kYQc2dgsC2
y4jBtJwAQfES+0DibZzBClCUQN2pAkCGxqPBlXX8QEEl9ECxQZDBwNWYQI8VksCzKY7BcawJQWtT
fsD8kZLBbL6+QLCvkcATTYbBq2fvQN8gPcBKkpDBaX6LQKr2fkDfVZfBO3SrQJB2PEDln5vBfk27
QEgvB0C2xZLB2WLWQCGzUMD+s4bBufZ6QELiu0DMuovBhUv+QJfiQEBbeJHBrqvBQKVhK8AOc2vB
T0FyQE6BlkC5E6DBUdsMQea1DD6yBLLBuaKoQHArM8D4NqfBp32YQKXqMkFCEbLBSCqqQPgMD0HL
fLnBAdexQHYiPUGl5p/BETPXQNW/60CwAq/B4/7fQMU4JEEEgpXBGyHDQCbzm76KvovBI0QQQe2A
HEAKCn7BoaoHQWWktb8+5GDB6N3kQM2xA0BUXazBODaAQELiF7999qHBMw31QPdrDcAE6K7B5XOi
QJ8oBEFsuJDBZ0i6QBGTCEG11IPB68a3QDCEykAe2ZvBW6/eQMKrpEAuHpfBb72YQOtyzkDT+nnB
doNhQP8j8kDwLoLB54ndQBM2yUC2SYXBuoetQHJojUAdtIjBTfEWQbr0rj/65k7B54smQenL67wH
D1jBdgkqQcJByz+TFmTB1jtCQBiUWMA2eJLBlapdQHXAVMDyhYTBGFmOQEzMGsDLHI7BXTklQdIb
msBDcIrBc8gfQWxrRsAdKofBkzkPQQf+jMADy4HBhDMAQWuB20ATUaDBiD4QQZUXBUED353BOBGN
QEtAKEAM/qrBMZ5sQCbG1j/VNaDB6G/7QIPrCUHPb4zBCXIMQXKm4kBOd43BG9WFQCc1r8CAzIzB
6FilQBM7ksBZY5bB6BcTQafQacAxjJnBCIkCQaWwnsAWLZTBT4+yQFiflsCORnzB187UQGnOq8Bh
ZIjBB7P9QN5G+r+6vY/BxozZQGGwPcAteJfB9TVkQDN1XEBGB5PBEDDGQC14XUDal5/BLuemQDKN
uj9Kho/BtvJOQFUNqkDmAYjBwo9gQAALykCKGZLBNaJYQGHwgkC67qTB

>  <OMEGA_E>  (50) 
4GgfPQBwOT0Akho9

>  <OMEGA_NBR>  (50) 
     10638

$$$$
50209146
     RDKit          3D

 96 99  0  0  1  0  0  0  0  0999 V2000
    6.9256    0.0107  -16.7456 C   0  0  0  0  0  0  0  0  0  0  0  0
    8.5785    1.6158  -15.9406 C   0  0  0  0  0  0  0  0  0  0  0  0
    8.3196   -0.5326  -14.8194 C   0  0  0  0  0  0  0  0  0  0  0  0
    6.7364    1.0527  -21.4398 C   0  0  0  0  0  0  0  0  0  0  0  0
    4.9969   -0.4508  -20.6098 C   0  0  0  0  0  0  0  0  0  0  0  0
    7.0627   -1.3615  -21.5293 C   0  0  0  0  0  0  0  0  0  0  0  0
    7.5607    1.2649  -16.8541 C   0  0  0  0  0  0  0  0  0  0  0  0
    7.3193   -0.8957  -15.7427 C   0  0  0  0  0  0  0  0  0  0  0  0
    8.9376    0.7295  -14.9071 C   0  0  0  0  0  0  0  0  0  0  0  0
    5.4662    0.8536  -20.8608 C   0  0  0  0  0  0  0  0  0  0  0  0
    7.5388   -0.0550  -21.7625 C   0  0  0  0  0  0  0  0  0  0  0  0
    5.7908   -1.5573  -20.9539 C   0  0  0  0  0  0  0  0  0  0  0  0
    7.1559    2.1992  -17.9105 C   0  0  0  0  0  0  0  0  0  0  0  0
    6.6627   -2.2067  -15.6366 C   0  0  0  0  0  0  0  0  0  0  0  0
    5.9126    9.4241  -21.9553 C   0  0  0  0  0  0  0  0  0  0  0  0
    6.3577    8.0286  -21.4816 C   0  0  0  0  0  0  0  0  0  0  0  0
    5.4523   10.2998  -20.7717 C   0  0  0  0  0  0  0  0  0  0  0  0
    7.4634    8.1418  -20.4042 C   0  0  0  0  0  0  0  0  0  0  0  0
    6.5483   10.3920  -19.6857 C   0  0  0  0  0  0  0  0  0  0  0  0
    5.7046    6.9015  -16.2710 C   0  0  0  0  0  0  0  0  0  0  0  0
    6.0890    5.7848  -18.5208 C   0  0  0  0  0  0  0  0  0  0  0  0
    4.1754    6.7978  -16.4584 C   0  0  0  0  0  0  0  0  0  0  0  0
    7.0209    9.0015  -19.1906 C   0  0  0  0  0  0  0  0  0  0  0  0
    6.4012    7.0353  -17.6434 C   0  0  1  0  0  0  0  0  0  0  0  0
    4.8952    4.9635  -17.9649 C   0  0  2  0  0  0  0  0  0  0  0  0
   10.0336    1.1044  -13.9367 C   0  0  0  0  0  0  0  0  0  0  0  0
    3.8513   -3.2410  -17.5601 C   0  0  0  0  0  0  0  0  0  0  0  0
    9.7907   -4.2175  -18.3505 C   0  0  0  0  0  0  0  0  0  0  0  0
    4.6084    2.0342  -20.4997 C   0  0  0  0  0  0  0  0  0  0  0  0
    5.9136    8.3443  -18.3244 C   0  0  0  0  0  0  0  0  0  0  0  0
    4.8016   -4.4453  -17.6910 C   0  0  0  0  0  0  0  0  0  0  0  0
    8.9994   -3.5564  -17.2269 C   0  0  0  0  0  0  0  0  0  0  0  0
    5.9149   -4.3922  -16.6335 C   0  0  0  0  0  0  0  0  0  0  0  0
    7.6696   -3.0121  -17.7774 C   0  0  0  0  0  0  0  0  0  0  0  0
    4.2975    3.9812  -18.9786 C   0  0  2  0  0  0  0  0  0  0  0  0
    5.3224    2.9616  -19.4945 C   0  0  1  0  0  0  0  0  0  0  0  0
    5.8437    2.1592  -18.3742 N   0  0  0  0  0  0  0  0  0  0  0  0
    6.6608   -3.1127  -16.7121 N   0  0  0  0  0  0  0  0  0  0  0  0
    3.8129    5.8862  -17.5673 N   0  0  0  0  0  0  0  0  0  0  0  0
    7.9748    2.9911  -18.3619 O   0  0  0  0  0  0  0  0  0  0  0  0
    6.1416   -2.5006  -14.5667 O   0  0  0  0  0  0  0  0  0  0  0  0
    3.7505    4.7051  -20.0825 O   0  0  0  0  0  0  0  0  0  0  0  0
    8.7661    0.1374  -22.2949 F   0  0  0  0  0  0  0  0  0  0  0  0
    5.3290   -2.8070  -20.7339 F   0  0  0  0  0  0  0  0  0  0  0  0
    6.1360   -0.2551  -17.4328 H   0  0  0  0  0  0  0  0  0  0  0  0
    9.0827    2.5662  -16.0347 H   0  0  0  0  0  0  0  0  0  0  0  0
    8.6129   -1.2237  -14.0430 H   0  0  0  0  0  0  0  0  0  0  0  0
    7.0917    2.0538  -21.6347 H   0  0  0  0  0  0  0  0  0  0  0  0
    4.0292   -0.5996  -20.1540 H   0  0  0  0  0  0  0  0  0  0  0  0
    7.6730   -2.2129  -21.7917 H   0  0  0  0  0  0  0  0  0  0  0  0
    6.7572    9.9176  -22.4584 H   0  0  0  0  0  0  0  0  0  0  0  0
    5.0784    9.3125  -22.6636 H   0  0  0  0  0  0  0  0  0  0  0  0
    5.4925    7.4990  -21.0564 H   0  0  0  0  0  0  0  0  0  0  0  0
    6.7477    7.4633  -22.3409 H   0  0  0  0  0  0  0  0  0  0  0  0
    5.2263   11.3113  -21.1402 H   0  0  0  0  0  0  0  0  0  0  0  0
    4.5461    9.8592  -20.3304 H   0  0  0  0  0  0  0  0  0  0  0  0
    7.7149    7.1317  -20.0487 H   0  0  0  0  0  0  0  0  0  0  0  0
    8.3530    8.6028  -20.8581 H   0  0  0  0  0  0  0  0  0  0  0  0
    7.4127   10.9290  -20.1033 H   0  0  0  0  0  0  0  0  0  0  0  0
    6.1474   10.9528  -18.8284 H   0  0  0  0  0  0  0  0  0  0  0  0
    5.9366    7.7847  -15.6578 H   0  0  0  0  0  0  0  0  0  0  0  0
    6.0709    5.9966  -15.7640 H   0  0  0  0  0  0  0  0  0  0  0  0
    5.8453    6.1189  -19.5401 H   0  0  0  0  0  0  0  0  0  0  0  0
    6.9800    5.1404  -18.5494 H   0  0  0  0  0  0  0  0  0  0  0  0
    3.7284    6.4196  -15.5272 H   0  0  0  0  0  0  0  0  0  0  0  0
    3.7757    7.7990  -16.6768 H   0  0  0  0  0  0  0  0  0  0  0  0
    7.9015    9.1548  -18.5494 H   0  0  0  0  0  0  0  0  0  0  0  0
    7.4885    7.0979  -17.4887 H   0  0  0  0  0  0  0  0  0  0  0  0
    5.2385    4.3992  -17.0853 H   0  0  0  0  0  0  0  0  0  0  0  0
    9.5945    1.6122  -13.0652 H   0  0  0  0  0  0  0  0  0  0  0  0
   10.5570    0.1952  -13.6059 H   0  0  0  0  0  0  0  0  0  0  0  0
   10.7474    1.7785  -14.4326 H   0  0  0  0  0  0  0  0  0  0  0  0
    3.0671   -3.3069  -18.3286 H   0  0  0  0  0  0  0  0  0  0  0  0
    3.3882   -3.2464  -16.5624 H   0  0  0  0  0  0  0  0  0  0  0  0
    4.4198   -2.3091  -17.6954 H   0  0  0  0  0  0  0  0  0  0  0  0
   10.7401   -4.6049  -17.9523 H   0  0  0  0  0  0  0  0  0  0  0  0
    9.2045   -5.0472  -18.7725 H   0  0  0  0  0  0  0  0  0  0  0  0
    9.9980   -3.4775  -19.1374 H   0  0  0  0  0  0  0  0  0  0  0  0
    4.3805    2.6037  -21.4128 H   0  0  0  0  0  0  0  0  0  0  0  0
    3.6720    1.6722  -20.0501 H   0  0  0  0  0  0  0  0  0  0  0  0
    5.6049    9.0558  -17.5444 H   0  0  0  0  0  0  0  0  0  0  0  0
    5.0529    8.1095  -18.9680 H   0  0  0  0  0  0  0  0  0  0  0  0
    4.2255   -5.3730  -17.5592 H   0  0  0  0  0  0  0  0  0  0  0  0
    5.2571   -4.4357  -18.6922 H   0  0  0  0  0  0  0  0  0  0  0  0
    8.7933   -4.2971  -16.4403 H   0  0  0  0  0  0  0  0  0  0  0  0
    9.5868   -2.7274  -16.8052 H   0  0  0  0  0  0  0  0  0  0  0  0
    5.4662   -4.4864  -15.6336 H   0  0  0  0  0  0  0  0  0  0  0  0
    6.6120   -5.2262  -16.8026 H   0  0  0  0  0  0  0  0  0  0  0  0
    7.7922   -1.9609  -18.0773 H   0  0  0  0  0  0  0  0  0  0  0  0
    7.3544   -3.6072  -18.6472 H   0  0  0  0  0  0  0  0  0  0  0  0
    3.4926    3.4251  -18.4757 H   0  0  0  0  0  0  0  0  0  0  0  0
    6.1430    3.4895  -20.0024 H   0  0  0  0  0  0  0  0  0  0  0  0
    5.2081    1.5401  -17.9128 H   0  0  0  0  0  0  0  0  0  0  0  0
    3.0245    5.3414  -17.2815 H   0  0  0  0  0  0  0  0  0  0  0  0
    3.5648    6.4405  -18.3617 H   0  0  0  0  0  0  0  0  0  0  0  0
    3.3805    4.0950  -20.7097 H   0  0  0  0  0  0  0  0  0  0  0  0
  1  7  2  0
  1  8  1  0
  2  7  1  0
  2  9  2  0
  3  8  2  0
  3  9  1  0
  4 10  2  0
  4 11  1  0
  5 10  1  0
  5 12  2  0
  6 11  2  0
  6 12  1  0
  7 13  1  0
  8 14  1  0
  9 26  1  0
 10 29  1  0
 11 43  1  0
 12 44  1  0
 13 37  1  0
 13 40  2  0
 14 38  1  0
 14 41  2  0
 15 16  1  0
 15 17  1  0
 16 18  1  0
 17 19  1  0
 18 23  1  0
 19 23  1  0
 20 22  1  0
 20 24  1  0
 21 24  1  0
 21 25  1  0
 22 39  1  0
 23 30  1  0
 24 30  1  0
 25 35  1  0
 25 39  1  0
 27 31  1  0
 28 32  1  0
 29 36  1  0
 31 33  1  0
 32 34  1  0
 33 38  1  0
 34 38  1  0
 35 36  1  0
 35 42  1  0
 36 37  1  0
  1 45  1  0
  2 46  1  0
  3 47  1  0
  4 48  1  0
  5 49  1  0
  6 50  1  0
 15 51  1  0
 15 52  1  0
 16 53  1  0
 16 54  1  0
 17 55  1  0
 17 56  1  0
 18 57  1  0
 18 58  1  0
 19 59  1  0
 19 60  1  0
 20 61  1  0
 20 62  1  0
 21 63  1  0
 21 64  1  0
 22 65  1  0
 22 66  1  0
 23 67  1  0
 24 68  1  1
 25 69  1  1
 26 70  1  0
 26 71  1  0
 26 72  1  0
 27 73  1  0
 27 74  1  0
 27 75  1  0
 28 76  1  0
 28 77  1  0
 28 78  1  0
 29 79  1  0
 29 80  1  0
 30 81  1  0
 30 82  1  0
 31 83  1  0
 31 84  1  0
 32 85  1  0
 32 86  1  0
 33 87  1  0
 33 88  1  0
 34 89  1  0
 34 90  1  0
 35 91  1  1
 36 92  1  6
 37 93  1  0
 39 94  1  0
 39 95  1  0
 42 96  1  0
M  CHG  1  39   1
M  END
>  <OMEGA_C>  (51) 
uJ7dQGCDLzwD94XBVkEJQUrSzj+yDH/BEx0FQahbCL9CHG3By5DXQCG/hj+shKvB4eafQJPP5r7d
4KTBtAHiQFVErr/wO6zBbPHxQJrpoT9A1YbBdzfqQBBMZb8l4nvBUwAPQXa/Oj9lg27BG+uuQJ+C
Wj/14qbBoD3xQFgVYb2cGa7BTU65QKhUx7+GoafBvfzkQJS/DEDKSI/BMDXVQGA7DcCHL3rBLDS9
QCzJFkGIpK/BU3LLQEV1AEFg2qvBanmuQO3LJEFXLKbBHtTuQNpEAkHYO6PBYIvRQLdFJkE5fJ3B
14u2QLzY3EDzKoLB+9jCQFMduUCnKpTBAJ2FQE2H2UDSqoPBjqvgQAUGEEFUhpnB6dbMQPYg4UC4
JY3BHKWcQNnUnkALuI/BbYkgQW9bjT+m/F7BOHx2QEJtT8AVe4zBkaYcQfn1hsC+zZLBJ3iTQK4v
AkBz/6PBJDy9QCaCBUF0mJLB9aaZQNY/jsAxh43BgP0PQXubY8Cy0InB2Ua9QCaNjMBWEYXBeW31
QALHQMAtOI7BxoSJQGrLfkAk1JfBMVGqQJeLPUCu9JvBf/+6QN4vCkBD/pLBRCXVQDs3R8BQsoXB
LAd0QGdbvEDXiYzB1zH/QIBtP0Ar5ZLBp4fEQFIKIMBbEWnBIAhwQBaQlkD1qKDB8kEMQdi3DD7h
W7LBK4eqQEalM8AK36XBTFrEQF6Zgr51dovBrFIRQbk8JEAoR4DBkc4JQY6hnL8JsGDBXe/iQHZx
A0DME63Bau+AQCSBGb9MO6HBlYn1QOygDcBbVa7BUDvYQGquHkHeqrPBfIKiQOb/FEEYT7XBOMKv
QGn370CVc6jBHO3XQEzT7kAcurLBcT2nQPX6NEEJH6nBnHmRQGO/HUHBpKLBXuD2QNI25ECwY6DB
/KUFQT2lCUFk3abBxDTtQErdLkF406DBt7fEQK4+L0GboJbB6fi9QG0c+UBOhnrB00TCQCvkv0BD
OXzB1Qy7QBXOw0A5UpzB2lvfQMd9pEASZZTBUJ1uQAZtzUCJb3jBUqVxQMaR+UAGaoXB09j8QBV6
EkEcZZTBzaHvQBwi40Dt6IvB/qGnQCrGjECnrojBN4MZQS5bzj9AC1HBY+koQa3eRz6isVnBW/Ur
QZKm4z/a62bBa0tEQE+kU8ALoZLBf9dYQPbET8DDf4TBMW+NQHTIE8BDkI3BYdcrQTpbk8A9no/B
xUUTQVSCocAtLpbB0PcfQdCOXsB2GZnBYy2MQP+iJkBrTavBxgJrQCAJ1j+hZqDBGVuzQHDkEEHu
WozBs7GhQJTAAUF3vpfB6DaHQJnvq8AveYzBWTqoQFjxjcCviZXBVbEMQRaCicCshYPBYGMZQVSO
LsD0cIbBQeuuQKeQj8ANI3rBa5XTQNI8p8Cwa4bBY1n5QGH/+r8+npDBNVfrQOfbZsCQLZXBPIZf
QK80W0AnzpPBY5PEQHFUX0DoBKDBJqmmQEcjxT9STY/BipFBQA7tqkCbQIrBRyVkQOoYzkDG5JLB
rFpYQGIKg0CQraXB

>  <OMEGA_E>  (51) 
cHt+Pg==

>  <OMEGA_NBR>  (51) 
     12521

$$$$
248242
     RDKit          3D

 82 86  0  0  1  0  0  0  0  0999 V2000
    7.2062   -1.3079  -21.5940 C   0  0  0  0  0  0  0  0  0  0  0  0
    5.1811   10.5271  -21.9233 C   0  0  0  0  0  0  0  0  0  0  0  0
    7.6103    0.0144  -21.8681 C   0  0  0  0  0  0  0  0  0  0  0  0
    5.9758   -1.5536  -20.9521 C   0  0  0  0  0  0  0  0  0  0  0  0
    5.3621    9.1383  -22.0841 C   0  0  0  0  0  0  0  0  0  0  0  0
    5.6001   11.1606  -20.7364 C   0  0  0  0  0  0  0  0  0  0  0  0
    8.8050    0.2230  -14.8475 C   0  0  0  0  0  0  0  0  0  0  0  0
    8.5528    1.2026  -15.8309 C   0  0  0  0  0  0  0  0  0  0  0  0
    8.0351   -0.9602  -14.8131 C   0  0  0  0  0  0  0  0  0  0  0  0
    6.7828    1.0919  -21.5018 C   0  0  0  0  0  0  0  0  0  0  0  0
    5.1511   -0.4777  -20.5767 C   0  0  0  0  0  0  0  0  0  0  0  0
    5.9743    8.3839  -21.0632 C   0  0  0  0  0  0  0  0  0  0  0  0
    6.2072   10.4083  -19.7137 C   0  0  0  0  0  0  0  0  0  0  0  0
    6.7885   -0.2033  -16.7634 C   0  0  0  0  0  0  0  0  0  0  0  0
    9.3560   -4.4395  -17.9644 C   0  0  0  0  0  0  0  0  0  0  0  0
    7.5257    0.9984  -16.7830 C   0  0  0  0  0  0  0  0  0  0  0  0
    7.0300   -1.1808  -15.7855 C   0  0  0  0  0  0  0  0  0  0  0  0
    5.5516    0.8460  -20.8539 C   0  0  0  0  0  0  0  0  0  0  0  0
    6.4089    9.0216  -19.8782 C   0  0  0  0  0  0  0  0  0  0  0  0
    8.2605   -4.0309  -17.2485 C   0  0  0  0  0  0  0  0  0  0  0  0
    9.6403   -4.5356  -15.4981 C   0  0  0  0  0  0  0  0  0  0  0  0
    6.1114    5.9366  -18.5420 C   0  0  0  0  0  0  0  0  0  0  0  0
    7.1759    2.0297  -17.7780 C   0  0  0  0  0  0  0  0  0  0  0  0
    6.1670   -2.3861  -15.7590 C   0  0  0  0  0  0  0  0  0  0  0  0
    5.0255    7.8568  -17.3746 C   0  0  0  0  0  0  0  0  0  0  0  0
    4.4192    6.8190  -16.4312 C   0  0  0  0  0  0  0  0  0  0  0  0
    5.1062    4.9429  -17.8731 C   0  0  2  0  0  0  0  0  0  0  0  0
   10.0826   -4.5952  -14.0552 C   0  0  0  0  0  0  0  0  0  0  0  0
    4.9645   -4.2552  -16.9014 C   0  0  0  0  0  0  0  0  0  0  0  0
    4.6755    1.9982  -20.4251 C   0  0  0  0  0  0  0  0  0  0  0  0
    7.0865    8.2341  -18.7755 C   0  0  0  0  0  0  0  0  0  0  0  0
    7.0798   -3.3226  -17.8850 C   0  0  0  0  0  0  0  0  0  0  0  0
    4.4441    3.9664  -18.8692 C   0  0  2  0  0  0  0  0  0  0  0  0
    5.4091    2.8829  -19.3979 C   0  0  1  0  0  0  0  0  0  0  0  0
    8.4424   -4.1665  -15.8664 N   0  0  0  0  0  0  0  0  0  0  0  0
    6.1417    7.2851  -18.1526 N   0  0  0  0  0  0  0  0  0  0  0  0
    5.8770    2.0416  -18.2854 N   0  0  0  0  0  0  0  0  0  0  0  0
    5.9748   -3.1808  -16.9127 N   0  0  0  0  0  0  0  0  0  0  0  0
    3.9853    5.6706  -17.2332 N   0  0  0  0  0  0  0  0  0  0  0  0
    6.9660    5.5113  -19.3111 O   0  0  0  0  0  0  0  0  0  0  0  0
    8.0110    2.8498  -18.1429 O   0  0  0  0  0  0  0  0  0  0  0  0
    5.6550   -2.7149  -14.6945 O   0  0  0  0  0  0  0  0  0  0  0  0
    3.8899    4.7169  -19.9507 O   0  0  0  0  0  0  0  0  0  0  0  0
   10.6367   -4.8867  -16.8827 S   0  0  0  0  0  0  0  0  0  0  0  0
    7.8410   -2.1347  -21.8765 H   0  0  0  0  0  0  0  0  0  0  0  0
    4.7210   11.1060  -22.7104 H   0  0  0  0  0  0  0  0  0  0  0  0
    8.5542    0.2004  -22.3588 H   0  0  0  0  0  0  0  0  0  0  0  0
    5.6661   -2.5680  -20.7484 H   0  0  0  0  0  0  0  0  0  0  0  0
    5.0314    8.6522  -22.9901 H   0  0  0  0  0  0  0  0  0  0  0  0
    5.4553   12.2236  -20.6116 H   0  0  0  0  0  0  0  0  0  0  0  0
    9.5880    0.3782  -14.1199 H   0  0  0  0  0  0  0  0  0  0  0  0
    9.1427    2.1069  -15.8572 H   0  0  0  0  0  0  0  0  0  0  0  0
    8.2131   -1.6976  -14.0444 H   0  0  0  0  0  0  0  0  0  0  0  0
    7.0884    2.1055  -21.7156 H   0  0  0  0  0  0  0  0  0  0  0  0
    4.2122   -0.6650  -20.0769 H   0  0  0  0  0  0  0  0  0  0  0  0
    6.1115    7.3197  -21.1857 H   0  0  0  0  0  0  0  0  0  0  0  0
    6.5194   10.8936  -18.8008 H   0  0  0  0  0  0  0  0  0  0  0  0
    6.0278   -0.3739  -17.5108 H   0  0  0  0  0  0  0  0  0  0  0  0
    9.4132   -4.4775  -19.0422 H   0  0  0  0  0  0  0  0  0  0  0  0
    4.2477    8.2083  -18.0686 H   0  0  0  0  0  0  0  0  0  0  0  0
    5.3989    8.7052  -16.7823 H   0  0  0  0  0  0  0  0  0  0  0  0
    5.1728    6.4975  -15.6972 H   0  0  0  0  0  0  0  0  0  0  0  0
    3.5564    7.2531  -15.9047 H   0  0  0  0  0  0  0  0  0  0  0  0
    5.6468    4.3593  -17.1135 H   0  0  0  0  0  0  0  0  0  0  0  0
    9.2521   -4.2860  -13.4036 H   0  0  0  0  0  0  0  0  0  0  0  0
   10.3810   -5.6240  -13.8055 H   0  0  0  0  0  0  0  0  0  0  0  0
   10.9372   -3.9190  -13.9056 H   0  0  0  0  0  0  0  0  0  0  0  0
    4.9567   -4.7621  -17.8776 H   0  0  0  0  0  0  0  0  0  0  0  0
    5.2109   -4.9817  -16.1131 H   0  0  0  0  0  0  0  0  0  0  0  0
    3.9722   -3.8232  -16.7047 H   0  0  0  0  0  0  0  0  0  0  0  0
    4.4182    2.6043  -21.3062 H   0  0  0  0  0  0  0  0  0  0  0  0
    3.7551    1.6031  -19.9703 H   0  0  0  0  0  0  0  0  0  0  0  0
    7.9329    7.6742  -19.1999 H   0  0  0  0  0  0  0  0  0  0  0  0
    7.4555    8.9312  -18.0089 H   0  0  0  0  0  0  0  0  0  0  0  0
    7.3956   -2.3243  -18.2222 H   0  0  0  0  0  0  0  0  0  0  0  0
    6.7295   -3.9074  -18.7483 H   0  0  0  0  0  0  0  0  0  0  0  0
    3.6302    3.4526  -18.3367 H   0  0  0  0  0  0  0  0  0  0  0  0
    6.2644    3.3709  -19.8881 H   0  0  0  0  0  0  0  0  0  0  0  0
    5.2107    1.4298  -17.8591 H   0  0  0  0  0  0  0  0  0  0  0  0
    3.4939    5.0354  -16.6374 H   0  0  0  0  0  0  0  0  0  0  0  0
    3.3701    5.9989  -17.9500 H   0  0  0  0  0  0  0  0  0  0  0  0
    3.4796    4.1249  -20.5701 H   0  0  0  0  0  0  0  0  0  0  0  0
  1  3  2  0
  1  4  1  0
  2  5  2  0
  2  6  1  0
  3 10  1  0
  4 11  2  0
  5 12  1  0
  6 13  2  0
  7  8  2  0
  7  9  1  0
  8 16  1  0
  9 17  2  0
 10 18  2  0
 11 18  1  0
 12 19  2  0
 13 19  1  0
 14 16  2  0
 14 17  1  0
 15 20  2  0
 15 44  1  0
 16 23  1  0
 17 24  1  0
 18 30  1  0
 19 31  1  0
 20 32  1  0
 20 35  1  0
 21 28  1  0
 21 35  2  0
 21 44  1  0
 22 27  1  0
 22 36  1  0
 22 40  2  0
 23 37  1  0
 23 41  2  0
 24 38  1  0
 24 42  2  0
 25 26  1  0
 25 36  1  0
 26 39  1  0
 27 33  1  0
 27 39  1  0
 29 38  1  0
 30 34  1  0
 31 36  1  0
 32 38  1  0
 33 34  1  0
 33 43  1  0
 34 37  1  0
  1 45  1  0
  2 46  1  0
  3 47  1  0
  4 48  1  0
  5 49  1  0
  6 50  1  0
  7 51  1  0
  8 52  1  0
  9 53  1  0
 10 54  1  0
 11 55  1  0
 12 56  1  0
 13 57  1  0
 14 58  1  0
 15 59  1  0
 25 60  1  0
 25 61  1  0
 26 62  1  0
 26 63  1  0
 27 64  1  1
 28 65  1  0
 28 66  1  0
 28 67  1  0
 29 68  1  0
 29 69  1  0
 29 70  1  0
 30 71  1  0
 30 72  1  0
 31 73  1  0
 31 74  1  0
 32 75  1  0
 32 76  1  0
 33 77  1  1
 34 78  1  6
 37 79  1  0
 39 80  1  0
 39 81  1  0
 43 82  1  0
M  CHG  1  39   1
M  END
>  <OMEGA_C>  (52) 
GJnmQLVnp7+BwKzB+8ulQDFvKEHVYq/BN4fzQASNbDzW8a7BWjm/QFPcxr/nnafBSparQHs2EkFF
rLDB4DOzQOWRMkEy5KXBcOEMQZdZZD4xj23Bc9gIQWvvmT9yS33BqI8AQYvPdb+iAm3BoAzZQLzD
iz+oA6zBnNWkQD6a9L4knaTBnC2/QG8kBkFjgajBDaHGQHGIJkGqtZ3BLTvZQEgqUL5yG4bBFLIV
Qa4QjsAot4/BP9LwQCiafz+TQ4bBt/XgQGMll7+WkXzBeKaxQI+QWD+01KbBYxXNQHdYEEGWBp/B
MCsEQSP9gMDe/InBpz4aQQYkkcAP+HfB7ZDDQHP4vUDuVZTByaDlQPTmAUBgOY7BcFjFQB+1GMDX
JHzB6tCgQExr+0BD/4rB/2mNQHo12kAFc4PBImajQGQsnkAt/I7BMVIhQacLk8A34mDBRN2eQJoq
iMAWNofB052VQKLE/z+TZqPBlMTiQN2+A0FINJbB+o3iQPGkVMCUFI/BWDaOQCHZfUAQ9JbBKhet
QPaAOED0LpvB5xMHQS5UhcDq3H3BjYjEQCIf6UCOOJHBBxC8QOipAkB1SJLBhTG/QKqRS8AvTYfB
2w5/QOh1tUCQ3YnBSuneQEBcsEA3fZrBNC0AQVVjNkC4JJHBDPa0QKLBLcDHHGvBvvN4QOnwlkAU
m5/B3C8qQcNfnMDZD4fBTen6QD6eCMApA6/BvBKXQF2yMUHfrrXB6t0IQXc0TT7i3rLBglC1QDla
JMDN/KXBXQGhQJlvCkG467fBvJGuQLiTQ0GM5KTBZGgZQcWnwT4+62HBcUgSQRXYBkA5t33Bs2gD
QZVJ2b+3tWDB6NPiQBLABkCKua3BjcqGQClAKr9knaDBKZHDQL866kBcfKnB057QQApMLkH7Z5bB
hePAQPtwv74lFozBl5wWQY1Hj8CFVpjBgu2HQC9VA0F7jJDBmMOsQHFIC0ERQobBNoelQDTrz0Ck
J3vBGpxjQIAZ6ECfeX7B1rK0QAJ/i0Bo6IjBeAgUQeMmicDydFbBixgmQST4s8BC41zBq/4uQT3Q
esBxfV7BBp2eQC1jmMBdBY/BuL+mQHhqn8Ck54DBXDh+QFivdMBPo4XBvWGNQIutJkAXc6rBJVRw
QKsyzT82w5/Ba9r9QEKT9UB5mZnBypPuQGbmDkEjEpDBYajsQJrAFMAhx5HBzVfXQCISesCY/JXB
hFRoQJ33XEChsZLB4XXIQAC9V0DOGp/Bwr2mQG4Ctz+D347BtJxfQLQhoUBSGYXBf69XQNf2v0CP
mY/B/7BeQOf+g0CNj6TBtYniQHsKr79n3qzB9aOuQGV0KUEuJa7BcgnwQK7kS71oA6/BDh+7QNim
zL++tqfBwgezQLI0E0EVoK/B4a67QFv4MkGHdaTBDzkNQXNFyj6tCG3BQmEIQXOzqz9hEH3BHv8B
QTAZVL+nLmzBABHWQBW/hD9VBqzB2UWhQI+RA78Ao6TBkcLEQEJ6BkHRcqfBjT7NQB1FJkEtQ5zB
Q9vZQJKKGr6skoXBs/wVQZWbYcBTSIfBJhLwQIQ6iT/mD4bBiQLkQCJdjr/diXvBDKuuQBQZTj9w
zabBaRHSQGIFEEECv53B+9EDQdIXgMC+I4zBLDMSQZSkv8AIAofBiWLCQN7SvEAR/JPBrHDkQGnh
AkCFbo7BR3zLQN0hGMBtCnvB/gSgQGJk+kCRn4rBOyWKQCYu2UCFgYPBpuagQFhxnUDRCo/BG9sT
QQdd78DHbIXBpfejQLb4hsCptYbBxBmTQD2V+z8AWKPBmNfkQPCWAkGi0pTBu07jQMMcSMB8tY/B
UnmMQHaafUCwRZfB9CyrQG5SN0AlVJvBQ3oCQWagrMCzEozBX2nEQNd450A+fZDBTY+6QDH6AkCM
TpLBsiXDQALaRsAp+obBB055QGRGtUDyQ4rBfb/dQJAir0AdH5rBy4v/QDbRM0AoBJLBX2K7QOYb
LsCzAWrBTEh5QE1ql0AzDaDBa8gkQaHUmsAuMILBQ3H2QKLpDMBELq/BgkShQCc4M0HecLTBLyUH
QVmVAD6G8rLBt8KwQAIIJ8AyIKbBw8yoQELqC0GCB7fB/DO4QBIDREEqU6PB5IkZQeN1Gz/nZWHB
DyURQaxWEUB/1n3BmZ0FQc4dxr+Dz1/BNDzgQIwGA0BwuK3BtDODQITTML+/nqDBCTDIQK3e6kD1
lqjBdQvXQGyRLUHs0pTBHa/AQJXxtL5aRIvBJGAaQZHmHsCkuobBDKKIQJ1qA0Efa5DBisqrQN1j
CkH2mIXBA7GgQG/PzUDuv3rBqB9cQH6I50AzMn/BidewQMdPikCc0ojBHv4FQYQk/8DYJInBoaki
QXUm+8DUKInBMyAUQayd9sAroXnBdYWhQGZslcDctY7BbrOuQGFMn8Bx8YDBa3eEQAhOdcD0RYTB
2l6KQE7jI0AvaqrBEc9rQBoUyj8ihp/BPP3/QCWe8kD19ZfBoArwQGoxDUGdYY7B+gHvQObcBsDT
PpHBRefUQEEpYsBvDJfByuBiQE+BXUCVUJPBc2jGQKirVUBDap/BAGelQHxPuT/UsI7BgPdWQA0F
oUD1zIXBSNVUQPCzwECfL5DBT/VfQO/fhEDwLKXB

>  <OMEGA_E>  (52) 
NPHKPpjiwz4=

>  <OMEGA_NBR>  (52) 
      2886

$$$$
50147863
     RDKit          3D

 88 91  0  0  1  0  0  0  0  0999 V2000
    5.4268   10.4544  -21.9708 C   0  0  0  0  0  0  0  0  0  0  0  0
    5.5356    9.0521  -22.0607 C   0  0  0  0  0  0  0  0  0  0  0  0
    5.8639   11.1235  -20.8105 C   0  0  0  0  0  0  0  0  0  0  0  0
    6.0868    8.3186  -20.9919 C   0  0  0  0  0  0  0  0  0  0  0  0
    6.4126   10.3926  -19.7406 C   0  0  0  0  0  0  0  0  0  0  0  0
    6.7931   -0.1499  -16.7015 C   0  0  0  0  0  0  0  0  0  0  0  0
    8.4049    1.4091  -15.7407 C   0  0  0  0  0  0  0  0  0  0  0  0
    8.0672   -0.7774  -14.7168 C   0  0  0  0  0  0  0  0  0  0  0  0
    6.8373    1.0968  -21.3677 C   0  0  0  0  0  0  0  0  0  0  0  0
    5.0288   -0.4174  -20.7292 C   0  0  0  0  0  0  0  0  0  0  0  0
    7.1338   -1.3128  -21.5741 C   0  0  0  0  0  0  0  0  0  0  0  0
    7.4382    1.1042  -16.7238 C   0  0  0  0  0  0  0  0  0  0  0  0
    7.1285   -1.0990  -15.7153 C   0  0  0  0  0  0  0  0  0  0  0  0
    6.5296    8.9897  -19.8276 C   0  0  0  0  0  0  0  0  0  0  0  0
    8.6970    0.4814  -14.7212 C   0  0  0  0  0  0  0  0  0  0  0  0
    5.5310    0.8897  -20.8696 C   0  0  0  0  0  0  0  0  0  0  0  0
    7.6411   -0.0058  -21.7079 C   0  0  0  0  0  0  0  0  0  0  0  0
    5.8248   -1.5146  -21.0945 C   0  0  0  0  0  0  0  0  0  0  0  0
    6.1035    5.9415  -18.4868 C   0  0  0  0  0  0  0  0  0  0  0  0
    7.0996    2.0835  -17.7664 C   0  0  0  0  0  0  0  0  0  0  0  0
    6.5240   -2.4370  -15.7453 C   0  0  0  0  0  0  0  0  0  0  0  0
    4.9723    7.8721  -17.3889 C   0  0  0  0  0  0  0  0  0  0  0  0
    4.3204    6.8455  -16.4637 C   0  0  0  0  0  0  0  0  0  0  0  0
    5.0546    4.9583  -17.8716 C   0  0  2  0  0  0  0  0  0  0  0  0
    9.7488    0.8020  -13.6847 C   0  0  0  0  0  0  0  0  0  0  0  0
    3.5305   -3.6501  -17.3811 C   0  0  0  0  0  0  0  0  0  0  0  0
    9.4434   -4.4149  -17.0484 C   0  0  0  0  0  0  0  0  0  0  0  0
    4.6665    2.0604  -20.4740 C   0  0  0  0  0  0  0  0  0  0  0  0
    7.1209    8.2226  -18.6631 C   0  0  0  0  0  0  0  0  0  0  0  0
    4.7372   -4.3668  -17.9857 C   0  0  0  0  0  0  0  0  0  0  0  0
    8.6178   -4.0578  -18.2977 C   0  0  0  0  0  0  0  0  0  0  0  0
    5.8774   -4.5318  -16.9676 C   0  0  0  0  0  0  0  0  0  0  0  0
    7.6040   -2.9432  -17.9844 C   0  0  0  0  0  0  0  0  0  0  0  0
    4.4132    4.0092  -18.9052 C   0  0  2  0  0  0  0  0  0  0  0  0
    5.3784    2.9254  -19.4217 C   0  0  1  0  0  0  0  0  0  0  0  0
    6.1279    7.2882  -18.0957 N   0  0  0  0  0  0  0  0  0  0  0  0
    5.8186    2.0696  -18.3080 N   0  0  0  0  0  0  0  0  0  0  0  0
    6.6878   -3.2932  -16.8535 N   0  0  0  0  0  0  0  0  0  0  0  0
    3.9155    5.6927  -17.2731 N   0  0  0  0  0  0  0  0  0  0  0  0
    6.9871    5.5115  -19.2196 O   0  0  0  0  0  0  0  0  0  0  0  0
    7.9369    2.9016  -18.1315 O   0  0  0  0  0  0  0  0  0  0  0  0
    5.8907   -2.7973  -14.7590 O   0  0  0  0  0  0  0  0  0  0  0  0
    3.9054    4.7861  -19.9908 O   0  0  0  0  0  0  0  0  0  0  0  0
    8.8960    0.1910  -22.1705 F   0  0  0  0  0  0  0  0  0  0  0  0
    5.3272   -2.7637  -20.9947 F   0  0  0  0  0  0  0  0  0  0  0  0
    5.0078   11.0167  -22.7923 H   0  0  0  0  0  0  0  0  0  0  0  0
    5.1964    8.5399  -22.9490 H   0  0  0  0  0  0  0  0  0  0  0  0
    5.7779   12.1979  -20.7422 H   0  0  0  0  0  0  0  0  0  0  0  0
    6.1713    7.2441  -21.0610 H   0  0  0  0  0  0  0  0  0  0  0  0
    6.7447   10.9068  -18.8508 H   0  0  0  0  0  0  0  0  0  0  0  0
    6.0414   -0.3831  -17.4410 H   0  0  0  0  0  0  0  0  0  0  0  0
    8.9222    2.3567  -15.7703 H   0  0  0  0  0  0  0  0  0  0  0  0
    8.3043   -1.4968  -13.9469 H   0  0  0  0  0  0  0  0  0  0  0  0
    7.2177    2.1005  -21.4870 H   0  0  0  0  0  0  0  0  0  0  0  0
    4.0334   -0.5760  -20.3414 H   0  0  0  0  0  0  0  0  0  0  0  0
    7.7484   -2.1604  -21.8393 H   0  0  0  0  0  0  0  0  0  0  0  0
    4.2320    8.2110  -18.1286 H   0  0  0  0  0  0  0  0  0  0  0  0
    5.3125    8.7304  -16.7910 H   0  0  0  0  0  0  0  0  0  0  0  0
    5.0400    6.5268  -15.6952 H   0  0  0  0  0  0  0  0  0  0  0  0
    3.4381    7.2885  -15.9787 H   0  0  0  0  0  0  0  0  0  0  0  0
    5.5523    4.3553  -17.0979 H   0  0  0  0  0  0  0  0  0  0  0  0
    9.2741    1.2814  -12.8159 H   0  0  0  0  0  0  0  0  0  0  0  0
   10.2440   -0.1270  -13.3655 H   0  0  0  0  0  0  0  0  0  0  0  0
   10.4945    1.4847  -14.1181 H   0  0  0  0  0  0  0  0  0  0  0  0
    2.7416   -3.5540  -18.1416 H   0  0  0  0  0  0  0  0  0  0  0  0
    3.1488   -4.2306  -16.5283 H   0  0  0  0  0  0  0  0  0  0  0  0
    3.8326   -2.6496  -17.0379 H   0  0  0  0  0  0  0  0  0  0  0  0
   10.1594   -5.2121  -17.2970 H   0  0  0  0  0  0  0  0  0  0  0  0
    9.9907   -3.5251  -16.7040 H   0  0  0  0  0  0  0  0  0  0  0  0
    8.7700   -4.7626  -16.2511 H   0  0  0  0  0  0  0  0  0  0  0  0
    4.4570    2.6724  -21.3637 H   0  0  0  0  0  0  0  0  0  0  0  0
    3.7206    1.6865  -20.0552 H   0  0  0  0  0  0  0  0  0  0  0  0
    7.9946    7.6528  -19.0124 H   0  0  0  0  0  0  0  0  0  0  0  0
    7.4341    8.9334  -17.8843 H   0  0  0  0  0  0  0  0  0  0  0  0
    4.4226   -5.3626  -18.3313 H   0  0  0  0  0  0  0  0  0  0  0  0
    5.1064   -3.7816  -18.8408 H   0  0  0  0  0  0  0  0  0  0  0  0
    9.2967   -3.7145  -19.0923 H   0  0  0  0  0  0  0  0  0  0  0  0
    8.0760   -4.9521  -18.6393 H   0  0  0  0  0  0  0  0  0  0  0  0
    5.4466   -4.7691  -15.9837 H   0  0  0  0  0  0  0  0  0  0  0  0
    6.5290   -5.3568  -17.2912 H   0  0  0  0  0  0  0  0  0  0  0  0
    8.1567   -2.0298  -17.7193 H   0  0  0  0  0  0  0  0  0  0  0  0
    6.9976   -2.7569  -18.8831 H   0  0  0  0  0  0  0  0  0  0  0  0
    3.5752    3.4976  -18.4092 H   0  0  0  0  0  0  0  0  0  0  0  0
    6.2482    3.4126  -19.8864 H   0  0  0  0  0  0  0  0  0  0  0  0
    5.1524    1.4362  -17.9145 H   0  0  0  0  0  0  0  0  0  0  0  0
    3.4037    5.0615  -16.6903 H   0  0  0  0  0  0  0  0  0  0  0  0
    3.3251    6.0170  -18.0121 H   0  0  0  0  0  0  0  0  0  0  0  0
    3.5078    4.2107  -20.6337 H   0  0  0  0  0  0  0  0  0  0  0  0
  1  2  2  0
  1  3  1  0
  2  4  1  0
  3  5  2  0
  4 14  2  0
  5 14  1  0
  6 12  2  0
  6 13  1  0
  7 12  1  0
  7 15  2  0
  8 13  2  0
  8 15  1  0
  9 16  2  0
  9 17  1  0
 10 16  1  0
 10 18  2  0
 11 17  2  0
 11 18  1  0
 12 20  1  0
 13 21  1  0
 14 29  1  0
 15 25  1  0
 16 28  1  0
 17 44  1  0
 18 45  1  0
 19 24  1  0
 19 36  1  0
 19 40  2  0
 20 37  1  0
 20 41  2  0
 21 38  1  0
 21 42  2  0
 22 23  1  0
 22 36  1  0
 23 39  1  0
 24 34  1  0
 24 39  1  0
 26 30  1  0
 27 31  1  0
 28 35  1  0
 29 36  1  0
 30 32  1  0
 31 33  1  0
 32 38  1  0
 33 38  1  0
 34 35  1  0
 34 43  1  0
 35 37  1  0
  1 46  1  0
  2 47  1  0
  3 48  1  0
  4 49  1  0
  5 50  1  0
  6 51  1  0
  7 52  1  0
  8 53  1  0
  9 54  1  0
 10 55  1  0
 11 56  1  0
 22 57  1  0
 22 58  1  0
 23 59  1  0
 23 60  1  0
 24 61  1  1
 25 62  1  0
 25 63  1  0
 25 64  1  0
 26 65  1  0
 26 66  1  0
 26 67  1  0
 27 68  1  0
 27 69  1  0
 27 70  1  0
 28 71  1  0
 28 72  1  0
 29 73  1  0
 29 74  1  0
 30 75  1  0
 30 76  1  0
 31 77  1  0
 31 78  1  0
 32 79  1  0
 32 80  1  0
 33 81  1  0
 33 82  1  0
 34 83  1  1
 35 84  1  6
 37 85  1  0
 39 86  1  0
 39 87  1  0
 43 88  1  0
M  CHG  1  39   1
M  END
>  <OMEGA_C>  (53) 
HKitQDVFJ0FKxK/BpyOxQF7VEEFZfLDBVqW7QA36MUHae6bB+MbCQNMYBUFQ76fBvjPNQAFIJkGn
7J3BR2HZQCCAGb6tnIXBhnoGQVVetD+12XvBURMBQboAR7/td2vBaMvaQAFkjD8S8arBBeygQICv
1b5r1aXBWEjkQI8KqL/Ml6zBaAXuQLtVjT9iyoXB1xzkQNKsjL/hcXvBu/LQQL/VD0Hxnp7BBScL
QeJ+9j7yiWvBPf6wQJHFYz/e9KbBNIT0QJDfvLuyqa3BI2W6QJTfwb9xwajBw0/DQGQgvkD15JPB
NzDjQJ1YBUCuIY7B2cTQQH74G8DO7HvB9xyfQBXo+0CLHIvBykCKQIkO20CxtYPB6b6hQAKqnkAe
+Y7BDPsbQQpNTT9q9FrBKvRhQNyaacCLDIvBNhgXQSZHjcAtY4jBPVSVQB3eA0DHyqPBVd7jQM6P
A0EXTpXBYpeXQAK9i8Cy4o/BguIJQXnZgcC2YZLB3RO8QJwEkcCkvYfB0VPzQAtdPMAm4I/BljiN
QK5LgEDQPZfBthusQCU5O0CiX5vBpRfEQJM46UAPxJDB/zG6QBZ1BEDCdpLB1QLWQArDUsDy04bB
MJd6QEIqtkA1L4rBkJbfQC9esECowZnBJ/v9QKezOUBmDZHBX4C8QIwHM8DSJGzBZvF5QKInmUAh
7Z/BA1YOQZiOQz4jXbHBZHiqQNffMMA59afBQ0CgQEtEMEGTVrbBMUmmQJWjCEGSl7fBfOS4QMwq
Q0EM8KXBmHvFQKrP50D7fKjBt9TXQHKCLkGBzpbBwFLBQJAfxL4yh4vBNMEOQdfUFkAOU3zBPt4E
QYiWv7+1Jl/BovfmQBdvBkBX5avBghGBQEh1E79Hu6LBFvP3QIpDCsDxtq7BTWyHQB1gA0FcB5HB
ZgCqQJSvC0HnU4bBcUehQKbb0EByH3vBQglcQHA76UDGqH/Bm6yxQFhei0CMyIjBhmIUQWQFpD/4
DU3BOecjQSALAr4i2VXBTuknQWUKvj+y42HBL3YvQFF0Y8AFIpHBCIZJQO9gh8D4OYTBykh1QCST
KcCKTYjB8owiQdzJpsBUYIrB19kfQXqaYcDeoYXBCVIMQUtnmMBRAoLBJ6COQN4IK0Dq6KrBrh5u
QIHe1z8IcaDByNP/QPzj9EBeGZjBeOTtQD3vDkH2Eo/B9oWNQG2aq8B5ppLBV2ejQCEGcsALupbB
Kb8UQdy6bcDxvJjBWzcBQXx3nsBjHZXBrkquQG2cmMAkvX/B9O3QQFBrq8BUVIrBqYECQZXoAcAI
wY3BhezfQIdxMMCpEJfB889kQCTYX0AGRpPBjvHHQKpnWkBoF5/BJuCkQBfUtz/vUI/BvdVZQI33
oUCjhYXBrM5UQKOLwEDZGJDBKn9gQFG+hkDjEaXBLYasQIaLJkEtzK/BgUi6QMVrMUHPiqbBiGCw
QDsdEEFWcrDBEO3LQDTmJUEv753BKybCQM+NBEEu2qfBUA/ZQHbKBb6l6oTBON8GQT5btj9JVHvB
qCgBQRZtPL9EKWrBCyTbQApFhD+tkqrBmuOhQOCl8r7h6aTBC03lQLy3sL/TiavBS1TuQClijj87
Y4XBcKvjQAZ+iL+e0nnBmQzQQKt1D0Gaj57BM98LQcVrAD+3DGvBY4ixQLwXVT+hdabBYhH1QAk/
lr1gDK3Bia67QBENyr99fKfBDAbDQKmIvUB4upPBjJTjQKu0BECN4I3BKZLOQMiGGMB+Q3nBHQue
QFtf+0AHKYvBCouIQCaW2kDQ24PBki6hQDUZnkD37o7BK+gbQT3+XT8U61nBlJ5vQPHJWcCsX4zB
HQsWQYFAmcB+TI/BrNKVQPKqAEC2gKPBAxbjQHhdA0FEMpXBa8CWQMTbksBnwY3BegcPQapFX8DD
4YnBbky6QHA7ksCHPoXB6WDxQIpqRMAF4I3BXFSNQCwYf0ArQ5fBuXCsQPpsOUC0L5vBQXXDQKuz
6EBFpZDBcWi6QBdEBEAaHJLBJmvRQD6tUcBTVIXBZYx4QImPtUBHXYrBVrzfQAqwr0DecZnBm9j+
QLTKNkB0IZHB/UC8QH1eLcCUt2jBqap7QFUomECPE6DBsooOQZPH9T0T3LDBtHysQIcQNcDyAKbB
8AKfQPtnL0GzZrbBm0m3QLabQkHjDabBoLSlQArKB0FAiLfB2lTWQGBBLkFK1ZbB/SnFQAy95kDu
WqjBs47AQK13u74QtorBpBQPQWnxF0DF/nvBq7IEQch2t7/bcl3BLAXnQElHAkCT0KvBkRiCQJBc
IL/kwKHBLx/5QMvKDsDIfK3BG9OGQEYfA0GmMJHBgZaoQGhpC0HWUobBOP6eQLqI0ECxIHvBW9VX
QDfE6EDJKYDBwqiwQEb0ikDFpIjB0Z8TQS3arj/tmEzBhccjQVDUOL2HBlTBif4nQQL0xT8KqmDB
XsE9QKuyXMA7k5LBE6NRQCQIXcAJbITBxaKJQNRjHcB4Io3BAf8lQT1rosA/X4zBT4UKQePCssBX
aI3BuKYWQQp/lMBIA5jBbz2PQLC4JkCfuKrBIP9uQBN30j/xIKDBbjb/QKel9EAS8pfBF97sQMvX
DkFQ/Y7B4KOEQGTmsMCUBo3BHHWlQDwUkcADvZXBz3kOQcX8aMCkK4HBOJsaQRN1LMCVxovBO+qr
QIwfl8C4nHrBoRjRQOI0rMAf6obBT/HxQFdfAMDaIJDBhq7oQEJDa8B34pTBh1JkQG+iXkDXaJPB
xUrIQAE3WECI8p7B6tykQHJ7uj+ow47BZR9XQAtioUB0xYXBKrpTQFfKv0AjY5DBXxNjQOaZhUCY
QKXBRhymQArKJ0GVY6/B7Ly1QMRrMkGNP6bB2uSpQK9hEUE+PbDBXi3JQDqrJkE89Z3BpYG9QMWZ
BUF4+afBf/zaQHJHbr5IcIXBWhIJQf4OpT/Dyn3BYPwCQdKyVb/3sGvBh3zaQIy/jz//7qvBUUCm
QP1Z7L7hyKTBrnvoQCb7or/BzKzBT0bxQO40fj85SIbBR1nlQBzfkb+GYXrBMEDNQDI9EEEQzJ7B
7FYOQQeovz6tfW3BT9SyQNY+XT+H66bBTlr1QJx0Wz1/1K7BDt3AQMezw78+0KfBRqzDQH68vUCh
FZTBZY3lQEr6/D9rkY7B74zLQOQoFsBhR3fBtx2gQHPa+kCky4rBxuiMQH9k2UDxSIPBxVOjQJ6k
nUAg347Buu4eQf4XPT+D51zBTFVkQEGmnsB1qY7BFgkSQRjMcsDp/5fBzzeWQD9OAEBzjaPBAXbi
QGHTA0GR0pXBCReQQE3gd8AceYrB3kT6QFBiW8BlbZLBHS6yQNYnkMAIEIPBOun9QIMrcMDrd4bB
jiWOQNNWfUBF7pbBY/2sQGoTOECBKpvBey3EQIDu6ECe9JDBpp27QEsnAUAeS5LBbrzUQG6EYsB5
BYHBZKN+QCCltEDevInBSpDfQHRKsEBkG5rBlkMAQbvWMEB36pHBRtyrQDiyEMAazWvBkGB5QHP3
lkDukZ/BeqoNQStumT4moLPB4SK0QGIyM8BzAqbBbDmXQODQMEFWv7XBws2yQAKXQ0HqmaXB6MCd
QBY9CUGyOrfBsf/UQLrVLkHG8JbBt4TAQNng6EDRpajBpA7CQKLw8r7wGYvB86YRQVpUDkAlAX/B
kM0GQVK5w7+fBF/B8SrkQBn4CEBsiq3BRC+IQAleKL/e0qDBzv/8QMYSBsAqEa/BWUCHQKjqAkEM
Y5DB4qOrQL8PC0HzCIbBrhClQOsvz0A+1HrBcFxiQIcG50CmI37BQ3+0QNOzikCG0ojBHy8XQcxm
oj8pkk/BLZgmQXxVNb5e31bBORsrQQbYsT/JMWTB+/MzQLolkMBe7ZPBcsKEQHNrtsAaMZPBfltE
QGJvrsBC44fBVsgQQVv3Y8BOlKDBWzwfQVzATcAweZTBrysVQX/Jm8DT9pbB0GyOQKylJ0DblarB
Lx5xQN/FzD/1F6DB/g3+QHcF9kAoDZnBanXtQLoaD0HZpo/B6AugQMJRWMDDQJHBau56QKFZSMDr
8oXBpvvzQB6bFsCldJPBT9rfQOA2gMBI8pXBITCjQLc4mcA33HbBrpC/QBPOrMCl7YbBd8QDQfS6
mcDthIXB5x8LQQprRsCD1oLBmeZnQEVwXEAvu5LBCqLIQF2OV0AR757B7gimQCXrtj8lu47B/2pf
QBYmoEAr/oTBzixXQE4av0C2d4/BiyxfQLAxhEAXkqTB

>  <OMEGA_E>  (53) 
gMdpPXBYBT7kybQ+

>  <OMEGA_NBR>  (53) 
      7249

$$$$
50147878
     RDKit          3D

 85 88  0  0  1  0  0  0  0  0999 V2000
    6.7683   -0.2087  -16.6971 C   0  0  0  0  0  0  0  0  0  0  0  0
    8.3843    1.3496  -15.7367 C   0  0  0  0  0  0  0  0  0  0  0  0
    8.0412   -0.8343  -14.7115 C   0  0  0  0  0  0  0  0  0  0  0  0
    6.8140    1.0595  -21.3414 C   0  0  0  0  0  0  0  0  0  0  0  0
    5.0014   -0.4340  -20.6664 C   0  0  0  0  0  0  0  0  0  0  0  0
    7.0954   -1.3562  -21.5095 C   0  0  0  0  0  0  0  0  0  0  0  0
    7.4232    1.0419  -16.7245 C   0  0  0  0  0  0  0  0  0  0  0  0
    7.1048   -1.1609  -15.7119 C   0  0  0  0  0  0  0  0  0  0  0  0
    8.6677    0.4257  -14.7115 C   0  0  0  0  0  0  0  0  0  0  0  0
    5.5102    0.8680  -20.8323 C   0  0  0  0  0  0  0  0  0  0  0  0
    7.6094   -0.0531  -21.6686 C   0  0  0  0  0  0  0  0  0  0  0  0
    5.7879   -1.5435  -21.0158 C   0  0  0  0  0  0  0  0  0  0  0  0
    6.0792    5.9890  -18.5835 C   0  0  0  0  0  0  0  0  0  0  0  0
    7.1048    2.0147  -17.7805 C   0  0  0  0  0  0  0  0  0  0  0  0
    6.4707   -2.4898  -15.7003 C   0  0  0  0  0  0  0  0  0  0  0  0
    5.8362    8.8665  -21.1019 C   0  0  0  0  0  0  0  0  0  0  0  0
    5.5169   10.0434  -20.1612 C   0  0  0  0  0  0  0  0  0  0  0  0
    4.8393    7.9144  -17.5950 C   0  0  0  0  0  0  0  0  0  0  0  0
    4.3576    6.9158  -16.5417 C   0  0  0  0  0  0  0  0  0  0  0  0
    5.0824    4.9875  -17.8943 C   0  0  2  0  0  0  0  0  0  0  0  0
    6.8183    9.2464  -19.9868 C   0  0  0  0  0  0  0  0  0  0  0  0
    9.7022    0.7530  -13.6588 C   0  0  0  0  0  0  0  0  0  0  0  0
    3.7327   -3.4186  -17.6031 C   0  0  0  0  0  0  0  0  0  0  0  0
    9.3561   -4.3646  -16.9984 C   0  0  0  0  0  0  0  0  0  0  0  0
    4.6580    2.0510  -20.4463 C   0  0  0  0  0  0  0  0  0  0  0  0
    7.0761    8.3194  -18.7577 C   0  0  0  0  0  0  0  0  0  0  0  0
    4.6563   -4.6333  -17.8120 C   0  0  0  0  0  0  0  0  0  0  0  0
    8.4739   -4.1577  -18.2430 C   0  0  0  0  0  0  0  0  0  0  0  0
    5.7968   -4.6597  -16.7802 C   0  0  0  0  0  0  0  0  0  0  0  0
    7.4037   -3.0831  -17.9884 C   0  0  0  0  0  0  0  0  0  0  0  0
    4.4128    4.0058  -18.8790 C   0  0  2  0  0  0  0  0  0  0  0  0
    5.3741    2.9186  -19.3958 C   0  0  1  0  0  0  0  0  0  0  0  0
    5.9881    7.3772  -18.3495 N   0  0  0  0  0  0  0  0  0  0  0  0
    5.8062    2.0648  -18.2753 N   0  0  0  0  0  0  0  0  0  0  0  0
    6.5684   -3.3854  -16.7891 N   0  0  0  0  0  0  0  0  0  0  0  0
    3.9565    5.6925  -17.2397 N   0  0  0  0  0  0  0  0  0  0  0  0
    7.0297    5.5401  -19.2137 O   0  0  0  0  0  0  0  0  0  0  0  0
    7.9804    2.7578  -18.2111 O   0  0  0  0  0  0  0  0  0  0  0  0
    5.8890   -2.8201  -14.6725 O   0  0  0  0  0  0  0  0  0  0  0  0
    3.8621    4.7502  -19.9656 O   0  0  0  0  0  0  0  0  0  0  0  0
    8.8646    0.1309  -22.1366 F   0  0  0  0  0  0  0  0  0  0  0  0
    5.2840   -2.7891  -20.8749 F   0  0  0  0  0  0  0  0  0  0  0  0
    6.0092   -0.4366  -17.4308 H   0  0  0  0  0  0  0  0  0  0  0  0
    8.9037    2.2960  -15.7673 H   0  0  0  0  0  0  0  0  0  0  0  0
    8.2792   -1.5535  -13.9418 H   0  0  0  0  0  0  0  0  0  0  0  0
    7.1994    2.0590  -21.4790 H   0  0  0  0  0  0  0  0  0  0  0  0
    4.0070   -0.5794  -20.2708 H   0  0  0  0  0  0  0  0  0  0  0  0
    7.7032   -2.2113  -21.7659 H   0  0  0  0  0  0  0  0  0  0  0  0
    5.2579    7.9334  -21.0313 H   0  0  0  0  0  0  0  0  0  0  0  0
    6.0968    9.0577  -22.1533 H   0  0  0  0  0  0  0  0  0  0  0  0
    5.5501   11.0756  -20.5400 H   0  0  0  0  0  0  0  0  0  0  0  0
    4.7112    9.9512  -19.4181 H   0  0  0  0  0  0  0  0  0  0  0  0
    4.0165    8.1240  -18.2943 H   0  0  0  0  0  0  0  0  0  0  0  0
    5.1419    8.8462  -17.0949 H   0  0  0  0  0  0  0  0  0  0  0  0
    5.1712    6.6945  -15.8352 H   0  0  0  0  0  0  0  0  0  0  0  0
    3.4998    7.3332  -15.9940 H   0  0  0  0  0  0  0  0  0  0  0  0
    5.6389    4.4080  -17.1431 H   0  0  0  0  0  0  0  0  0  0  0  0
    7.7176    9.7724  -20.3397 H   0  0  0  0  0  0  0  0  0  0  0  0
    9.2119    1.2326  -12.7988 H   0  0  0  0  0  0  0  0  0  0  0  0
   10.1960   -0.1732  -13.3296 H   0  0  0  0  0  0  0  0  0  0  0  0
   10.4518    1.4378  -14.0820 H   0  0  0  0  0  0  0  0  0  0  0  0
    2.9315   -3.4326  -18.3566 H   0  0  0  0  0  0  0  0  0  0  0  0
    3.2905   -3.4631  -16.5969 H   0  0  0  0  0  0  0  0  0  0  0  0
    4.3167   -2.4921  -17.7063 H   0  0  0  0  0  0  0  0  0  0  0  0
   10.1112   -5.1366  -17.2077 H   0  0  0  0  0  0  0  0  0  0  0  0
    9.8586   -3.4197  -16.7441 H   0  0  0  0  0  0  0  0  0  0  0  0
    8.7287   -4.6851  -16.1536 H   0  0  0  0  0  0  0  0  0  0  0  0
    4.4579    2.6590  -21.3409 H   0  0  0  0  0  0  0  0  0  0  0  0
    3.7069    1.6896  -20.0283 H   0  0  0  0  0  0  0  0  0  0  0  0
    7.9654    7.7135  -18.9855 H   0  0  0  0  0  0  0  0  0  0  0  0
    7.2864    8.9697  -17.8958 H   0  0  0  0  0  0  0  0  0  0  0  0
    4.0632   -5.5543  -17.7126 H   0  0  0  0  0  0  0  0  0  0  0  0
    5.0894   -4.5833  -18.8220 H   0  0  0  0  0  0  0  0  0  0  0  0
    9.1079   -3.8415  -19.0845 H   0  0  0  0  0  0  0  0  0  0  0  0
    7.9779   -5.1069  -18.4940 H   0  0  0  0  0  0  0  0  0  0  0  0
    5.3693   -4.8121  -15.7782 H   0  0  0  0  0  0  0  0  0  0  0  0
    6.4763   -5.4911  -17.0192 H   0  0  0  0  0  0  0  0  0  0  0  0
    7.9039   -2.1154  -17.8357 H   0  0  0  0  0  0  0  0  0  0  0  0
    6.7479   -3.0219  -18.8694 H   0  0  0  0  0  0  0  0  0  0  0  0
    3.5975    3.5002  -18.3407 H   0  0  0  0  0  0  0  0  0  0  0  0
    6.2468    3.4006  -19.8605 H   0  0  0  0  0  0  0  0  0  0  0  0
    5.1192    1.4820  -17.8413 H   0  0  0  0  0  0  0  0  0  0  0  0
    3.5382    5.0724  -16.5761 H   0  0  0  0  0  0  0  0  0  0  0  0
    3.2846    5.9339  -17.9400 H   0  0  0  0  0  0  0  0  0  0  0  0
    3.4467    4.1555  -20.5790 H   0  0  0  0  0  0  0  0  0  0  0  0
  1  7  2  0
  1  8  1  0
  2  7  1  0
  2  9  2  0
  3  8  2  0
  3  9  1  0
  4 10  2  0
  4 11  1  0
  5 10  1  0
  5 12  2  0
  6 11  2  0
  6 12  1  0
  7 14  1  0
  8 15  1  0
  9 22  1  0
 10 25  1  0
 11 41  1  0
 12 42  1  0
 13 20  1  0
 13 33  1  0
 13 37  2  0
 14 34  1  0
 14 38  2  0
 15 35  1  0
 15 39  2  0
 16 17  1  0
 16 21  1  0
 17 21  1  0
 18 19  1  0
 18 33  1  0
 19 36  1  0
 20 31  1  0
 20 36  1  0
 21 26  1  0
 23 27  1  0
 24 28  1  0
 25 32  1  0
 26 33  1  0
 27 29  1  0
 28 30  1  0
 29 35  1  0
 30 35  1  0
 31 32  1  0
 31 40  1  0
 32 34  1  0
  1 43  1  0
  2 44  1  0
  3 45  1  0
  4 46  1  0
  5 47  1  0
  6 48  1  0
 16 49  1  0
 16 50  1  0
 17 51  1  0
 17 52  1  0
 18 53  1  0
 18 54  1  0
 19 55  1  0
 19 56  1  0
 20 57  1  1
 21 58  1  0
 22 59  1  0
 22 60  1  0
 22 61  1  0
 23 62  1  0
 23 63  1  0
 23 64  1  0
 24 65  1  0
 24 66  1  0
 24 67  1  0
 25 68  1  0
 25 69  1  0
 26 70  1  0
 26 71  1  0
 27 72  1  0
 27 73  1  0
 28 74  1  0
 28 75  1  0
 29 76  1  0
 29 77  1  0
 30 78  1  0
 30 79  1  0
 31 80  1  1
 32 81  1  6
 34 82  1  0
 36 83  1  0
 36 84  1  0
 40 85  1  0
M  CHG  1  36   1
M  END
>  <OMEGA_C>  (54) 
hpXYQO62Vb6/k4XBFiYGQXO/rD+ayXvB5KgAQS+UVb9GYmvBsQzaQOuehz8ju6rBaQugQBQ63r7N
VKXBiA3jQHmYrb+ME6zBeortQB5dhT/Ty4XB6FrjQFOYlL/aY3vBA68KQdPw2T4mYmvB6lOwQDoz
Xj+kqKbBkIDzQNGBWb1PWa3Bsza5QO+Rxb9cIKjBpojCQNOlv0AGq5TBhVrjQBPwAEBzPo7BFRDP
QIhYH8BaNHvBv8G6QDjdDUGd0KjBn4qwQLSxIEEkSqHBz9uaQHdC/UCRwozBo3GLQOlN3UBYVYTB
6aKiQNeZn0CUJ4/ByC/aQCDxE0H75J/BJTwbQYjGQD9ailrB6ORuQOTJWsA204zBdLIVQZyqi8Cf
/IfBRw6VQE9DA0AAkqPBG2/iQGMcBUHHD5bBeACVQABElMAHf47BQpUHQaULhcCa8ZHBkX+5QJ4c
lcDGPYbBtursQGNRRcA06I/BYDWNQKIvgEAoCJfBQPirQGPKOkCtKpvBQp6/QNYR7ECwy5LBesy5
QJclBEDGM5LB7y/SQCGrWMAsUIbBHDd9QCEptkD66onBEvPgQBpIsUCctZnBdF//QE2AMEBnsJHB
qXK8QMN8NMB6wmrBWix3QF8BmECLuZ/BjtUNQV4CBj7KF7HBRxapQLqAMsDL/6bBVUvAQG2F375c
covBgXUOQc7xEkCpRnzBdXcEQcTZxr9rEV/BhWHmQOXGA0AK1avBuDmAQNZVFL+GKqLB+4D2QBSG
DcCqIK7B5ECoQH3e/UAkQKjBPhnDQHjsEEHrObHBJ5qxQIM1MUH4UaTBzcGWQEk4H0EyWJvBKoeA
QPD7AUGyWpLBuIqkQBmKDUFkwojBj3qlQF451kDvXH3BYf1fQMOp6kB153/B/HG0QAkOjUADJYnB
6vb2QLNbHEHAt6LBz2MTQRrFnT+9x0zBwSIjQWtPMb4hRlXBvzonQSQJuD/wT2HB95w7QG2wW8Bl
2pLBEpdSQKujXcCGxoTBKCKKQH5+H8CEpo3BXschQd9epMBaqYnB7rwdQWfcWsDl84XBlqgLQQfs
lcCFOoHB6aaOQEAsKkAquqrBKD1tQMRD2D/yOaDBm+T+QOXU9kBb4pfBFyrpQNaDD0GJKo/BewWC
QBa9scBfs43BGdyiQICqksBek5bB4bkRQR3bdcAIrZjBE0v/QGJro8Co85PBRdGrQKH8mcBXc3zB
GT7PQA+3r8A+J4jBm+z8QIpiB8B1r47Bl+7XQE9mQcCM9JbBUT1mQPMDYEDMuZLB/uXHQA2kWUBP
4p7BINCjQOGyvT8Au47BHHFiQEBRokDDm4TBDzdSQH3ivUAKhY/B/JVcQAH6hEDgoaTBSkvbQMGn
x72xOoXB0zcHQWJnvT80RnvBc0gCQSQsNb8iz2rB8H3bQCyqgz8ms6rBaIehQJ5a6b5oGqXBqrLk
QLPXsb+fpavBoorvQC3KlD/qfoXBlMfmQCuShb+ExHrBOwMMQckKDz8u32rBUrmxQExfWD9jpqbB
Mgv1QN07tb1LHa3BTui6QGglyb/WqKfBdGDBQDmkwEDjbpTBqCbkQM++CEDu343BRj/SQPTdFsB+
OnrB7sDTQBE6JEFauqXBVoi9QMYxEEEpQKrBUJubQGQs+0B/gorBiOaKQJn510BDMIPB0JOiQA7q
nkASRI/B7hy9QPGoFEE7NJ7BO3QcQayzZT89AlrBd05cQLKXmcANFo/BGf4RQcrQl8CiRonByoGW
QKdvAkCrwaPB0gDZQJ+zBkEUv5bBYEqLQNbbbMBQ54rBZgkPQWV+U8BiXI3BfMO0QPk7isDfm4bB
FMPuQDW1P8DPfo/BIAWOQM8PgECMZpfBGkmtQJwmO0CRbpvBmNS+QDMH7EDsdJHBqou7QLdBBUAU
bpLBAuLTQA0fT8AX4YXBnRV8QF0GtEDG74nB3vLdQCuHtEBdcJrBDCr+QBMgP0BeqJDBoKy9QGl+
KcBsKmrB5TN6QLtImEB4H6DBkqUOQWNWtj3K0LDBFjGrQN1UNMB9OqbB/O/CQMjqrL67DIvBX2EP
QauVG0Dl03vBqUAGQY0vtr+ofV7BEMznQJanAUDw8KvBPaeBQLFsGL8A9aHByDX4QCLWD8BUlK3B
iuP2QENLJUHltqXBABLGQFssNEEYM6fBo/CfQMHNEUGL8q7BLcLQQKrsAkFZdq3BXjKBQJJBA0Eb
l4/Bk2qnQMLhCkGCjoXBUDykQFnUzUDiQnvBbXdeQDm640AxOH3Bkse0QLccjEBqYYnBsXieQAwf
GkGa15rBG30UQZ4xrz/sPkzBQIokQTqFvLw4wlTBfFAoQcjZyz/CvWDBYdQgQONXi8AeKpLBt998
QGD6qsCpkJXBkgtNQJbrr8BVjojBbxQjQQvtncCD0ofBZAYJQY0DnMDoxoHBFPsLQZhzrsC6To/B
y1GQQKdfKECaAavBbO1vQMPc1z8kaKDBDEnyQNLt/UARfpvBdKrnQNfwEEFLmZDB5OiSQFg1QMBi
b5HBo/11QMUXSsAObYTBXiYVQf+jJsBOTofBDhsYQRaES8Ag1pTBtz6vQFxPmMDqUn3BTFvAQLoj
o8BoHIzBrbXrQGVW+L+925HBklzjQBDiaMAeCpbBHx5nQF0gX0B6UZPBjvjIQJ9mWkDWNZ/BAaGm
QGK5tj9DZI/BHQxeQHZxnkB0YIXBgfNTQI7QvkDejY/Blb5gQMl1hUDeK6XBk6LaQILuj74fmoXB
uDUIQV3joT88ZH3BF/8CQcKMZr+iOmzBnovYQKqUgD/pEavBPuSfQPzn9L5AqqTBO1viQOXbtL9R
oavBjfTvQCdcdz8vLobBTNTlQP2um787L3vB7HANQXRysT7BJW3BlmqvQPkxUj/7oabBRRbyQGRt
5r0Cf63B3D65QPsGzL9IOKfBAEvCQCHtvkB5npTBmPLjQNQg/D/6Uo7BBdDMQPIfHcCWl3jBNlGk
QEf9DkFHvabBPvXEQBkaIUERxqXB3JCcQFBc+0Chc4vBLOSMQDSi2UD+h4PBDoujQJ78nUCeD4/B
AUjSQCn6CUGpEaPB+7geQQcoMD+mIF3ByIyBQGC8VMB25ozBj40UQWmle8AduJfBqJyUQGXkAEBv
jaPBWffcQGclBUGPM5fBvM2aQM+nlMDfhozBNrIBQSBsUsCk45HBze23QJo+mMCciILBF+8AQV1i
dcCqcIbBu7CNQM1RfUBl4pbB+ROsQEOHN0DoIpvBRtm/QBvH6kDoJZLBDV26QJYc/z8MTJLBhJTX
QJbCacBmhYHBxz9/QPT5s0AnpInBiu7eQNb8sUC6fprBxkT+QGNrM0BdP5HB4catQGiWGsCioWzB
Dhx3QOOclkDMf5/B4OAMQcAchD07krHBtxuqQPSuNcABZ6XB4sPBQPfOBL/LSovBsKsQQaUSDUAV
an7BoFQHQS/azr8aCGDBT17kQDgUAEAdmazBV4yAQFHrHb+sMqHB7dH1QAFfEcDSlK3BHq+JQCvn
DUHdAqHBRliZQEvDCUGbrq7BRXTRQC3jKEFwBa3BHcvBQA0HLUGyWZ/BBdKBQMNmAkHJqZDBLvyn
QC+5C0Eb+4bBdOOmQFX+0EDTAnzB3zNjQAo35kCw5X3B+xO2QIt/i0CvLYnB6MrmQJwAAkF9AanB
moMXQWArmD+GNk/Bhr4mQX5EcL6q41fBdn0qQefkrT8XoGTBmBJbQOlMU8AgI5TBxBNaQJbiT8A+
xoXBPQmYQCWWHsCpDY3BC1IVQQwtY8Ap9p/BN4EjQQ3ya8Abg5PBpmkSQYbBoMAY4ZfBfnmOQG0O
KEDIs6rBoglsQOU41T8zNaDB9Mr9QNKw/UA6y5bB8AnbQGMyFEFNqpLBK+6DQLpor8DdcozBhu2u
QILClsBIupPBDcwDQQaLDMDesZHB+GjlQAUcYsDbD5bBD3yjQFAomMB7vXbBon/JQJ+xtsDi+oLB
fbkEQRYPncBRnYbBDO4MQVyNU8CMlYHBvZlnQGUJXUDWfpLBXuvHQGxJVkD3557B2tWkQHvGsD+T
+I7BWlljQOVIn0AnooTBTQVVQIA3vUDnMI/B6vpbQPmlg0A3YKTB

>  <OMEGA_E>  (54) 
qCwUPixIoT4AZLI+

>  <OMEGA_NBR>  (54) 
     11492

$$$$
50147867
     RDKit          3D

 83 87  0  0  1  0  0  0  0  0999 V2000
    5.5343   10.4255  -21.8918 C   0  0  0  0  0  0  0  0  0  0  0  0
    5.6242    9.0229  -21.9950 C   0  0  0  0  0  0  0  0  0  0  0  0
    5.9670   11.0765  -20.7196 C   0  0  0  0  0  0  0  0  0  0  0  0
    6.1515    8.2708  -20.9271 C   0  0  0  0  0  0  0  0  0  0  0  0
    6.4926   10.3270  -19.6510 C   0  0  0  0  0  0  0  0  0  0  0  0
    6.7212   -0.0539  -16.6129 C   0  0  0  0  0  0  0  0  0  0  0  0
    6.7222    1.0090  -21.4024 C   0  0  0  0  0  0  0  0  0  0  0  0
    4.8691   -0.4545  -20.7722 C   0  0  0  0  0  0  0  0  0  0  0  0
    6.9383   -1.4070  -21.6405 C   0  0  0  0  0  0  0  0  0  0  0  0
    8.1152   -0.6840  -14.7289 C   0  0  0  0  0  0  0  0  0  0  0  0
    8.4650    1.3989  -15.7558 C   0  0  0  0  0  0  0  0  0  0  0  0
    7.0934   -0.9981  -15.6524 C   0  0  0  0  0  0  0  0  0  0  0  0
    7.4303    1.1514  -16.6917 C   0  0  0  0  0  0  0  0  0  0  0  0
    6.5899    8.9237  -19.7505 C   0  0  0  0  0  0  0  0  0  0  0  0
    5.4161    0.8370  -20.8931 C   0  0  0  0  0  0  0  0  0  0  0  0
    7.4860   -0.1143  -21.7644 C   0  0  0  0  0  0  0  0  0  0  0  0
    5.6272   -1.5741  -21.1509 C   0  0  0  0  0  0  0  0  0  0  0  0
    6.0956    5.8768  -18.4566 C   0  0  0  0  0  0  0  0  0  0  0  0
    6.4902   -2.3323  -15.6912 C   0  0  0  0  0  0  0  0  0  0  0  0
    7.0972    2.1064  -17.7608 C   0  0  0  0  0  0  0  0  0  0  0  0
    8.4049   -3.8870  -18.1179 C   0  0  0  0  0  0  0  0  0  0  0  0
    7.5837   -5.1163  -17.7618 C   0  0  0  0  0  0  0  0  0  0  0  0
    7.3793   -2.7788  -18.0509 C   0  0  0  0  0  0  0  0  0  0  0  0
    4.9869    7.8089  -17.3417 C   0  0  0  0  0  0  0  0  0  0  0  0
    4.2952    6.7813  -16.4469 C   0  0  0  0  0  0  0  0  0  0  0  0
    5.0252    4.9046  -17.8674 C   0  0  2  0  0  0  0  0  0  0  0  0
    6.4661   -4.5915  -16.8288 C   0  0  2  0  0  0  0  0  0  0  0  0
    3.5813   -3.3394  -18.0864 C   0  0  0  0  0  0  0  0  0  0  0  0
    4.5958    2.0273  -20.4726 C   0  0  0  0  0  0  0  0  0  0  0  0
    7.1562    8.1381  -18.5856 C   0  0  0  0  0  0  0  0  0  0  0  0
    5.0620   -5.0759  -17.2608 C   0  0  0  0  0  0  0  0  0  0  0  0
    4.3915    3.9742  -18.9183 C   0  0  2  0  0  0  0  0  0  0  0  0
    5.3531    2.8911  -19.4458 C   0  0  1  0  0  0  0  0  0  0  0  0
    8.7755    0.4984  -14.7889 N   0  0  0  0  0  0  0  0  0  0  0  0
    6.1428    7.2138  -18.0393 N   0  0  0  0  0  0  0  0  0  0  0  0
    6.5873   -3.1167  -16.8475 N   0  0  0  0  0  0  0  0  0  0  0  0
    5.8241    2.0489  -18.3320 N   0  0  0  0  0  0  0  0  0  0  0  0
    3.8861    5.6496  -17.2827 N   0  0  0  0  0  0  0  0  0  0  0  0
    6.9776    5.4442  -19.1895 O   0  0  0  0  0  0  0  0  0  0  0  0
    5.9715   -2.7819  -14.6760 O   0  0  0  0  0  0  0  0  0  0  0  0
    7.9439    2.8984  -18.1577 O   0  0  0  0  0  0  0  0  0  0  0  0
    3.8950    4.7678  -19.9977 O   0  0  0  0  0  0  0  0  0  0  0  0
    4.5540   -4.3583  -18.4119 O   0  0  0  0  0  0  0  0  0  0  0  0
    8.7444    0.0491  -22.2302 F   0  0  0  0  0  0  0  0  0  0  0  0
    5.0992   -2.8115  -21.0322 F   0  0  0  0  0  0  0  0  0  0  0  0
    5.1331   11.0021  -22.7122 H   0  0  0  0  0  0  0  0  0  0  0  0
    5.2890    8.5248  -22.8928 H   0  0  0  0  0  0  0  0  0  0  0  0
    5.8953   12.1512  -20.6412 H   0  0  0  0  0  0  0  0  0  0  0  0
    6.2211    7.1959  -21.0061 H   0  0  0  0  0  0  0  0  0  0  0  0
    6.8223   10.8276  -18.7526 H   0  0  0  0  0  0  0  0  0  0  0  0
    5.8987   -0.2507  -17.2846 H   0  0  0  0  0  0  0  0  0  0  0  0
    7.1333    2.0014  -21.5136 H   0  0  0  0  0  0  0  0  0  0  0  0
    3.8678   -0.5840  -20.3888 H   0  0  0  0  0  0  0  0  0  0  0  0
    7.5237   -2.2702  -21.9209 H   0  0  0  0  0  0  0  0  0  0  0  0
    8.3749   -1.3983  -13.9617 H   0  0  0  0  0  0  0  0  0  0  0  0
    9.0188    2.3243  -15.8130 H   0  0  0  0  0  0  0  0  0  0  0  0
    9.2138   -3.7247  -17.3904 H   0  0  0  0  0  0  0  0  0  0  0  0
    8.8319   -3.9730  -19.1280 H   0  0  0  0  0  0  0  0  0  0  0  0
    7.1519   -5.5689  -18.6666 H   0  0  0  0  0  0  0  0  0  0  0  0
    8.2054   -5.8595  -17.2411 H   0  0  0  0  0  0  0  0  0  0  0  0
    7.8658   -1.7985  -17.9394 H   0  0  0  0  0  0  0  0  0  0  0  0
    6.7460   -2.7736  -18.9502 H   0  0  0  0  0  0  0  0  0  0  0  0
    4.2677    8.1774  -18.0880 H   0  0  0  0  0  0  0  0  0  0  0  0
    5.3347    8.6486  -16.7220 H   0  0  0  0  0  0  0  0  0  0  0  0
    4.9914    6.4368  -15.6681 H   0  0  0  0  0  0  0  0  0  0  0  0
    3.4111    7.2340  -15.9742 H   0  0  0  0  0  0  0  0  0  0  0  0
    5.5015    4.2893  -17.0900 H   0  0  0  0  0  0  0  0  0  0  0  0
    6.6624   -4.9591  -15.8108 H   0  0  0  0  0  0  0  0  0  0  0  0
    3.2464   -2.8433  -19.0093 H   0  0  0  0  0  0  0  0  0  0  0  0
    2.7186   -3.8030  -17.5856 H   0  0  0  0  0  0  0  0  0  0  0  0
    4.0387   -2.5967  -17.4163 H   0  0  0  0  0  0  0  0  0  0  0  0
    4.3701    2.6386  -21.3587 H   0  0  0  0  0  0  0  0  0  0  0  0
    3.6566    1.6745  -20.0216 H   0  0  0  0  0  0  0  0  0  0  0  0
    8.0258    7.5587  -18.9292 H   0  0  0  0  0  0  0  0  0  0  0  0
    7.4701    8.8374  -17.7966 H   0  0  0  0  0  0  0  0  0  0  0  0
    5.1199   -6.1457  -17.5101 H   0  0  0  0  0  0  0  0  0  0  0  0
    4.3661   -4.9322  -16.4211 H   0  0  0  0  0  0  0  0  0  0  0  0
    3.5468    3.4594  -18.4371 H   0  0  0  0  0  0  0  0  0  0  0  0
    6.2073    3.3760  -19.9408 H   0  0  0  0  0  0  0  0  0  0  0  0
    5.1806    1.3828  -17.9550 H   0  0  0  0  0  0  0  0  0  0  0  0
    3.3502    5.0189  -16.7214 H   0  0  0  0  0  0  0  0  0  0  0  0
    3.3181    5.9963  -18.0291 H   0  0  0  0  0  0  0  0  0  0  0  0
    3.5016    4.2025  -20.6521 H   0  0  0  0  0  0  0  0  0  0  0  0
  1  2  2  0
  1  3  1  0
  2  4  1  0
  3  5  2  0
  4 14  2  0
  5 14  1  0
  6 12  2  0
  6 13  1  0
  7 15  2  0
  7 16  1  0
  8 15  1  0
  8 17  2  0
  9 16  2  0
  9 17  1  0
 10 12  1  0
 10 34  2  0
 11 13  2  0
 11 34  1  0
 12 19  1  0
 13 20  1  0
 14 30  1  0
 15 29  1  0
 16 44  1  0
 17 45  1  0
 18 26  1  0
 18 35  1  0
 18 39  2  0
 19 36  1  0
 19 40  2  0
 20 37  1  0
 20 41  2  0
 21 22  1  0
 21 23  1  0
 22 27  1  0
 23 36  1  0
 24 25  1  0
 24 35  1  0
 25 38  1  0
 26 32  1  0
 26 38  1  0
 27 31  1  0
 27 36  1  0
 28 43  1  0
 29 33  1  0
 30 35  1  0
 31 43  1  0
 32 33  1  0
 32 42  1  0
 33 37  1  0
  1 46  1  0
  2 47  1  0
  3 48  1  0
  4 49  1  0
  5 50  1  0
  6 51  1  0
  7 52  1  0
  8 53  1  0
  9 54  1  0
 10 55  1  0
 11 56  1  0
 21 57  1  0
 21 58  1  0
 22 59  1  0
 22 60  1  0
 23 61  1  0
 23 62  1  0
 24 63  1  0
 24 64  1  0
 25 65  1  0
 25 66  1  0
 26 67  1  1
 27 68  1  1
 28 69  1  0
 28 70  1  0
 28 71  1  0
 29 72  1  0
 29 73  1  0
 30 74  1  0
 30 75  1  0
 31 76  1  0
 31 77  1  0
 32 78  1  1
 33 79  1  6
 37 80  1  0
 38 81  1  0
 38 82  1  0
 42 83  1  0
M  CHG  1  38   1
M  END
>  <OMEGA_C>  (55) 
nxixQPbOJkFgIq/BtPmzQOBdEEHS9a/BzfG+QEQ5MUGrwaXBs9jEQARVBEGgaqfBV8PPQIc7JUFL
NZ3BExTXQEjjXL0m54TBXBzXQG4lgT8yOKvBac+bQDi36L50LabB4QbeQFQYtL+nH63B89cBQXAY
L7+yqWvBzXAHQZYNsz+hF3zBJ/3iQOGCf78wcHrBacXtQHphkz+uiIXBTeDSQFDHDkHuAJ7B5VCt
QJVCVj8gJafB9YzvQM4q6r1lHa7BVRK0QOR8yb/4NKnBgA/DQAAPvEA3p5PB8K/PQHVEFcA+D3vB
SRzjQJbPBkAdFo7BW3oGQQ/EeMCJ8ZDBAa7yQBq5o8AbGI7BRCPsQGvXMcAuaJDBzJSfQNzi+UDf
u4rB/nGJQFsA2UBFk4PBOs6gQMvynECI8I7BMurOQIftksBJoYbB8DNlQGu5VcDwsJDBKRGTQEC/
AUDQx6PB0P/kQI81AkFDr5TB6fuhQF1tosAqForBz4aMQIRYfkCqWJfBR0yrQDUHOUDmkJvBj2gM
Qcop/z5Zn2zBk5HEQF3X5kCHUJDBwsrSQK54R8CUx4bBZF+6QMQhA0ACqJLBHrZ4QELJtEACQ4rB
tUjfQIo2rkAShJnBNha/QCsLMsC/0GrBtzT+QM5+OUACQ5HBwEd5QIiRmEBM+5/BnrqRQIh3i8Cd
S5PBG+kLQfBAST1s17HBVCyjQBPwM8DrQajBa0KkQKkIMEGFsrXBxz+pQKZlCEFkJLfBJqa8QHxr
QkEiIaXBMxPHQOJE5kCVDKjBBlDaQAc+LUFkBZbBdMK8QFxYgL7jRorBEETkQLUXAEDfG6zBdol3
QGOAFb8pHKPBhsLwQGxKEcDuXa/Bk/8FQXT8sr8WY1/B3UwQQdTBFEAbAn3B2WsTQfhgbsChH4vB
dk8NQQxFfsArBpnBRtzkQBs0ssA3VZXBd0kDQWuBu8Cu7YnBdrT7QKI15r/Yg4/BGt/XQEWDMcAa
mpfB85CIQH/WAkFTtJDBPbaqQIZgCkGyxoXBpbmfQBf6zUCFsHrBd09aQBR950BCln/BnAywQDBC
iUBCuIjBdTLVQDyxnsDl+HzBN8RPQCv5NcD5EpjB6PwtQBdkc8BDr4zBbD2BQG8wJsCAVIvB/NeL
QIXfKECy3qrBHgZqQMZW1j8jLKDB3WkAQcHg8UD8bpfB/ArvQAFmDUGCX47B09WjQEGpxMDDFIzB
SbeLQDvUncByXoPBTP5iQCdnXUAof5PBM6LGQGcQWEDXhp/BXcelQHoAsT/no4/BV2pWQPyaoEBa
xYXBQ1xUQBfiv0CrO5DBehpgQBR7hkCGN6XBLfC2QOiNKUGIjqzB35i6QERlE0Fjca7BrSbDQHsp
MkGymKLBBaPKQGvWBUHoYKbBAQDTQF+jJEHrg5rBsbjaQGRYD76bzITBqkTVQJ4jmT+kBq3BX8mg
QPpH7b54OafBn0zjQD6Ylr+Vrq/Bf94DQdUdBL9eZWrBf/AHQZb7uz+h6X3BrZrnQNo7dr9JjnjB
CxXvQPBdjD/5MIbB7/zWQDJ4DkE/YpzBA6StQFMMYT88NqjBeUPwQIRlKz7Io7DBbWG7QCJ7vr8z
EqvBYjbCQKuYuUBHjpPBnOLRQAoiD8D4CnXBHVziQKLW/j9tAo/BhmrRQH4LhcCDE5TBfhG7QFFI
pMBKoozBKxHpQIHoTsCxcYzBYomhQMcd90BT2InBJTuJQO/t1UDyOIPB4SufQKXQmkAyCo/B4z2v
QK8nicCDzYLBTL85QGhTTsAr8JPB6u+QQFI7/D+gEKTB58LnQP0uAEEJipPB2qCAQN1AccBLVIPB
rKSKQBAse0CdkJfBa+GoQNStNEAZwpvBXrINQRnLLD8RT23BHcPFQBZ740Dhn4/BWBzNQJcXScCK
54LBPX64QLD8+j+T8JLBWHx2QGN7s0BXYorBf2ndQJ73q0DCvZnBune/QF7SGsD2+WPBF9L8QHE7
MUBDsJLBSId4QKe6l0DUPKDB5jh2QAIbNMAW6ovBYSwLQQ4s8T7BJ7XBzzquQN5XMcBofqrBzMKq
QBLyM0GkwLLBKBuxQNzODEHkEbbB+FjAQB0lQ0HeKaHBzn/NQK256UDu06fBkSHcQBM/K0GJ3ZLB
pZzBQNrQ6L7vLIrBOMzeQCaeDkBQ7a3BS4uCQM2UNL+MhKPBufb3QGPv+7+Se7LBJ2YIQah+kb+2
/1zB4xMQQSZKGkCUFoDBNOfnQMLLlcBXZZnBwhG6QBtSZsBn6ZjB2zGeQBqCscDRbZDB76zQQJmR
vsCTYYrB4zMEQZD4acCxS4rBrpPtQFNoD8CAEpDBGX2LQDHCAkEqr4/BRtutQEURCEGyeYTBSlqe
QGTTyECc+3nBYWlaQET35EAe537BdcWtQHulhkDB0YjB55qzQL4/nMBV+3bBxxs1QNCaHMAcJJrB
AjhPQO9WhcCNlpfBl0D1PwHIV8CPOZDBut2GQDcXJ0Blw6rB0iRpQHaNwj9iTaDB/T4BQW4b7UAf
o5bB7RbzQGsyCkEj4YzB2w9WQIfmk8Bbq4TBnChxQOY6UsB5YXfBhM9dQB98W0BP3pPBQ1TEQDNx
U0ALtJ/BoN2jQHXyqD8Rm4/BMlFRQLFln0CVPIbBLKZUQB5kwEDUW5DBmglfQD0yhkD2kKXBUk6w
QHWdJkHwPK/BbWa+QP0hMUGB6aXBUSyzQFQqEEHIAbDB4m3PQGg8JUFCW53BskjEQNg5BEGcdafB
1VrXQACvdL2e/4TBL7PWQD5wfj+ULqvBmoGbQFIW7b5A8KXBpWDdQLkwtr+qBK3B4soBQfBTM7/P
xmvBTnoHQZW/sT9383vBBgjjQLP8gL+2p3rB4fXtQHb6kj+YgoXBbYjSQPzFDkHlF57Bag+tQAqt
Uz+wAKfBkvDuQJSNB74BGq7BnZOzQEMBy7/S/KjBGDDDQGQ9vEAArpPBR8TPQJfIFcCgbHvBNCrj
QJFvB0BE9I3BxEwHQT3/eMBV2ZDB8NPzQInLo8DrTo7BiLjtQNUpMsDfbpDBcdGfQK0G+kDMtYrB
lomJQHUc2UD/lYPB3QWhQFwdnUAD8Y7BZnjQQDJEk8BksobBUqNlQDqpWMDsUpDBuAOTQC9kAUCj
p6PBKvfkQO1QAkEMxZTBvW+jQLEro8BH5InBPMSMQOd0fkAAUpfB6nirQAXwOEBigZvBUmUMQZEE
9j5BlWzBZ8LEQEz/5kBQUpDBt8XTQDQYSMDK6obBopC6QPY7A0DOlpLBRgx5QMbvtEBtSorBTjzf
QAFyrkCAmpnBqt2+QAvKMsCeSGvBwOv9QDmMO0Dy8JDB8Nh5QEp7mECb/J/BcWeSQBtZjMBWCJPB
wYYLQWCe2zxF8bHB2qiiQGKdNMBm86fBZkqjQHrEL0H+zbXBuiG8QA9WQkF/VKXB70CoQKQdCEH2
JbfBQCbaQIRTLUExNZbB34fGQPYL5kByDajBpEq9QG6mgr7qc4rBpOTjQKsU/j8EIqzBAyx3QKqx
Fr9iyKLBSffvQCt9EsBQR6/B09wFQYKttb8mil/B8VQQQTMnFEBmtnzBr+gTQRJOb8CJ1IrBTZcO
QS/KfcD81ZjBU7blQMolscBmpZXBCrEDQSFlvMADWIrB9i79QAPO5r9EdY/B7O7ZQPa/McD6tZfB
YteIQAEBA0F7qpDByQqrQGlhCkGDuIXBebWfQJ0KzkAsrHrBVmVaQE+a50AjqH/Bek2wQDyIiUC8
tIjB+IXXQCrLnsBzJH3BehRPQEIVOcCIqpfB7UIvQNxld8C8Q4zBuD+BQLnFKMAI+orBIbWLQCRA
KEAEw6rBW/9pQDpK1j+Y/p/BWGcAQW0o8kCYiZfByA7vQIeUDUEVf47BJlylQG1pxcDL34vB5qyN
QBqnnsBSEYPBrmhjQCyzXUDDdZPBqcfGQDawV0A/g5/BnhCmQHWBsD9unI/Bk51WQHy+oEDN0YXB
Kd5UQFEQwEBWRpDB4bFgQB9PhkCXNKXB

>  <OMEGA_E>  (55) 
KLa6PqQu8j5csLo+

>  <OMEGA_NBR>  (55) 
     15661

$$$$
50147888
     RDKit          3D

 75 77  0  0  1  0  0  0  0  0999 V2000
    6.8377   -0.1537  -16.6508 C   0  0  0  0  0  0  0  0  0  0  0  0
    8.3789    1.4569  -15.6644 C   0  0  0  0  0  0  0  0  0  0  0  0
    8.1166   -0.7468  -14.6590 C   0  0  0  0  0  0  0  0  0  0  0  0
    6.8562    1.0630  -21.3161 C   0  0  0  0  0  0  0  0  0  0  0  0
    5.0565   -0.4472  -20.6440 C   0  0  0  0  0  0  0  0  0  0  0  0
    7.1712   -1.3509  -21.4575 C   0  0  0  0  0  0  0  0  0  0  0  0
    7.4394    1.1212  -16.6639 C   0  0  0  0  0  0  0  0  0  0  0  0
    7.2097   -1.0999  -15.6736 C   0  0  0  0  0  0  0  0  0  0  0  0
    8.6898    0.5364  -14.6436 C   0  0  0  0  0  0  0  0  0  0  0  0
    5.5498    0.8618  -20.8172 C   0  0  0  0  0  0  0  0  0  0  0  0
    7.6680   -0.0430  -21.6273 C   0  0  0  0  0  0  0  0  0  0  0  0
    5.8641   -1.5513  -20.9698 C   0  0  0  0  0  0  0  0  0  0  0  0
    6.0915    5.9962  -18.5509 C   0  0  0  0  0  0  0  0  0  0  0  0
    7.0927    2.0907  -17.7152 C   0  0  0  0  0  0  0  0  0  0  0  0
    6.6182   -2.4390  -15.6744 C   0  0  0  0  0  0  0  0  0  0  0  0
    4.9340    7.9664  -17.5620 C   0  0  0  0  0  0  0  0  0  0  0  0
    4.2975    6.9780  -16.5760 C   0  0  0  0  0  0  0  0  0  0  0  0
    5.0639    5.0121  -17.8874 C   0  0  2  0  0  0  0  0  0  0  0  0
    9.7013    0.8929  -13.5803 C   0  0  0  0  0  0  0  0  0  0  0  0
    9.2021   -4.7769  -17.1434 C   0  0  0  0  0  0  0  0  0  0  0  0
    3.5054   -4.8342  -17.9797 C   0  0  0  0  0  0  0  0  0  0  0  0
    4.6835    2.0432  -20.4424 C   0  0  0  0  0  0  0  0  0  0  0  0
    9.0446   -3.3257  -17.6310 C   0  0  0  0  0  0  0  0  0  0  0  0
    4.4369   -3.7398  -17.4832 C   0  0  0  0  0  0  0  0  0  0  0  0
    7.5796   -3.0065  -17.9595 C   0  0  0  0  0  0  0  0  0  0  0  0
    5.7293   -4.3655  -16.9472 C   0  0  0  0  0  0  0  0  0  0  0  0
    4.4142    4.0087  -18.8729 C   0  0  2  0  0  0  0  0  0  0  0  0
    5.3832    2.9227  -19.3849 C   0  0  1  0  0  0  0  0  0  0  0  0
    6.0808    7.3471  -18.2310 N   0  0  0  0  0  0  0  0  0  0  0  0
    5.8152    2.0698  -18.2636 N   0  0  0  0  0  0  0  0  0  0  0  0
    6.6913   -3.2773  -16.8000 N   0  0  0  0  0  0  0  0  0  0  0  0
    3.9158    5.7555  -17.3021 N   0  0  0  0  0  0  0  0  0  0  0  0
    7.0226    5.5796  -19.2277 O   0  0  0  0  0  0  0  0  0  0  0  0
    7.9296    2.9038  -18.0919 O   0  0  0  0  0  0  0  0  0  0  0  0
    5.9912   -2.7860  -14.6783 O   0  0  0  0  0  0  0  0  0  0  0  0
    3.8548    4.7353  -19.9671 O   0  0  0  0  0  0  0  0  0  0  0  0
    8.9233    0.1516  -22.0903 F   0  0  0  0  0  0  0  0  0  0  0  0
    5.3834   -2.8045  -20.8149 F   0  0  0  0  0  0  0  0  0  0  0  0
    6.0914   -0.4059  -17.3897 H   0  0  0  0  0  0  0  0  0  0  0  0
    8.8612    2.4231  -15.6825 H   0  0  0  0  0  0  0  0  0  0  0  0
    8.3730   -1.4617  -13.8912 H   0  0  0  0  0  0  0  0  0  0  0  0
    7.2315    2.0656  -21.4586 H   0  0  0  0  0  0  0  0  0  0  0  0
    4.0586   -0.6021  -20.2611 H   0  0  0  0  0  0  0  0  0  0  0  0
    7.7924   -2.2001  -21.7012 H   0  0  0  0  0  0  0  0  0  0  0  0
    4.1880    8.2585  -18.3158 H   0  0  0  0  0  0  0  0  0  0  0  0
    5.2712    8.8590  -17.0148 H   0  0  0  0  0  0  0  0  0  0  0  0
    5.0212    6.7272  -15.7864 H   0  0  0  0  0  0  0  0  0  0  0  0
    3.4039    7.4324  -16.1234 H   0  0  0  0  0  0  0  0  0  0  0  0
    5.5802    4.4483  -17.0965 H   0  0  0  0  0  0  0  0  0  0  0  0
    9.1859    1.3445  -12.7198 H   0  0  0  0  0  0  0  0  0  0  0  0
   10.2281   -0.0166  -13.2559 H   0  0  0  0  0  0  0  0  0  0  0  0
   10.4271    1.6104  -13.9907 H   0  0  0  0  0  0  0  0  0  0  0  0
   10.2601   -4.9752  -16.9165 H   0  0  0  0  0  0  0  0  0  0  0  0
    8.5984   -4.9263  -16.2361 H   0  0  0  0  0  0  0  0  0  0  0  0
    8.8603   -5.4667  -17.9290 H   0  0  0  0  0  0  0  0  0  0  0  0
    2.5791   -4.3818  -18.3636 H   0  0  0  0  0  0  0  0  0  0  0  0
    3.9989   -5.3982  -18.7849 H   0  0  0  0  0  0  0  0  0  0  0  0
    3.2643   -5.5148  -17.1498 H   0  0  0  0  0  0  0  0  0  0  0  0
    4.4882    2.6466  -21.3411 H   0  0  0  0  0  0  0  0  0  0  0  0
    3.7308    1.6763  -20.0329 H   0  0  0  0  0  0  0  0  0  0  0  0
    9.3925   -2.6424  -16.8424 H   0  0  0  0  0  0  0  0  0  0  0  0
    9.6544   -3.1828  -18.5353 H   0  0  0  0  0  0  0  0  0  0  0  0
    4.6770   -3.0594  -18.3135 H   0  0  0  0  0  0  0  0  0  0  0  0
    3.9424   -3.1760  -16.6784 H   0  0  0  0  0  0  0  0  0  0  0  0
    7.4975   -1.9441  -18.2324 H   0  0  0  0  0  0  0  0  0  0  0  0
    7.2596   -3.6288  -18.8082 H   0  0  0  0  0  0  0  0  0  0  0  0
    5.5443   -4.8425  -15.9734 H   0  0  0  0  0  0  0  0  0  0  0  0
    6.1103   -5.1152  -17.6563 H   0  0  0  0  0  0  0  0  0  0  0  0
    3.6030    3.4980  -18.3333 H   0  0  0  0  0  0  0  0  0  0  0  0
    6.2563    3.4092  -19.8443 H   0  0  0  0  0  0  0  0  0  0  0  0
    6.8740    7.9102  -18.4625 H   0  0  0  0  0  0  0  0  0  0  0  0
    5.1476    1.4363  -17.8724 H   0  0  0  0  0  0  0  0  0  0  0  0
    3.4401    5.1481  -16.6658 H   0  0  0  0  0  0  0  0  0  0  0  0
    3.2965    6.0118  -18.0443 H   0  0  0  0  0  0  0  0  0  0  0  0
    3.4533    4.1289  -20.5783 H   0  0  0  0  0  0  0  0  0  0  0  0
  1  7  2  0
  1  8  1  0
  2  7  1  0
  2  9  2  0
  3  8  2  0
  3  9  1  0
  4 10  2  0
  4 11  1  0
  5 10  1  0
  5 12  2  0
  6 11  2  0
  6 12  1  0
  7 14  1  0
  8 15  1  0
  9 19  1  0
 10 22  1  0
 11 37  1  0
 12 38  1  0
 13 18  1  0
 13 29  1  0
 13 33  2  0
 14 30  1  0
 14 34  2  0
 15 31  1  0
 15 35  2  0
 16 17  1  0
 16 29  1  0
 17 32  1  0
 18 27  1  0
 18 32  1  0
 20 23  1  0
 21 24  1  0
 22 28  1  0
 23 25  1  0
 24 26  1  0
 25 31  1  0
 26 31  1  0
 27 28  1  0
 27 36  1  0
 28 30  1  0
  1 39  1  0
  2 40  1  0
  3 41  1  0
  4 42  1  0
  5 43  1  0
  6 44  1  0
 16 45  1  0
 16 46  1  0
 17 47  1  0
 17 48  1  0
 18 49  1  1
 19 50  1  0
 19 51  1  0
 19 52  1  0
 20 53  1  0
 20 54  1  0
 20 55  1  0
 21 56  1  0
 21 57  1  0
 21 58  1  0
 22 59  1  0
 22 60  1  0
 23 61  1  0
 23 62  1  0
 24 63  1  0
 24 64  1  0
 25 65  1  0
 25 66  1  0
 26 67  1  0
 26 68  1  0
 27 69  1  1
 28 70  1  6
 29 71  1  0
 30 72  1  0
 32 73  1  0
 32 74  1  0
 36 75  1  0
M  CHG  1  32   1
M  END
>  <OMEGA_C>  (56) 
O87aQE5pHb7dNIXBFRAGQed7uj9/oXrBqN0BQRIrP79Ai2rB+GXbQDQQiD9wh6rBIs+hQDDx5L7T
JqXBHHrlQHrrrL/wqKvBLw/uQIGEjz+UT4XBsLXmQDbJjL/exnrBSQkLQfhTCT9bTGrBFJixQDac
XD+PiabB3V/1QNxLML2zBK3B+Ka7QL2Pxr8/wqfBNu3CQADhv0BUaJTBhvfiQP/NBUCvuI3B/cfT
QOwXHMA9ynrB8OKdQKzs/kD8fozBeIWJQNlL30CRm4TBQwuiQDRjoEBVGY/BnjgbQaKXZD/PSFnB
/TsTQS/cmMCkJYnBMlhgQCaymsBv1o/Bht+VQD7EAkD2iaPBg7YQQRfYVMBdDI3BGvuNQE1Zb8CT
3YvB4YvyQHlqQMAWrY/Bgla3QNCxi8DVk4fBAUGNQFxHgECt+5bBWUOsQJ4NO0BBFJvBu5XCQBkb
60AV2ZHB9BW6QOJ3BEDBG5LBHR/WQEi/UcBXZobBrpt6QEUtuEChaorB17jgQPGLskBG0pnBHb/9
QBbXOUBFvJDBjbe/QA5NMsAd2mrBMrV2QOuHl0CvvJ/BwcUOQT5AGz77uLDBpkSsQA59M8DjhKbB
Ce3CQNXSz74SHovBrccNQUoTG0B/63rBpPcFQbcZu79gQl7BnGjnQOEyBEBEq6vBYOCBQGYiGr+t
FqLBDFv5QMzODMADnK3BHASGQPMiBEHDhpLB9q2oQIC+DUE8HojBwq2gQDNF10AdlXzBGdlZQIPW
7UCf/IDBH5GyQCFYjkClxYjBX/kSQSkarD9rhEvBeqYjQcDlh7wsGFTBftUmQcAizj+72V/BOikk
QXc0n8DpVIfBH5MJQQCkncB944HBl8MNQXLvrsCcbo/BLRAlQBY4jMCa6JLB8O1/QHS+rMB7R5bB
6upQQHV5sMDUMonBk5+PQF9iKUCduqrBdsVuQMuP1j9xQ6DB10cWQXkcKcAzvYbBT3gaQV2zS8BS
SJTB66mVQAXOQ8AWgpLB0VB8QAZES8BvbYXB2+vvQMfW+L8E3JHBT07oQPk+aMA1d5bBEmuxQLP1
msAhk3/BV4fDQFmvo8ARQI3BIZdmQGzfX0CpqpLBpjPIQEcwWkAdwZ7BAvjbQL4g/UAhs5PBSbmk
QFjXtz/E+o7BUypcQKC9pECQU4XBR/pSQENgwEC4WpDBuwJdQCkghEBioKTBWmHYQJmJWb7ik4XB
7BAGQSkcrD8axnvBwgABQU5RWr+XvWvBBVnZQKZDgz8XuKrByjOfQEzm6r5QQqXBDgriQPYysr+F
B6zBPQftQIKnhT+PuIXBip/jQCoJlr/DlnvB6PEKQWu10T6op2vBtZmvQOiRVz8uoqbBFaTyQAqs
u70KVK3BPzi4QNVYyb9FDajBrxLEQGRLvkAAQJTBCDTiQPEvAkBU/Y3BX1DPQIIKIMAQZXvBXEeh
QGaI/UCJ1IvBTO+LQAKr3UCIKYTBpIqiQDs/n0DdB4/B5L0bQVYcOz8wB1vBLxdvQDyzX8BR2IzB
ggkWQZqCi8CTGYjBc3eUQLcnAkCPk6PBPhCWQJr1lcCCgI7B5toHQQ0bhcDACpLBN4K6QPzqlcAF
O4bB1CvtQPP9RcD9/o/BZRaNQA/of0Ca/pbBqHarQAGuOUCGKZvBGzXFQDcv6UDrYZHBJiG5QKuj
AkDIPZLBYqPSQCKZWcC/YIbBXu18QMeyt0AvQ4rBLufgQGDPsEBT9ZnBuzf9QJjuNUAl9ZDBX6K8
QJ4HNcDO9GrB+IJ3QHvjl0BKs5/BlmMNQdhCrz0BHbHBWPanQItMNMBN66bBWf2/QF+J4L7obIvB
QkAOQf3oEkAqKHzBcAgFQbQxyr+NnF/BV9XlQHV1AUCa1qvBPNV+QOWFGb9oD6LBMVv1QHADEMDP
FK7BlaaJQLM3BEGdwZHBUxutQJ6TDEH2PofBvteiQIMm1EBy1nvBGKpfQJ6u7ED1a4DBpLSyQM2S
jECswojBAxUUQQ5QmT+oDU3Bvs8jQeTNSL4kEFbBqI8nQeJetj+s3mHBQfI7QF7eYcDb4pLBM7xS
QKtEY8B/zYTBYX6JQMp9I8DkqI3BLDYiQfkDpMAFyonBsvYdQXFLWsBXEobBihEMQcHvlcAJVYHB
pkCOQD8AKUDJv6rBMdtrQB7g1j8VP6DBVdCDQCPls8Czt43BnPCjQLMBlMAYk5bB2e4RQVKkdcBj
yJjBsQkAQTKco8AUC5TBmtSsQACwmsCoa3zBDafQQCtGsMB/EYjBKuz8QFbCB8AKzo7B0xXYQBCT
QsCLB5fB05JlQFnmX0B1upLB9oHHQLQVWEDq4Z7B/h7fQMiV+kAdJZPB6HyjQJwjtj+uCY/BdM1c
QOg+pEAvV4XBfUtWQAVBwUAgLZDBPwRdQNfwhECcoqTB

>  <OMEGA_E>  (56) 
sLjiPrg5mT4=

>  <OMEGA_NBR>  (56) 
     18351

$$$$
50147879
     RDKit          3D

 87 89  0  0  1  0  0  0  0  0999 V2000
    6.7518   -0.1771  -16.6871 C   0  0  0  0  0  0  0  0  0  0  0  0
    8.3820    1.3767  -15.7436 C   0  0  0  0  0  0  0  0  0  0  0  0
    8.0177   -0.7917  -14.6935 C   0  0  0  0  0  0  0  0  0  0  0  0
    6.8200    1.0335  -21.3572 C   0  0  0  0  0  0  0  0  0  0  0  0
    4.9936   -0.4430  -20.6816 C   0  0  0  0  0  0  0  0  0  0  0  0
    7.0856   -1.3852  -21.5075 C   0  0  0  0  0  0  0  0  0  0  0  0
    7.4170    1.0681  -16.7277 C   0  0  0  0  0  0  0  0  0  0  0  0
    7.0796   -1.1211  -15.6911 C   0  0  0  0  0  0  0  0  0  0  0  0
    8.6586    0.4607  -14.7094 C   0  0  0  0  0  0  0  0  0  0  0  0
    5.5117    0.8547  -20.8554 C   0  0  0  0  0  0  0  0  0  0  0  0
    7.6092   -0.0868  -21.6728 C   0  0  0  0  0  0  0  0  0  0  0  0
    5.7751   -1.5604  -21.0176 C   0  0  0  0  0  0  0  0  0  0  0  0
    6.0685    5.9832  -18.5658 C   0  0  0  0  0  0  0  0  0  0  0  0
    7.1036    2.0339  -17.7924 C   0  0  0  0  0  0  0  0  0  0  0  0
    6.4479   -2.4507  -15.6756 C   0  0  0  0  0  0  0  0  0  0  0  0
    4.9076    7.8441  -17.3536 C   0  0  0  0  0  0  0  0  0  0  0  0
    4.4103    6.7617  -16.4025 C   0  0  0  0  0  0  0  0  0  0  0  0
    5.0966    4.9484  -17.9027 C   0  0  2  0  0  0  0  0  0  0  0  0
    9.7078    0.7834  -13.6699 C   0  0  0  0  0  0  0  0  0  0  0  0
    3.7368   -3.3854  -17.6238 C   0  0  0  0  0  0  0  0  0  0  0  0
    9.3385   -4.3505  -16.9890 C   0  0  0  0  0  0  0  0  0  0  0  0
    5.9269    8.4125  -21.3606 C   0  0  0  0  0  0  0  0  0  0  0  0
    6.5047   10.5694  -20.1831 C   0  0  0  0  0  0  0  0  0  0  0  0
    4.6666    2.0471  -20.4817 C   0  0  0  0  0  0  0  0  0  0  0  0
    4.6588   -4.6063  -17.8026 C   0  0  0  0  0  0  0  0  0  0  0  0
    8.4481   -4.1324  -18.2258 C   0  0  0  0  0  0  0  0  0  0  0  0
    6.7889    8.3754  -18.9494 C   0  0  0  0  0  0  0  0  0  0  0  0
    5.7824   -4.6241  -16.7524 C   0  0  0  0  0  0  0  0  0  0  0  0
    7.3919   -3.0471  -17.9586 C   0  0  0  0  0  0  0  0  0  0  0  0
    4.4230    3.9966  -18.9114 C   0  0  2  0  0  0  0  0  0  0  0  0
    5.9407    9.1479  -20.0048 C   0  0  0  0  0  0  0  0  0  0  0  0
    5.3837    2.9138  -19.4321 C   0  0  1  0  0  0  0  0  0  0  0  0
    5.9847    7.3498  -18.2410 N   0  0  0  0  0  0  0  0  0  0  0  0
    5.8141    2.0603  -18.3113 N   0  0  0  0  0  0  0  0  0  0  0  0
    6.5542   -3.3501  -16.7605 N   0  0  0  0  0  0  0  0  0  0  0  0
    3.9780    5.6264  -17.2152 N   0  0  0  0  0  0  0  0  0  0  0  0
    6.9741    5.5825  -19.2889 O   0  0  0  0  0  0  0  0  0  0  0  0
    7.9717    2.7961  -18.2050 O   0  0  0  0  0  0  0  0  0  0  0  0
    5.8715   -2.7828  -14.6453 O   0  0  0  0  0  0  0  0  0  0  0  0
    3.8820    4.7608  -19.9900 O   0  0  0  0  0  0  0  0  0  0  0  0
    8.8676    0.0852  -22.1365 F   0  0  0  0  0  0  0  0  0  0  0  0
    5.2647   -2.8022  -20.8661 F   0  0  0  0  0  0  0  0  0  0  0  0
    5.9916   -0.4068  -17.4190 H   0  0  0  0  0  0  0  0  0  0  0  0
    8.9097    2.3181  -15.7841 H   0  0  0  0  0  0  0  0  0  0  0  0
    8.2458   -1.5030  -13.9135 H   0  0  0  0  0  0  0  0  0  0  0  0
    7.2136    2.0293  -21.4983 H   0  0  0  0  0  0  0  0  0  0  0  0
    3.9962   -0.5789  -20.2904 H   0  0  0  0  0  0  0  0  0  0  0  0
    7.6884   -2.2460  -21.7564 H   0  0  0  0  0  0  0  0  0  0  0  0
    4.0657    8.1863  -17.9735 H   0  0  0  0  0  0  0  0  0  0  0  0
    5.2937    8.6871  -16.7618 H   0  0  0  0  0  0  0  0  0  0  0  0
    5.2224    6.4528  -15.7278 H   0  0  0  0  0  0  0  0  0  0  0  0
    3.5656    7.1422  -15.8094 H   0  0  0  0  0  0  0  0  0  0  0  0
    5.6672    4.3496  -17.1776 H   0  0  0  0  0  0  0  0  0  0  0  0
    9.2327    1.2783  -12.8100 H   0  0  0  0  0  0  0  0  0  0  0  0
   10.1914   -0.1466  -13.3362 H   0  0  0  0  0  0  0  0  0  0  0  0
   10.4630    1.4531  -14.1070 H   0  0  0  0  0  0  0  0  0  0  0  0
    2.9477   -3.4059  -18.3898 H   0  0  0  0  0  0  0  0  0  0  0  0
    3.2784   -3.4156  -16.6243 H   0  0  0  0  0  0  0  0  0  0  0  0
    4.3261   -2.4626  -17.7292 H   0  0  0  0  0  0  0  0  0  0  0  0
   10.0838   -5.1299  -17.2059 H   0  0  0  0  0  0  0  0  0  0  0  0
    9.8529   -3.4113  -16.7374 H   0  0  0  0  0  0  0  0  0  0  0  0
    8.7149   -4.6660  -16.1395 H   0  0  0  0  0  0  0  0  0  0  0  0
    5.5229    7.3986  -21.2242 H   0  0  0  0  0  0  0  0  0  0  0  0
    5.2958    8.9661  -22.0714 H   0  0  0  0  0  0  0  0  0  0  0  0
    6.9524    8.3488  -21.7534 H   0  0  0  0  0  0  0  0  0  0  0  0
    6.5110   11.0864  -19.2122 H   0  0  0  0  0  0  0  0  0  0  0  0
    7.5314   10.5101  -20.5735 H   0  0  0  0  0  0  0  0  0  0  0  0
    5.8747   11.1274  -20.8915 H   0  0  0  0  0  0  0  0  0  0  0  0
    4.4772    2.6516  -21.3809 H   0  0  0  0  0  0  0  0  0  0  0  0
    3.7098    1.6961  -20.0676 H   0  0  0  0  0  0  0  0  0  0  0  0
    4.0604   -5.5238  -17.7011 H   0  0  0  0  0  0  0  0  0  0  0  0
    5.1082   -4.5708  -18.8060 H   0  0  0  0  0  0  0  0  0  0  0  0
    9.0779   -3.8211  -19.0723 H   0  0  0  0  0  0  0  0  0  0  0  0
    7.9400   -5.0758  -18.4744 H   0  0  0  0  0  0  0  0  0  0  0  0
    7.6278    7.8799  -19.4602 H   0  0  0  0  0  0  0  0  0  0  0  0
    7.1802    9.0925  -18.2128 H   0  0  0  0  0  0  0  0  0  0  0  0
    5.3387   -4.7674  -15.7561 H   0  0  0  0  0  0  0  0  0  0  0  0
    6.4653   -5.4577  -16.9731 H   0  0  0  0  0  0  0  0  0  0  0  0
    7.9047   -2.0874  -17.7975 H   0  0  0  0  0  0  0  0  0  0  0  0
    6.7356   -2.9690  -18.8379 H   0  0  0  0  0  0  0  0  0  0  0  0
    3.6012    3.4867  -18.3874 H   0  0  0  0  0  0  0  0  0  0  0  0
    4.9077    9.2223  -19.6344 H   0  0  0  0  0  0  0  0  0  0  0  0
    6.2562    3.3967  -19.8964 H   0  0  0  0  0  0  0  0  0  0  0  0
    5.1321    1.4588  -17.8953 H   0  0  0  0  0  0  0  0  0  0  0  0
    3.5215    4.9645  -16.6206 H   0  0  0  0  0  0  0  0  0  0  0  0
    3.3329    5.9555  -17.9047 H   0  0  0  0  0  0  0  0  0  0  0  0
    3.4658    4.1779  -20.6142 H   0  0  0  0  0  0  0  0  0  0  0  0
  1  7  2  0
  1  8  1  0
  2  7  1  0
  2  9  2  0
  3  8  2  0
  3  9  1  0
  4 10  2  0
  4 11  1  0
  5 10  1  0
  5 12  2  0
  6 11  2  0
  6 12  1  0
  7 14  1  0
  8 15  1  0
  9 19  1  0
 10 24  1  0
 11 41  1  0
 12 42  1  0
 13 18  1  0
 13 33  1  0
 13 37  2  0
 14 34  1  0
 14 38  2  0
 15 35  1  0
 15 39  2  0
 16 17  1  0
 16 33  1  0
 17 36  1  0
 18 30  1  0
 18 36  1  0
 20 25  1  0
 21 26  1  0
 22 31  1  0
 23 31  1  0
 24 32  1  0
 25 28  1  0
 26 29  1  0
 27 31  1  0
 27 33  1  0
 28 35  1  0
 29 35  1  0
 30 32  1  0
 30 40  1  0
 32 34  1  0
  1 43  1  0
  2 44  1  0
  3 45  1  0
  4 46  1  0
  5 47  1  0
  6 48  1  0
 16 49  1  0
 16 50  1  0
 17 51  1  0
 17 52  1  0
 18 53  1  1
 19 54  1  0
 19 55  1  0
 19 56  1  0
 20 57  1  0
 20 58  1  0
 20 59  1  0
 21 60  1  0
 21 61  1  0
 21 62  1  0
 22 63  1  0
 22 64  1  0
 22 65  1  0
 23 66  1  0
 23 67  1  0
 23 68  1  0
 24 69  1  0
 24 70  1  0
 25 71  1  0
 25 72  1  0
 26 73  1  0
 26 74  1  0
 27 75  1  0
 27 76  1  0
 28 77  1  0
 28 78  1  0
 29 79  1  0
 29 80  1  0
 30 81  1  1
 31 82  1  0
 32 83  1  6
 34 84  1  0
 36 85  1  0
 36 86  1  0
 40 87  1  0
M  CHG  1  36   1
M  END
>  <OMEGA_C>  (57) 
/Q7YQChRNb4bf4XBoBwGQZM2sD/q5XvBZEgAQV+tSr+TGGvBCT3aQEBKhD+B26rBc8ufQLDO4r7+
c6XB1LziQCxOsb9zD6zBF1jtQP+1iD870oXBZ4ziQMh+j7/fDnvBcIkKQSDe6z63WWvB61+wQNDK
Wj/h16bBUn7zQHTPsb3VYa3B+824QMe8x78HJKjBKzHCQJN2v0DOhpTBp1DjQAosAkDYVo7BO1XO
QNLYHMBlz3rBrQqdQIoC+0BG1IrBfiGNQMFf2EBBOIPBDBejQLBZnkDAOI/B9FIbQemLSD/At1rB
fihvQAqrWMB7/YzBjGoVQX03i8B06YfBg6m9QMiZBkFq4qrBMSbQQC0cKUESd6HBfVSVQF8DA0B2
2qPBvhSVQDBnk8C1a47BmSsHQZY8hMCFzpHB9D7ZQHYBBkFymJfBFgm5QJH4k8DrBIbBs4rsQMID
Q8BLq4/BV4mNQB3If0CmSpfBnhq+QLBdEkHuCaDBVkesQDB7OkDzdJvBpIK/QOcx60Ck7ZHBxwy6
QHncA0CVfZLB+rvRQPxnVsB9FYbBppd+QBULtEC7uInB6yvfQNijskCzT5rBaRj/QFnzMkDUo5HB
beO7QPsYMsBTU2rBjnJ4QCFYmEB+65/Bg+ENQeRwrj2fF7HBbnioQM1XM8Cx7abBWbu/QKtJ0L4R
WovBT44OQTxbFECQi3zB5O4DQbZjwL/TnV7BdNXmQO3fAUBw/KvBAcF/QP0vFL+6UqLBeAf2QBi/
D8AJDa7BcBqCQEL7AkGoyY/Bu2WpQCz+CkEuGIbBvh2nQKR9zkABpXvBQDNkQJ2M5EBl83zBDlq1
QBkwi0DNa4nBEbkTQeegoz/b9UzB6Q8jQQEUFr5AYVXBjmgnQWD+uT80tmHB0qY8QHH6WcBPHpPB
D9FRQBaZWsCa/oTBoG+KQCybHcBY1Y3BZ1chQSAopMDApYnBeKUdQfZSWsA45oXBYnALQcxPlcCy
HYHB1buwQPLA7EAmy6nB83apQAN1D0EhkrDBPHreQH2UBUH0Bq7BwlnQQLphMUGfspnB3wDxQHUp
KEGMlqTBl/27QPsJMkG5IafB+USPQGm0KUAeDKvBoW1tQMYa2T9piqDB5+6BQLLCsMDrm43B/3Wj
QL1DksCocpbBIT8RQeCMdMAPlJjBFRT+QMJsosCKy5PB2Rb0QBYo/EBprpvBEsTlQAh7EUHls5HB
7daqQMaOmMDpGHzB5ePOQF2lrsDRyIfBRvP8QGaXBcA8YY7BsonXQI4EPsD/s5bBHnpmQAkmX0Bh
GZPB0wudQLaOE0EzE53B1jLIQHpjWUC8K5/BEjqkQP66uj95KY/BQmBhQOLcnkAR94TBzE1VQJST
vkDlPI/BWtBdQESxhUDJ6aTBHCTaQISp7L2E84XBWqQIQbvPtD/8+H7BKL4CQUL2Nr9z42zB5ePX
QJqQjD9UjazBMmihQDG61b6cfaXBpCjjQBkFqL/dKa3B9GPwQGijjT9p2YbBvxXlQL/9g7/+rnvB
8/cNQUOh/z5/o27B66uvQDCOYz8Vs6fB+LzxQACRPLv7Nq/BE926QNY4wr/iWqjBqFfAQKTgvEAn
E5TBpPXkQJxnA0CeYY/B0PHNQGxRE8Ckq3nBHMCVQEGC9kDuDovBJPCMQDnS00Cgw4LBzXCjQKo0
mkBk747BPt0eQfLjWT8kR17BMyprQFdHWMAGBo7B8FATQQmCisBk3IXB21P/QFP1CEHv/YrBCBMB
QSEMH0HW2pvBcHaUQGb+A0AdeqTBwIWSQAvrk8AFR43BxtgEQRFjiMCyzI/B+PLHQOpABEHVFJrB
tuKyQF+1j8BtD4TBnvXoQKm1R8C8047BJHONQMRefUDMhpfBzwb3QL78CEHgN5fBvROsQAsXOkAa
GZzB6TK1QJQI6EBbF5PBuV+7QF7EAkAnW5PBvmDNQH2ZUMAHIIXBjz6AQL1JrUBum4jBMFveQPor
skA/z5nB7/3/QELINEBh6pLBBoC7QBO7IMCYrmjB3Mp6QKCTmUBj4Z/BKzwMQZyoSz4rwbPBLFKs
QBdEMcAYkqbBCbDAQFzSsr4RfYvB3CcRQVNXFkBjHoDBBZAGQeTjs79QKmDBLMjiQBGEBkA0N67B
fvOCQFS7Er8CmqHBFN72QLA2CsDYRq/BbUlvQNKr/kC0Io/BuFuiQBmECUEg+obBLPypQJ58zUDp
GnzBcPplQLz+3UBxx3rBoyq3QJaBhUCCzYnBXGEXQeqBsD90xVDBS4gmQf3Tjr1OdVjBt/sqQRYF
wD+ismXBILc9QBc4YMCWq5TBpaBHQCuMUMAdfYbBAGiJQAA5H8A9cY/BZdceQWbcpMA9xYbBpAMc
QQs2WMCt/YTB2XAJQcAQkMDAa33Ba1j3QJ9K8kDdrofBPaEQQVh9DEGadInB40XrQH45FUHRKIfB
1D38QJUKH0Gwh6TBZBjuQJFSK0FwB5jBfQoSQWuWIkE5U5rBYLeNQFySK0B7jqvBpV5sQGdT2T/F
EKHBYe58QB1QsMCX5YvB3g6kQIiml8C32ZTBu9MOQU/2gsCA65bB4YH4QAnspsCzo5DBW1W1QNwc
E0F3UZnB93DGQNoU/UB3ZaLBJVmhQONujsCv33jBaRnIQCfMq8BBGoTBk0n6QD6LCsB+XI7BBmjU
QGryR8Cc+JXBmS9lQKKPW0ABuJPBacgFQbOs+UB9+5rBqUzHQMmJWkC17Z/BtX2mQIEhtD+LD5DB
PvVrQNmJl0B5VIPBu8dQQDvntECYlo3Bxq1fQKx4iECvK6XB

>  <OMEGA_E>  (57) 
YC1TPhBGuT4=

>  <OMEGA_NBR>  (57) 
     21377

$$$$
248245
     RDKit          3D

 86 91  0  0  1  0  0  0  0  0999 V2000
    7.0692   -1.3245  -21.7609 C   0  0  0  0  0  0  0  0  0  0  0  0
    5.5362   10.6305  -21.6826 C   0  0  0  0  0  0  0  0  0  0  0  0
    7.5254   -0.0039  -21.9394 C   0  0  0  0  0  0  0  0  0  0  0  0
    5.8038   -1.5625  -21.1909 C   0  0  0  0  0  0  0  0  0  0  0  0
    5.6787    9.2445  -21.8961 C   0  0  0  0  0  0  0  0  0  0  0  0
    5.9165   11.1977  -20.4499 C   0  0  0  0  0  0  0  0  0  0  0  0
    8.8263    0.4087  -14.8610 C   0  0  0  0  0  0  0  0  0  0  0  0
    8.0744   -0.7775  -14.7412 C   0  0  0  0  0  0  0  0  0  0  0  0
    8.5383    1.3261  -15.8922 C   0  0  0  0  0  0  0  0  0  0  0  0
    6.7166    1.0772  -21.5442 C   0  0  0  0  0  0  0  0  0  0  0  0
    5.0046   -0.4863  -20.7682 C   0  0  0  0  0  0  0  0  0  0  0  0
    6.2110    8.4261  -20.8803 C   0  0  0  0  0  0  0  0  0  0  0  0
    6.4419   10.3809  -19.4313 C   0  0  0  0  0  0  0  0  0  0  0  0
    6.7646   -0.1421  -16.6967 C   0  0  0  0  0  0  0  0  0  0  0  0
   10.0009   -4.5562  -17.8243 C   0  0  0  0  0  0  0  0  0  0  0  0
    7.0405   -1.0583  -15.6658 C   0  0  0  0  0  0  0  0  0  0  0  0
    7.4959    1.0563  -16.8107 C   0  0  0  0  0  0  0  0  0  0  0  0
    5.4587    0.8358  -20.9466 C   0  0  0  0  0  0  0  0  0  0  0  0
    6.5981    8.9951  -19.6451 C   0  0  0  0  0  0  0  0  0  0  0  0
    9.4769   -4.4811  -16.5561 C   0  0  0  0  0  0  0  0  0  0  0  0
    7.7065   -3.6622  -17.7050 C   0  0  0  0  0  0  0  0  0  0  0  0
    6.0711    5.8740  -18.4854 C   0  0  0  0  0  0  0  0  0  0  0  0
    6.1672   -2.2398  -15.5019 C   0  0  0  0  0  0  0  0  0  0  0  0
    7.1326    2.0210  -17.8669 C   0  0  0  0  0  0  0  0  0  0  0  0
    4.1481   -4.2178  -17.9231 C   0  0  0  0  0  0  0  0  0  0  0  0
    5.5086   -4.3056  -18.5720 C   0  0  0  0  0  0  0  0  0  0  0  0
    4.5019   -3.8642  -16.4874 C   0  0  0  0  0  0  0  0  0  0  0  0
    4.9881    7.7802  -17.2969 C   0  0  0  0  0  0  0  0  0  0  0  0
    4.3065    6.7296  -16.4207 C   0  0  0  0  0  0  0  0  0  0  0  0
    6.2999   -3.1655  -17.9036 C   0  0  1  0  0  0  0  0  0  0  0  0
    5.0186    4.8845  -17.8916 C   0  0  2  0  0  0  0  0  0  0  0  0
   10.2220   -4.7431  -15.2754 C   0  0  0  0  0  0  0  0  0  0  0  0
    4.5961    1.9872  -20.4932 C   0  0  0  0  0  0  0  0  0  0  0  0
    7.1589    8.1314  -18.5356 C   0  0  0  0  0  0  0  0  0  0  0  0
    4.3820    3.9510  -18.9427 C   0  0  2  0  0  0  0  0  0  0  0  0
    5.3437    2.8639  -19.4697 C   0  0  1  0  0  0  0  0  0  0  0  0
    8.1629   -4.0686  -16.5475 N   0  0  0  0  0  0  0  0  0  0  0  0
    6.1309    7.1996  -18.0288 N   0  0  0  0  0  0  0  0  0  0  0  0
    5.5993   -2.8933  -16.6079 N   0  0  0  0  0  0  0  0  0  0  0  0
    5.8256    2.0214  -18.3587 N   0  0  0  0  0  0  0  0  0  0  0  0
    3.8855    5.6192  -17.2817 N   0  0  0  0  0  0  0  0  0  0  0  0
    6.9342    5.4579  -19.2498 O   0  0  0  0  0  0  0  0  0  0  0  0
    5.8922   -2.6242  -14.3708 O   0  0  0  0  0  0  0  0  0  0  0  0
    7.9730    2.8028  -18.2973 O   0  0  0  0  0  0  0  0  0  0  0  0
    3.8920    4.7457  -20.0245 O   0  0  0  0  0  0  0  0  0  0  0  0
    8.8582   -3.9395  -18.9761 S   0  0  0  0  0  0  0  0  0  0  0  0
    7.6905   -2.1553  -22.0614 H   0  0  0  0  0  0  0  0  0  0  0  0
    5.1352   11.2584  -22.4645 H   0  0  0  0  0  0  0  0  0  0  0  0
    8.4948    0.1784  -22.3791 H   0  0  0  0  0  0  0  0  0  0  0  0
    5.4461   -2.5753  -21.0781 H   0  0  0  0  0  0  0  0  0  0  0  0
    5.3798    8.8098  -22.8385 H   0  0  0  0  0  0  0  0  0  0  0  0
    5.8046   12.2594  -20.2867 H   0  0  0  0  0  0  0  0  0  0  0  0
    9.6237    0.6151  -14.1624 H   0  0  0  0  0  0  0  0  0  0  0  0
    8.2875   -1.4729  -13.9428 H   0  0  0  0  0  0  0  0  0  0  0  0
    9.1138    2.2356  -15.9813 H   0  0  0  0  0  0  0  0  0  0  0  0
    7.0565    2.0908  -21.6974 H   0  0  0  0  0  0  0  0  0  0  0  0
    4.0454   -0.6720  -20.3081 H   0  0  0  0  0  0  0  0  0  0  0  0
    6.3234    7.3647  -21.0450 H   0  0  0  0  0  0  0  0  0  0  0  0
    6.7260   10.8156  -18.4844 H   0  0  0  0  0  0  0  0  0  0  0  0
    5.9829   -0.3600  -17.4094 H   0  0  0  0  0  0  0  0  0  0  0  0
   10.9795   -4.9422  -18.0684 H   0  0  0  0  0  0  0  0  0  0  0  0
    3.5340   -3.4324  -18.3880 H   0  0  0  0  0  0  0  0  0  0  0  0
    3.6168   -5.1794  -17.9781 H   0  0  0  0  0  0  0  0  0  0  0  0
    5.9778   -5.2801  -18.3713 H   0  0  0  0  0  0  0  0  0  0  0  0
    5.4368   -4.1500  -19.6585 H   0  0  0  0  0  0  0  0  0  0  0  0
    3.6394   -3.4144  -15.9737 H   0  0  0  0  0  0  0  0  0  0  0  0
    4.8316   -4.7575  -15.9367 H   0  0  0  0  0  0  0  0  0  0  0  0
    4.2590    8.1722  -18.0212 H   0  0  0  0  0  0  0  0  0  0  0  0
    5.3490    8.6007  -16.6593 H   0  0  0  0  0  0  0  0  0  0  0  0
    5.0120    6.3643  -15.6600 H   0  0  0  0  0  0  0  0  0  0  0  0
    3.4288    7.1703  -15.9253 H   0  0  0  0  0  0  0  0  0  0  0  0
    6.2916   -2.2723  -18.5455 H   0  0  0  0  0  0  0  0  0  0  0  0
    5.5123    4.2686  -17.1254 H   0  0  0  0  0  0  0  0  0  0  0  0
    9.5582   -4.5533  -14.4191 H   0  0  0  0  0  0  0  0  0  0  0  0
   10.5574   -5.7905  -15.2542 H   0  0  0  0  0  0  0  0  0  0  0  0
   11.0955   -4.0771  -15.2168 H   0  0  0  0  0  0  0  0  0  0  0  0
    4.3274    2.6013  -21.3653 H   0  0  0  0  0  0  0  0  0  0  0  0
    3.6815    1.5908  -20.0280 H   0  0  0  0  0  0  0  0  0  0  0  0
    8.0105    7.5533  -18.9236 H   0  0  0  0  0  0  0  0  0  0  0  0
    7.4986    8.7769  -17.7122 H   0  0  0  0  0  0  0  0  0  0  0  0
    3.5351    3.4394  -18.4621 H   0  0  0  0  0  0  0  0  0  0  0  0
    6.1953    3.3502  -19.9680 H   0  0  0  0  0  0  0  0  0  0  0  0
    5.1678    1.4051  -17.9258 H   0  0  0  0  0  0  0  0  0  0  0  0
    3.3506    4.9774  -16.7323 H   0  0  0  0  0  0  0  0  0  0  0  0
    3.3142    5.9864  -18.0157 H   0  0  0  0  0  0  0  0  0  0  0  0
    3.4972    4.1815  -20.6790 H   0  0  0  0  0  0  0  0  0  0  0  0
  1  3  2  0
  1  4  1  0
  2  5  2  0
  2  6  1  0
  3 10  1  0
  4 11  2  0
  5 12  1  0
  6 13  2  0
  7  8  2  0
  7  9  1  0
  8 16  1  0
  9 17  2  0
 10 18  2  0
 11 18  1  0
 12 19  2  0
 13 19  1  0
 14 16  2  0
 14 17  1  0
 15 20  2  0
 15 46  1  0
 16 23  1  0
 17 24  1  0
 18 33  1  0
 19 34  1  0
 20 32  1  0
 20 37  1  0
 21 30  1  0
 21 37  2  0
 21 46  1  0
 22 31  1  0
 22 38  1  0
 22 42  2  0
 23 39  1  0
 23 43  2  0
 24 40  1  0
 24 44  2  0
 25 26  1  0
 25 27  1  0
 26 30  1  0
 27 39  1  0
 28 29  1  0
 28 38  1  0
 29 41  1  0
 30 39  1  0
 31 35  1  0
 31 41  1  0
 33 36  1  0
 34 38  1  0
 35 36  1  0
 35 45  1  0
 36 40  1  0
  1 47  1  0
  2 48  1  0
  3 49  1  0
  4 50  1  0
  5 51  1  0
  6 52  1  0
  7 53  1  0
  8 54  1  0
  9 55  1  0
 10 56  1  0
 11 57  1  0
 12 58  1  0
 13 59  1  0
 14 60  1  0
 15 61  1  0
 25 62  1  0
 25 63  1  0
 26 64  1  0
 26 65  1  0
 27 66  1  0
 27 67  1  0
 28 68  1  0
 28 69  1  0
 29 70  1  0
 29 71  1  0
 30 72  1  6
 31 73  1  1
 32 74  1  0
 32 75  1  0
 32 76  1  0
 33 77  1  0
 33 78  1  0
 34 79  1  0
 34 80  1  0
 35 81  1  1
 36 82  1  6
 40 83  1  0
 41 84  1  0
 41 85  1  0
 45 86  1  0
M  CHG  1  41   1
M  END
>  <OMEGA_C>  (58) 
CzfiQASKqb9TFq7BsSixQGoWKkHida3BsM/wQIBLgbvlg6/BnLi5QHr+x7/zhqnB9be1QE/pE0FG
K6/BkFO9QKApM0FcmaPBijgNQctF0T7Hxm3BmjABQQwJR7/g22vB6JwIQbC8qT+BRn7BCe7WQIDh
iT+UWqzB1SWgQI/7+L5NJabBicDGQF7RBkHlCqfBsyPOQA0YJkFcc5vB8nfYQEZ2Eb7tkoXBhAMg
Qa/MkcA7mI7BZUvhQOR0h780p3rBH97vQHozhz9KfIbBwK2uQJj5VT+NkqfBXyPTQArsD0EaKZ3B
kKEXQRFlj8DNcoTBi5v2QAdhasDjo43BgEbCQOH3u0Az4pPBXlnFQNhYD8CzB3jBmz7kQEtYAUB9
747BSb2EQAv4hsB5Yo/BgEawQDjHicBck5TBbg+QQKNOd8AY5oPBqJ6fQHT3+ED4X4rBt86JQO5Y
10CaXYPBuJjJQLWXSsCfOo/BbpigQKpNnEDoIY/BPY0jQSTHl8AyaHTBLxOTQARe/j/78aPB/xXl
QEcaAkHwSJTBoTmMQIjdfECmipfBXP+qQK1KN0DcwZvBVJsCQZsxgsBVYYTBgzDEQEpj5kAOO5DB
ei2zQEwsOcD83ITBeWu6QBJfAUCr3pLBdqx4QMLQs0D3QIrBKOXdQAmnrkCs/5nB54y8QHPzJ8DP
7mXBIyP/QE5gM0DIYJLB2hV5QNDcl0AWMqDBDrsNQTYgfMAZz5fBcxj2QKbvCcDSfbDBu1OkQDci
NEE3t7PBqOoHQRW6Nj5gCLPBo0auQO7QJMABoKjBXiesQPv0DEFVtbbBor+5QIEmREFDS6LBfPoZ
QRZ1HT9CmWLBopkEQRmHvL+8FV/BDtIRQXEUD0CNs3/BKs/hQDjPBUBXlK3Bh3OBQAkLLL/8dqLB
/ljKQG+r60AwXKjBJDvXQOMMLUET4JPBJ3S/QGhSuL5dRovBMKwvQdkmnsAnjJDBUC1iQL6sW8CG
GpPBHHlnQGG9pcAg04/B7km/QDb2qMBz+JLBHPqtQJXMhMCnRJ3Bn+toQCaGWsBRlH/Bo5yaQJU9
mMC9/H7Bc0mIQETBAkF0K5DBESurQKKcCUE/RoXBr2KgQHeoy0Aqj3rBT3FbQOxy5UDgzX7Bx1TJ
QLpsEcA9XZTBJ2WwQJyYiEDiAInBc+4YQXa0kcBwtGbB8OooQYpLucAnEXTBNIcxQY53gsDmd3PB
xXmKQD18JkAv7KrBeJ1rQJGgyz9eOaDBKysAQVK08UB4Y5fBvvTvQApuDEGYso3B2j9iQOMeXEBP
spPBiD/GQNRpVkB1vp/Bf16lQArasz8iaI/BhXBWQJtGn0C324XBaxtUQJSQv0AvIJDBC9JfQCXP
hUCDbqXBjPv1QI24cL9koq/BYCaSQEp4KkGUTK7BvHf3QAdOvz4KsrPBVmbXQLWQpL9C1afBcCWm
QNxkF0FDqbHB6l+XQO60MUG/sqPBzWIKQQ1y3j3hnWvB8ub4QIe5fb84fmnBYmQHQWhBhT+VSHzB
Ai/aQAGjqz+2/a/BSP65QClupb6iIqTBQJO/QFiaC0E3carBgMawQGDxJUHUeZzB2MfQQMZTY755
VYTB53kjQcXJnsBJRIXBDC7XQG07lb+dNXjB7HDsQD0lYz9/a4XBfv+6QPaFfT9WS6jBmlLFQDz2
EkEh2J/BVS8UQTFFrsBHuHzBaqb9QEH4gsAph4jBMtrAQDD8wkAoYJbBviK6QJJjFMD0hHbBxAfl
QDPR7z9YEI7BdBueQP7+ocCrZ47BLEO+QGdxiMDO8JTBHpWQQEzmgsCKk4XBwqOoQENm/EBszonB
0uOYQGJo2EBUb4LBVl/VQEBHWcAZl4zBJjCnQPa8oEAb54/BE7YYQQqbzcAR2mrB2K6bQO4iAkDY
N6TB8FLgQEFMBkHZ9ZfBFlGQQICafkBrHpfBqgWwQEb+OEBEPZvBsH7/QMn7ncA+dIDBPi3GQLxz
7EApMpLBgqq1QGniTMA52oPBkNS7QLe2AECkOZLBeJaGQEwJtkDAG4nB+q3TQK2AuEC5lZ7BKrKj
QN7uG8DfiGbBn2MBQaFyI0DLcpHBLN12QAnVlECtx5/BG/EXQQ2Id8DfV47B5yYGQV1g179qgbLB
Oql9QDiJM0G22LPBAoUHQWW3Iz8upbnBW33WQNmaEsCsraTByvuhQD/PEUFkxbnBqOiHQLBEQEGV
HKHBgmcXQRi4cz6ccWDBuV39QARg2b/Jn1zBrD0SQX0I8D9y8X3BsJPbQFhxFkBKCbPB5q6iQELQ
Fr80H57BDq3OQILe+UBEA63BGo20QElzK0FPV5TB94C2QFtQsr6w2onBaDo0QSQ6p8ApEIXBwoCC
QGReq8BEVpPBJROtQJ3GvsAZ/YrBI/PUQAzZncDrBJnBFuGtQO23aMAh5ZrBggppQNJ6YMBFHojB
V+2IQORzlMCVYnzBxc2MQKqnBUHKsY3BF3y5QJk2CkEm8oTBwN2zQFzGy0AWfnvBOz+AQKTg5EA7
9XnBhe3dQGZNG8DBLJDBJuC9QByPj0A3uYrBqMYJQUHH1MBMQmLBd00fQeZQ68B7m3HBx1okQYCG
v8AnsF/BV1ySQJYtLEB94arBY0Z+QFVcwz8rDKHBRvv5QHAS/EB9WJzBz33uQMRiEUGgHZLBSTZw
QMweXkD+L5LBML/MQGLTWEBXaJ7B8oKkQHJ/vD82147BQaVyQCYfoEBfUITBGTBgQFGlwkBt2I3B
y5yOQHjGqECG7aLB

>  <OMEGA_E>  (58) 
ABPjPqozMT8=

>  <OMEGA_NBR>  (58) 
     24382

$$$$
50147895
     RDKit          3D

 81 84  0  0  1  0  0  0  0  0999 V2000
    5.3087   10.4889  -22.0408 C   0  0  0  0  0  0  0  0  0  0  0  0
    5.8592   11.1721  -20.9385 C   0  0  0  0  0  0  0  0  0  0  0  0
    5.3439    9.0806  -22.0874 C   0  0  0  0  0  0  0  0  0  0  0  0
    6.4394   10.4486  -19.8797 C   0  0  0  0  0  0  0  0  0  0  0  0
    5.9316    8.3545  -21.0323 C   0  0  0  0  0  0  0  0  0  0  0  0
    6.7730    1.0868  -21.3969 C   0  0  0  0  0  0  0  0  0  0  0  0
    5.0974   -0.3905  -20.4066 C   0  0  0  0  0  0  0  0  0  0  0  0
    7.1369   -1.3244  -21.3641 C   0  0  0  0  0  0  0  0  0  0  0  0
    6.4778    9.0388  -19.9205 C   0  0  0  0  0  0  0  0  0  0  0  0
    5.5285    0.9041  -20.7600 C   0  0  0  0  0  0  0  0  0  0  0  0
    7.5754   -0.0271  -21.7009 C   0  0  0  0  0  0  0  0  0  0  0  0
    5.9009   -1.5043  -20.7097 C   0  0  0  0  0  0  0  0  0  0  0  0
    6.1113    6.0008  -18.5042 C   0  0  0  0  0  0  0  0  0  0  0  0
    7.9484   -0.8401  -15.2947 C   0  0  0  0  0  0  0  0  0  0  0  0
    6.8123    1.7153  -17.6350 C   0  0  0  0  0  0  0  0  0  0  0  0
    5.0257    7.9567  -17.3949 C   0  0  0  0  0  0  0  0  0  0  0  0
    6.7167   -0.7295  -17.2424 C   0  0  0  0  0  0  0  0  0  0  0  0
    4.3825    6.9404  -16.4511 C   0  0  0  0  0  0  0  0  0  0  0  0
    5.0657    5.0375  -17.8575 C   0  0  2  0  0  0  0  0  0  0  0  0
    6.7550    0.6141  -16.5794 C   0  0  1  0  0  0  0  0  0  0  0  0
    9.6235   -4.2215  -16.9903 C   0  0  0  0  0  0  0  0  0  0  0  0
    7.3051    1.6657  -13.5767 C   0  0  0  0  0  0  0  0  0  0  0  0
    9.7267    1.5850  -14.3417 C   0  0  0  0  0  0  0  0  0  0  0  0
    4.6809    2.1007  -20.4122 C   0  0  0  0  0  0  0  0  0  0  0  0
    7.1152    8.2812  -18.7714 C   0  0  0  0  0  0  0  0  0  0  0  0
    8.6732   -3.1021  -17.4145 C   0  0  0  0  0  0  0  0  0  0  0  0
    7.4650   -3.0118  -16.4507 C   0  0  0  0  0  0  0  0  0  0  0  0
    4.4116    4.0786  -18.8737 C   0  0  2  0  0  0  0  0  0  0  0  0
    8.2535    1.6349  -14.7957 C   0  0  0  0  0  0  0  0  0  0  0  0
    5.3547    2.9383  -19.3092 C   0  0  1  0  0  0  0  0  0  0  0  0
    6.1486    7.3569  -18.1428 N   0  0  0  0  0  0  0  0  0  0  0  0
    7.1725   -1.6051  -16.1815 N   0  0  0  0  0  0  0  0  0  0  0  0
    7.9034    0.5095  -15.6915 N   0  0  0  0  0  0  0  0  0  0  0  0
    5.5828    2.0882  -18.1446 N   0  0  0  0  0  0  0  0  0  0  0  0
    3.9453    5.7912  -17.2496 N   0  0  0  0  0  0  0  0  0  0  0  0
    6.9717    5.5485  -19.2519 O   0  0  0  0  0  0  0  0  0  0  0  0
    8.5149   -1.2917  -14.3054 O   0  0  0  0  0  0  0  0  0  0  0  0
    7.8717    2.1914  -18.0350 O   0  0  0  0  0  0  0  0  0  0  0  0
    3.9479    4.8266  -19.9968 O   0  0  0  0  0  0  0  0  0  0  0  0
    8.7702    0.1512  -22.3076 F   0  0  0  0  0  0  0  0  0  0  0  0
    5.4927   -2.7436  -20.3562 F   0  0  0  0  0  0  0  0  0  0  0  0
    4.8594   11.0446  -22.8506 H   0  0  0  0  0  0  0  0  0  0  0  0
    5.8360   12.2513  -20.9058 H   0  0  0  0  0  0  0  0  0  0  0  0
    4.9202    8.5578  -22.9321 H   0  0  0  0  0  0  0  0  0  0  0  0
    6.8566   10.9742  -19.0335 H   0  0  0  0  0  0  0  0  0  0  0  0
    5.9653    7.2757  -21.0722 H   0  0  0  0  0  0  0  0  0  0  0  0
    7.1097    2.0811  -21.6510 H   0  0  0  0  0  0  0  0  0  0  0  0
    4.1514   -0.5270  -19.9037 H   0  0  0  0  0  0  0  0  0  0  0  0
    7.7482   -2.1808  -21.6076 H   0  0  0  0  0  0  0  0  0  0  0  0
    4.2684    8.3121  -18.1091 H   0  0  0  0  0  0  0  0  0  0  0  0
    5.4008    8.8062  -16.8052 H   0  0  0  0  0  0  0  0  0  0  0  0
    5.6965   -0.9878  -17.5625 H   0  0  0  0  0  0  0  0  0  0  0  0
    7.3933   -0.7665  -18.1089 H   0  0  0  0  0  0  0  0  0  0  0  0
    5.1154    6.6144  -15.6985 H   0  0  0  0  0  0  0  0  0  0  0  0
    3.5170    7.3953  -15.9471 H   0  0  0  0  0  0  0  0  0  0  0  0
    5.5715    4.4414  -17.0837 H   0  0  0  0  0  0  0  0  0  0  0  0
    5.8395    0.7456  -15.9839 H   0  0  0  0  0  0  0  0  0  0  0  0
   10.4725   -4.2666  -17.6882 H   0  0  0  0  0  0  0  0  0  0  0  0
    9.9945   -4.0219  -15.9742 H   0  0  0  0  0  0  0  0  0  0  0  0
    9.0873   -5.1819  -17.0028 H   0  0  0  0  0  0  0  0  0  0  0  0
    6.2619    1.7011  -13.9240 H   0  0  0  0  0  0  0  0  0  0  0  0
    7.4589    0.7614  -12.9697 H   0  0  0  0  0  0  0  0  0  0  0  0
    7.5192    2.5567  -12.9682 H   0  0  0  0  0  0  0  0  0  0  0  0
   10.3824    1.5637  -15.2247 H   0  0  0  0  0  0  0  0  0  0  0  0
    9.9544    2.4755  -13.7375 H   0  0  0  0  0  0  0  0  0  0  0  0
    9.8940    0.6802  -13.7389 H   0  0  0  0  0  0  0  0  0  0  0  0
    4.5486    2.7234  -21.3093 H   0  0  0  0  0  0  0  0  0  0  0  0
    3.6985    1.7570  -20.0563 H   0  0  0  0  0  0  0  0  0  0  0  0
    7.9698    7.7029  -19.1524 H   0  0  0  0  0  0  0  0  0  0  0  0
    7.4665    9.0010  -18.0174 H   0  0  0  0  0  0  0  0  0  0  0  0
    9.2156   -2.1451  -17.4035 H   0  0  0  0  0  0  0  0  0  0  0  0
    8.3083   -3.3051  -18.4322 H   0  0  0  0  0  0  0  0  0  0  0  0
    6.5882   -3.4884  -16.9134 H   0  0  0  0  0  0  0  0  0  0  0  0
    7.7065   -3.5248  -15.5082 H   0  0  0  0  0  0  0  0  0  0  0  0
    3.5467    3.6154  -18.3761 H   0  0  0  0  0  0  0  0  0  0  0  0
    8.1097    2.5741  -15.3498 H   0  0  0  0  0  0  0  0  0  0  0  0
    6.3003    3.3579  -19.6830 H   0  0  0  0  0  0  0  0  0  0  0  0
    4.7728    1.7430  -17.6706 H   0  0  0  0  0  0  0  0  0  0  0  0
    3.4304    5.1712  -16.6576 H   0  0  0  0  0  0  0  0  0  0  0  0
    3.3511    6.1222  -17.9828 H   0  0  0  0  0  0  0  0  0  0  0  0
    3.5444    4.2388  -20.6246 H   0  0  0  0  0  0  0  0  0  0  0  0
  1  2  2  0
  1  3  1  0
  2  4  1  0
  3  5  2  0
  4  9  2  0
  5  9  1  0
  6 10  2  0
  6 11  1  0
  7 10  1  0
  7 12  2  0
  8 11  2  0
  8 12  1  0
  9 25  1  0
 10 24  1  0
 11 40  1  0
 12 41  1  0
 13 19  1  0
 13 31  1  0
 13 36  2  0
 14 32  1  0
 14 33  1  0
 14 37  2  0
 15 20  1  0
 15 34  1  0
 15 38  2  0
 16 18  1  0
 16 31  1  0
 17 20  1  0
 17 32  1  0
 18 35  1  0
 19 28  1  0
 19 35  1  0
 20 33  1  0
 21 26  1  0
 22 29  1  0
 23 29  1  0
 24 30  1  0
 25 31  1  0
 26 27  1  0
 27 32  1  0
 28 30  1  0
 28 39  1  0
 29 33  1  0
 30 34  1  0
  1 42  1  0
  2 43  1  0
  3 44  1  0
  4 45  1  0
  5 46  1  0
  6 47  1  0
  7 48  1  0
  8 49  1  0
 16 50  1  0
 16 51  1  0
 17 52  1  0
 17 53  1  0
 18 54  1  0
 18 55  1  0
 19 56  1  1
 20 57  1  1
 21 58  1  0
 21 59  1  0
 21 60  1  0
 22 61  1  0
 22 62  1  0
 22 63  1  0
 23 64  1  0
 23 65  1  0
 23 66  1  0
 24 67  1  0
 24 68  1  0
 25 69  1  0
 25 70  1  0
 26 71  1  0
 26 72  1  0
 27 73  1  0
 27 74  1  0
 28 75  1  1
 29 76  1  0
 30 77  1  6
 34 78  1  0
 35 79  1  0
 35 80  1  0
 39 81  1  0
M  CHG  1  35   1
M  END
>  <OMEGA_C>  (59) 
4uCpQHLSJ0F+U7DBmX67QLjAMkH1gafBUwGrQDBKEUHusrDB6w/OQHItJ0GvCZ/BCNC9QOarBUEm
QqjB07zYQFUdiz/uLKvBmR2jQH30x76lQKPBJGHkQOuEqb+36arBEUrPQPWeEEE8XZ/BNOmwQCJ1
Zz+TFKbBemnyQKA23rxhm63BRNS8QO6LwL+DraXBJZDDQEwGwECYCJTBkln+QDIQV79Jt3TBWf7Z
QHmP2z+QFI3B6tKgQB+d/kC7KIvBc+/WQL7DOr9t8InBQj2MQMIX3kDim4PB2RmiQGAzoUAn3I7B
6CjYQPc3HT+KooTBvPkZQYUWh8Ag7IfBCcPpQDo31T9VOlnBaqAbQefgyj/Jd2XBTMqVQClyBkA6
TKPB9a/jQN5/BEHSK5bBcMUKQXmIRsDnUIvBYuHuQOTAQMAim4PBhiuNQNKDgkBL/ZbBNQ4EQbVD
0T8Eu2zBdVmrQKYNPEBHeZrBt8HEQIxr60CLJJHBYIXlQMFyzb/Kc4HB4+j8QFZwAj+WEHvBnKay
QMOlBUAsKJHBEH98QJpRuUBC/4nBwhffQC2NsUDYA5rB4TwIQQtWpb8C42TBv+T7QCFADECVR5DB
cap8QMFzmkBl+Z/BjlIMQVDUGj4PdrLB/cOvQM+WL8Bw2aLBlYCbQJm2MEHzzbbBMsC6QFsFREEk
P6fBq3KdQKzsCEHsdLfBUGnbQGuWL0GfRJjBe+O+QMTS6EDVk6jBSoLjQJ0wBUA9Na3BLdiEQKrr
Br+4Op/B4fD3QK+RC8Bv3KzB4ZaIQEH+BEGC35DBwtOsQATmDEEgcYbB9Em2QGbjfL8DgIzBKJbs
QGM8RL8L35DBu7GjQMqo00D+LHvBWxZhQOWl7EBIJ3/BzUmyQFogjkBaq4jBV926QAHdPj/dvX/B
Uo8nQQmIiMCFgY3BeukfQaCzgMA1ln/BcmURQfTRpcDDBYjBcmHIQIa92T+LyF7B7q7uQKHsQj++
g0/BPp3wQP6gI0CqfU/BVh4mQZ0myD86mHPBHUUfQWpuHkCmzFvB9k0eQVAiLj+60lvBK46RQGhL
LkCEearBmrRsQJfl4D82c6DB8Aj/QCl+9kAuOJnB2O3uQCsEEEGwI5DB8HITQQlKCcBuOovB6e4E
QbCGU8AXdZPBtdLSQJBBX8C7TofBdpv2QHuWYcBkIXjBaP1iQHdjZ0BZApPBacEBQa++JED7mHXB
J5zJQM/nVkDTdp3BCruYQMEa3z9eXY3BN4tbQMN6pUC8QoXBznhWQPzow0Cu3I/BKdhiQEukh0A2
/6TBEA2oQAm1J0EHJbDBSJ2tQLpqEUFWLLHB79q1QLhGMkEUzqbBeibBQBWwBUGH36jBjUXJQEmW
JkFdf57Bf0baQGLdiD9m8arBLQGlQLqp2L58DKPB7dfmQMAfq7/7jarBMTDPQHVNEEHxhJ/Bh16y
QPraXz+H6aXB3HP0QJCXFL35R63B5DG/QBqkw7/1Y6XB9hDEQMwHv0AmHJTBxXQDQfn3QL/itnTB
I/3aQDZi2T9E14zBOuKgQJwC/kBWh4vBWDLcQB3VQb85aYnB57SMQBTw3UBXzIPBt7yiQCxYoED6
0I7B6G/aQC0XGj98UITBqVMWQUP7csBOy4jBIKfxQO6qvz/Hn1XBXHYbQXpJAEAxYGnBtNCWQIT9
A0CQK6PB0f7jQKgBBEEBeJbBjrb7QH8/b8B4sonB7IXnQFcDQcB0BIDBacqNQPZNgUDO25bBtWkD
QXBy3T85rWvB6AesQJmLOUDpS5rB3PXEQBWg6kBqapHB+E/sQMBGx7/mqoDB9x7/QDx2Fz8OOnrB
VHGzQKe2AkCo/ZDBvLF9QECQuEDt/InBlNDfQFpIsEC2+5nB5NEOQQjUk78yEmbBrHX8QKWhDUBv
74/BhMd9QJYAmUCK4Z/BJFkNQUDSHD7AGrLBHHCyQDRYMcBlkaLBVjGZQPqwMEGshbbBZ+eiQLJT
CUGoUrjBt4ixQFdZQ0GoBabB+2TFQHc46UAAqKnB1arTQISxLkHPUpfBOLfkQMU9BEA1/6zBZ7KG
QMl/Eb/9D5/B5s36QKT4C8BZbKzBRoCIQDdRBEEFS5HBT6SsQDTcDEGP94bBski8QBz2i79z+IvB
eyHyQEWpRb/qSpDBuV2kQBEl1EAZhXvBEPthQMWZ7EBKmX/BPQ6zQIyPjUB+l4jBr7a8QG17MD8h
Tn/BpfAcQZshisD0zo/Bq8gcQemMMcC5cYjBy8waQfnlisDZeoHBGEfPQJPlpj9QzlfB21QAQdSx
IT+Bx03B5vb1QAcKGUBPmEvBhYMiQSCWCkBmS3nB9OEdQWi9OUAYf1/BXDsjQas/kj9KrmHBOJ6S
QMjtK0A0V6rBcMZuQATt2j+JYaDBHv7+QGBZ9UA2ppnBG8vvQGxgD0ERb5DBFxPzQICoTMAYDZHB
VhvvQMVzmMA4ForBvTjFQAahUMAObX/BuTH3QOa9V8DSVXHBJFZkQMsjZUD11ZLB5hP4QFcdKEDL
tnLBy1HKQPOLVEB3P53B4aGZQH4X1j8rTY3BomBdQOrypEBWIIXBxh5XQNOOwkDA3I/BieVjQOMN
hkDH3aTB

>  <OMEGA_E>  (59) 
QPQIPwgICD8=

>  <OMEGA_NBR>  (59) 
     27247

$$$$
50147905
     RDKit          3D

 78 80  0  0  1  0  0  0  0  0999 V2000
    6.7327   -0.1977  -16.6575 C   0  0  0  0  0  0  0  0  0  0  0  0
    8.3822    1.3504  -15.7401 C   0  0  0  0  0  0  0  0  0  0  0  0
    8.0434   -0.8272  -14.6987 C   0  0  0  0  0  0  0  0  0  0  0  0
    6.7365    1.0113  -21.3244 C   0  0  0  0  0  0  0  0  0  0  0  0
    4.9139   -0.4632  -20.6350 C   0  0  0  0  0  0  0  0  0  0  0  0
    6.9909   -1.4064  -21.4986 C   0  0  0  0  0  0  0  0  0  0  0  0
    7.3970    1.0481  -16.7038 C   0  0  0  0  0  0  0  0  0  0  0  0
    7.0894   -1.1556  -15.6834 C   0  0  0  0  0  0  0  0  0  0  0  0
    8.6800    0.4290  -14.7182 C   0  0  0  0  0  0  0  0  0  0  0  0
    5.4360    0.8341  -20.8010 C   0  0  0  0  0  0  0  0  0  0  0  0
    7.5164   -0.1093  -21.6614 C   0  0  0  0  0  0  0  0  0  0  0  0
    5.6856   -1.5802  -20.9964 C   0  0  0  0  0  0  0  0  0  0  0  0
    6.1101    5.9652  -18.5796 C   0  0  0  0  0  0  0  0  0  0  0  0
    7.0708    2.0194  -17.7587 C   0  0  0  0  0  0  0  0  0  0  0  0
    6.4831   -2.5023  -15.6904 C   0  0  0  0  0  0  0  0  0  0  0  0
    4.9495    7.9236  -17.5531 C   0  0  0  0  0  0  0  0  0  0  0  0
    4.4196    6.9233  -16.5232 C   0  0  0  0  0  0  0  0  0  0  0  0
    5.1035    4.9840  -17.8827 C   0  0  2  0  0  0  0  0  0  0  0  0
    9.7536    0.7497  -13.7037 C   0  0  0  0  0  0  0  0  0  0  0  0
    9.3107   -4.2340  -16.8862 C   0  0  0  0  0  0  0  0  0  0  0  0
    3.7394   -3.4859  -17.8140 C   0  0  0  0  0  0  0  0  0  0  0  0
    6.8556    8.2724  -19.1684 C   0  0  0  0  0  0  0  0  0  0  0  0
    4.5991    2.0284  -20.4094 C   0  0  0  0  0  0  0  0  0  0  0  0
    8.5010   -4.0641  -18.1834 C   0  0  0  0  0  0  0  0  0  0  0  0
    4.2597   -4.4668  -16.7506 C   0  0  0  0  0  0  0  0  0  0  0  0
    7.3587   -3.0415  -18.0167 C   0  0  0  0  0  0  0  0  0  0  0  0
    5.7886   -4.6349  -16.8259 C   0  0  0  0  0  0  0  0  0  0  0  0
    4.4090    4.0110  -18.8631 C   0  0  2  0  0  0  0  0  0  0  0  0
    5.3424    2.9007  -19.3815 C   0  0  1  0  0  0  0  0  0  0  0  0
    6.0563    7.3482  -18.3390 N   0  0  0  0  0  0  0  0  0  0  0  0
    5.7758    2.0523  -18.2603 N   0  0  0  0  0  0  0  0  0  0  0  0
    6.5052   -3.3347  -16.8330 N   0  0  0  0  0  0  0  0  0  0  0  0
    3.9904    5.7190  -17.2380 N   0  0  0  0  0  0  0  0  0  0  0  0
    6.9965    5.5174  -19.2988 O   0  0  0  0  0  0  0  0  0  0  0  0
    7.9347    2.7833  -18.1770 O   0  0  0  0  0  0  0  0  0  0  0  0
    5.9857   -2.9064  -14.6445 O   0  0  0  0  0  0  0  0  0  0  0  0
    3.8679    4.7598  -19.9523 O   0  0  0  0  0  0  0  0  0  0  0  0
    8.7656    0.0612  -22.1498 F   0  0  0  0  0  0  0  0  0  0  0  0
    5.1691   -2.8212  -20.8675 F   0  0  0  0  0  0  0  0  0  0  0  0
    5.9502   -0.4180  -17.3686 H   0  0  0  0  0  0  0  0  0  0  0  0
    8.9097    2.2917  -15.7866 H   0  0  0  0  0  0  0  0  0  0  0  0
    8.2871   -1.5418  -13.9263 H   0  0  0  0  0  0  0  0  0  0  0  0
    7.1312    2.0066  -21.4656 H   0  0  0  0  0  0  0  0  0  0  0  0
    3.9218   -0.5993  -20.2306 H   0  0  0  0  0  0  0  0  0  0  0  0
    7.5884   -2.2676  -21.7587 H   0  0  0  0  0  0  0  0  0  0  0  0
    4.1328    8.2021  -18.2352 H   0  0  0  0  0  0  0  0  0  0  0  0
    5.3110    8.8203  -17.0285 H   0  0  0  0  0  0  0  0  0  0  0  0
    5.2150    6.6684  -15.8074 H   0  0  0  0  0  0  0  0  0  0  0  0
    3.5667    7.3604  -15.9834 H   0  0  0  0  0  0  0  0  0  0  0  0
    5.6494    4.3993  -17.1276 H   0  0  0  0  0  0  0  0  0  0  0  0
    9.2986    1.2391  -12.8299 H   0  0  0  0  0  0  0  0  0  0  0  0
   10.2479   -0.1805  -13.3868 H   0  0  0  0  0  0  0  0  0  0  0  0
   10.4958    1.4237  -14.1562 H   0  0  0  0  0  0  0  0  0  0  0  0
   10.1127   -4.9693  -17.0476 H   0  0  0  0  0  0  0  0  0  0  0  0
    9.7515   -3.2677  -16.6000 H   0  0  0  0  0  0  0  0  0  0  0  0
    8.6466   -4.5863  -16.0831 H   0  0  0  0  0  0  0  0  0  0  0  0
    2.6467   -3.3947  -17.7261 H   0  0  0  0  0  0  0  0  0  0  0  0
    4.2029   -2.5001  -17.6615 H   0  0  0  0  0  0  0  0  0  0  0  0
    3.9965   -3.8610  -18.8156 H   0  0  0  0  0  0  0  0  0  0  0  0
    6.6852    9.3065  -18.8342 H   0  0  0  0  0  0  0  0  0  0  0  0
    7.9228    8.0257  -19.0674 H   0  0  0  0  0  0  0  0  0  0  0  0
    6.5545    8.1733  -20.2217 H   0  0  0  0  0  0  0  0  0  0  0  0
    4.3857    2.6293  -21.3057 H   0  0  0  0  0  0  0  0  0  0  0  0
    3.6538    1.6782  -19.9692 H   0  0  0  0  0  0  0  0  0  0  0  0
    9.1750   -3.7179  -18.9808 H   0  0  0  0  0  0  0  0  0  0  0  0
    8.0701   -5.0365  -18.4639 H   0  0  0  0  0  0  0  0  0  0  0  0
    3.9921   -4.0860  -15.7539 H   0  0  0  0  0  0  0  0  0  0  0  0
    3.7856   -5.4468  -16.9081 H   0  0  0  0  0  0  0  0  0  0  0  0
    7.7960   -2.0392  -17.8978 H   0  0  0  0  0  0  0  0  0  0  0  0
    6.7306   -3.0628  -18.9195 H   0  0  0  0  0  0  0  0  0  0  0  0
    6.1226   -5.2167  -15.9541 H   0  0  0  0  0  0  0  0  0  0  0  0
    6.0383   -5.1801  -17.7481 H   0  0  0  0  0  0  0  0  0  0  0  0
    3.5858    3.5251  -18.3190 H   0  0  0  0  0  0  0  0  0  0  0  0
    6.2163    3.3616  -19.8651 H   0  0  0  0  0  0  0  0  0  0  0  0
    5.0934    1.4607  -17.8311 H   0  0  0  0  0  0  0  0  0  0  0  0
    3.5430    5.1069  -16.5861 H   0  0  0  0  0  0  0  0  0  0  0  0
    3.3369    5.9874  -17.9458 H   0  0  0  0  0  0  0  0  0  0  0  0
    3.4387    4.1696  -20.5606 H   0  0  0  0  0  0  0  0  0  0  0  0
  1  7  2  0
  1  8  1  0
  2  7  1  0
  2  9  2  0
  3  8  2  0
  3  9  1  0
  4 10  2  0
  4 11  1  0
  5 10  1  0
  5 12  2  0
  6 11  2  0
  6 12  1  0
  7 14  1  0
  8 15  1  0
  9 19  1  0
 10 23  1  0
 11 38  1  0
 12 39  1  0
 13 18  1  0
 13 30  1  0
 13 34  2  0
 14 31  1  0
 14 35  2  0
 15 32  1  0
 15 36  2  0
 16 17  1  0
 16 30  1  0
 17 33  1  0
 18 28  1  0
 18 33  1  0
 20 24  1  0
 21 25  1  0
 22 30  1  0
 23 29  1  0
 24 26  1  0
 25 27  1  0
 26 32  1  0
 27 32  1  0
 28 29  1  0
 28 37  1  0
 29 31  1  0
  1 40  1  0
  2 41  1  0
  3 42  1  0
  4 43  1  0
  5 44  1  0
  6 45  1  0
 16 46  1  0
 16 47  1  0
 17 48  1  0
 17 49  1  0
 18 50  1  1
 19 51  1  0
 19 52  1  0
 19 53  1  0
 20 54  1  0
 20 55  1  0
 20 56  1  0
 21 57  1  0
 21 58  1  0
 21 59  1  0
 22 60  1  0
 22 61  1  0
 22 62  1  0
 23 63  1  0
 23 64  1  0
 24 65  1  0
 24 66  1  0
 25 67  1  0
 25 68  1  0
 26 69  1  0
 26 70  1  0
 27 71  1  0
 27 72  1  0
 28 73  1  1
 29 74  1  6
 31 75  1  0
 33 76  1  0
 33 77  1  0
 37 78  1  0
M  CHG  1  33   1
M  END
>  <OMEGA_C>  (60) 
/HHXQE5+Sr6AQoXBjR0GQabYrD+D13vB7LEAQTLGU7+yLWvBYZHXQKlxgT9mmKrBwz6dQBcv7b6H
FKXBRbXfQF4EtL8Y/avBE7TsQG4nhj92oYXButziQIrqk79U73rBK+EKQcym2z62fWvBmvOtQAKK
VT9maKbBvobwQKzk372LSq3BffC1QOZEyr+c+KfBB4bDQArjvkAQo5TBOETiQGw9AUDXEY7B1HXP
QDUlIMDWC3vBtGKeQCCO/UDBbIzBvW2NQGWL3UCNL4TBNVCjQKF8n0DaD4/Bkg4cQQDqPz9yQlvB
h/gUQet8h8D3FofBp1FvQEMZX8Afg47BMmHbQLtbBEHUWJnBkiuTQAvSAUBlRqPBOwQIQckMgsCC
d5HBE0+IQKnvjsBHAYbBvXrrQJOoQsA8IpDBXDy5QCpRlMBom4bB7xaNQDhagEC055bBDPWqQNSk
OUBdDZvB+8zBQJIk60A7tpLBd9O4QGNZA0ABFZLBbirQQH9sVcD8qYbBXmN/QBACt0CG54nBaOPf
QMuOsEDnY5rBFOn9QHIhMkCXapHB5Yq/QPkCOsCvT2rBlot3QBJQmEBBnp/Buz8MQYSNej3MMrHB
HGmlQNWNNMCl8KbBOWi+QMQE1r7Y8orB8Y0OQZyqEkDUlXzB3JcEQaFYxb850l7BBzPkQBtsAECF
uavBrP56QEBtGb8y2KHBUtTyQFwgEcDHEa7BgD+EQOo7A0Gz4ZHB+POpQAsgDUFaOojBZeGmQNRj
1UDz6nzB+kRkQDSI60Dju3/Buse0QOLGjEBfBYnBP8cUQbKZnj9UR03BlPcjQd/MOL5fMFbB9+4n
Qcs6tj/Gf2LBlM0hQcUEn8CQYYjBPgYcQcMhUcDlzITBiVgKQavCksBDqoDBL2MpQJhCWcAVz43B
ZX6GQKwBIMCySo3B68V/QN8Zd8ByhpbBSO3VQDrnFEFjrJbByof9QEdpAEH3iZjBMb7RQMfFAkEI
xqHB5VeMQMlGKEAccqrBgtdpQGvO1j/0wJ/B4cwSQSvybcCt2JfBLB8BQd8qocALtpPBmH5/QCbA
gsAUEHzBuUdyQD9MrsDJQ4fBn3j5QFWCAsCmLo/BbmHXQDoFRMAsW5fBW+zDQE3vpsAZRH/B/TnB
QEfDpcAK/I3Bd31lQHKbYUA4jZLB1+vGQMMkV0DN657B7vyiQMT2uj8Jpo7BaMBiQIdro0A+sITB
VpBVQPmYv0D0kI/BmxNcQJ9thUAKfKTBNc3XQBCeRr4geIXB+BwGQQFyrT8R8nvBPl4AQXC3UL/u
M2vBGM7ZQI3PhD+txqrBT1+fQDLd4L68X6XBt0DiQPvQsL/4BqzBZxvtQO6Mhj+PyoXBX33iQGP/
kb/4EHvBdaMKQcVB3z64e2vBlfevQFnnWz+VvKbBwAPzQHXdqb38Vq3BXlm4QGlBx78mF6jB3BPD
QKo4v0BGZZTBZuviQM+OAUAyPI7B0YTOQAZIHsDp3XrBbXScQBn9/EChLYzBQKaLQO1f3ECREYTB
tumiQBAgn0CiDY/BAo4bQZ8qQT8d+1rBDK1vQEkSXcCO1ozB3ugVQTPJi8BqIojB/dvZQF7SBEGh
5ZjBJPSUQMFTA0DysKPByFqWQFSslMDQdo7B84MHQW9hhMDR9JHB81K6QPr3lMBTEIbBtlPtQPN2
Q8Bjp4/ByXmNQFg7gEC9F5fB3firQMuaOkDVRZvBiWnAQPxl60DyapLBQJy5QOStA0AKVpLBBprS
QHnkV8BgFYbBxXV9QKLltUCh7YnBPjfgQCWCsUDH/5nBo57+QFi1MkBkfZHBmgC8QFvZM8B5bWrB
WaJ4QACBmEDXxJ/B254NQXzNtT3IFLHBSAWoQOYdM8Bh46bBzFa/QOPN175uS4vBkZMOQRXtEkB1
nHzBORgEQUKzw796x17BF2vmQPEhAkD25KvBWOt+QFdWE7/5PaLBPYT1QHZ+D8C4Ca7BwGmCQBjd
AkFdrpHBhGWnQADXDEFE4IfB1PykQFJZ1EAgmXzBRfNfQGHD6UCtkH/Bc0K0QAg8jECeBonByxIU
QaO4nz95JE3BHFEjQcgYNb6AvlXBmpgnQXpVtj/8CmLBcjU9QJq5XsBY+JLBwGlSQIETYcCb2YTB
i+eJQNbnIMCxh43B0c0hQVaopMAS+4nB2CweQQClW8DiEobBoggMQX4plsD3U4HB5ZbTQDxGFUFw
MZbB8xj8QFgxAUE19ZfB8NnQQDFCA0E0XqHBkdmOQNQ8KkBJ3arBlrZsQAaY2T/+X6DBL/6DQH+W
ssCFzY3B2rCkQKqAksCce5bBynwRQeBEdMBwvZjBJ7H+QG55osCG/pPBqi2sQEHVmcAhMnzBK3bQ
QIphr8D42ofB7ND9QFJGBsB/Qo7BND3YQCWEPcAYqZbBfjBmQOs2YEDw4pLBmP3HQFsyWUAv+57B
67ejQMjIuj+I/47BBPZgQHzfoUAJzoTBQt9TQMZtvkBln4/BiCVeQIHAhUA8wKTB

>  <OMEGA_E>  (60) 
gJx0PrAYXj4=

>  <OMEGA_NBR>  (60) 
     30021

$$$$
50147880
     RDKit          3D

 84 86  0  0  1  0  0  0  0  0999 V2000
    6.7519   -0.1871  -16.6996 C   0  0  0  0  0  0  0  0  0  0  0  0
    8.3954    1.3471  -15.7468 C   0  0  0  0  0  0  0  0  0  0  0  0
    8.0324   -0.8333  -14.7246 C   0  0  0  0  0  0  0  0  0  0  0  0
    6.8630    1.0332  -21.3768 C   0  0  0  0  0  0  0  0  0  0  0  0
    5.0144   -0.4134  -20.6968 C   0  0  0  0  0  0  0  0  0  0  0  0
    7.0920   -1.3907  -21.5172 C   0  0  0  0  0  0  0  0  0  0  0  0
    7.4183    1.0594  -16.7248 C   0  0  0  0  0  0  0  0  0  0  0  0
    7.0810   -1.1436  -15.7147 C   0  0  0  0  0  0  0  0  0  0  0  0
    8.7038    0.4018  -14.7506 C   0  0  0  0  0  0  0  0  0  0  0  0
    5.5502    0.8758  -20.8803 C   0  0  0  0  0  0  0  0  0  0  0  0
    7.6341   -0.1009  -21.6911 C   0  0  0  0  0  0  0  0  0  0  0  0
    5.7799   -1.5441  -21.0245 C   0  0  0  0  0  0  0  0  0  0  0  0
    6.0167    6.0038  -18.6893 C   0  0  0  0  0  0  0  0  0  0  0  0
    7.0982    2.0529  -17.7630 C   0  0  0  0  0  0  0  0  0  0  0  0
    6.4380   -2.4672  -15.7004 C   0  0  0  0  0  0  0  0  0  0  0  0
    4.5924    7.8714  -17.8490 C   0  0  0  0  0  0  0  0  0  0  0  0
    4.4003    6.9333  -16.6500 C   0  0  0  0  0  0  0  0  0  0  0  0
    5.1546    4.9578  -17.9208 C   0  0  2  0  0  0  0  0  0  0  0  0
    9.7088    0.7373  -13.6733 C   0  0  0  0  0  0  0  0  0  0  0  0
    7.9864    8.9066  -18.7378 C   0  0  0  0  0  0  0  0  0  0  0  0
    3.7148   -3.3727  -17.6074 C   0  0  0  0  0  0  0  0  0  0  0  0
    9.3212   -4.3783  -16.9887 C   0  0  0  0  0  0  0  0  0  0  0  0
    4.7180    2.0824  -20.5208 C   0  0  0  0  0  0  0  0  0  0  0  0
    6.7713    9.3564  -19.5684 C   0  0  0  0  0  0  0  0  0  0  0  0
    4.6253   -4.5981  -17.8123 C   0  0  0  0  0  0  0  0  0  0  0  0
    8.4452   -4.1557  -18.2351 C   0  0  0  0  0  0  0  0  0  0  0  0
    5.9249    8.1481  -20.0040 C   0  0  0  0  0  0  0  0  0  0  0  0
    5.7630   -4.6364  -16.7779 C   0  0  0  0  0  0  0  0  0  0  0  0
    7.3862   -3.0702  -17.9787 C   0  0  0  0  0  0  0  0  0  0  0  0
    4.4508    3.9840  -18.8885 C   0  0  2  0  0  0  0  0  0  0  0  0
    5.4173    2.9238  -19.4389 C   0  0  1  0  0  0  0  0  0  0  0  0
    5.5329    7.3098  -18.8455 N   0  0  0  0  0  0  0  0  0  0  0  0
    5.8346    2.0414  -18.3375 N   0  0  0  0  0  0  0  0  0  0  0  0
    6.5439   -3.3684  -16.7831 N   0  0  0  0  0  0  0  0  0  0  0  0
    4.0567    5.6032  -17.1609 N   0  0  0  0  0  0  0  0  0  0  0  0
    7.0443    5.6462  -19.2556 O   0  0  0  0  0  0  0  0  0  0  0  0
    7.9359    2.8848  -18.0960 O   0  0  0  0  0  0  0  0  0  0  0  0
    5.8607   -2.7965  -14.6697 O   0  0  0  0  0  0  0  0  0  0  0  0
    3.8500    4.7262  -19.9534 O   0  0  0  0  0  0  0  0  0  0  0  0
    8.8903    0.0493  -22.1685 F   0  0  0  0  0  0  0  0  0  0  0  0
    5.2502   -2.7771  -20.8680 F   0  0  0  0  0  0  0  0  0  0  0  0
    5.9910   -0.4076  -17.4336 H   0  0  0  0  0  0  0  0  0  0  0  0
    8.9087    2.2972  -15.7632 H   0  0  0  0  0  0  0  0  0  0  0  0
    8.2474   -1.5464  -13.9424 H   0  0  0  0  0  0  0  0  0  0  0  0
    7.2742    2.0223  -21.5151 H   0  0  0  0  0  0  0  0  0  0  0  0
    4.0153   -0.5325  -20.3042 H   0  0  0  0  0  0  0  0  0  0  0  0
    7.6820   -2.2616  -21.7615 H   0  0  0  0  0  0  0  0  0  0  0  0
    3.6178    8.0345  -18.3325 H   0  0  0  0  0  0  0  0  0  0  0  0
    4.9882    8.8324  -17.4886 H   0  0  0  0  0  0  0  0  0  0  0  0
    5.3311    6.8792  -16.0665 H   0  0  0  0  0  0  0  0  0  0  0  0
    3.5877    7.3079  -16.0103 H   0  0  0  0  0  0  0  0  0  0  0  0
    5.8028    4.3880  -17.2388 H   0  0  0  0  0  0  0  0  0  0  0  0
    9.1945    1.2186  -12.8284 H   0  0  0  0  0  0  0  0  0  0  0  0
   10.1973   -0.1856  -13.3275 H   0  0  0  0  0  0  0  0  0  0  0  0
   10.4666    1.4231  -14.0798 H   0  0  0  0  0  0  0  0  0  0  0  0
    8.5737    9.7876  -18.4396 H   0  0  0  0  0  0  0  0  0  0  0  0
    7.6397    8.3758  -17.8389 H   0  0  0  0  0  0  0  0  0  0  0  0
    8.6144    8.2346  -19.3412 H   0  0  0  0  0  0  0  0  0  0  0  0
    2.9153   -3.3789  -18.3629 H   0  0  0  0  0  0  0  0  0  0  0  0
    3.2695   -3.4109  -16.6023 H   0  0  0  0  0  0  0  0  0  0  0  0
    4.3093   -2.4530  -17.7104 H   0  0  0  0  0  0  0  0  0  0  0  0
   10.0682   -5.1578  -17.1994 H   0  0  0  0  0  0  0  0  0  0  0  0
    9.8336   -3.4403  -16.7286 H   0  0  0  0  0  0  0  0  0  0  0  0
    8.6877   -4.6956  -16.1473 H   0  0  0  0  0  0  0  0  0  0  0  0
    4.5708    2.6999  -21.4192 H   0  0  0  0  0  0  0  0  0  0  0  0
    3.7412    1.7472  -20.1421 H   0  0  0  0  0  0  0  0  0  0  0  0
    6.1499   10.0309  -18.9611 H   0  0  0  0  0  0  0  0  0  0  0  0
    7.1246    9.8897  -20.4633 H   0  0  0  0  0  0  0  0  0  0  0  0
    4.0215   -5.5122  -17.7131 H   0  0  0  0  0  0  0  0  0  0  0  0
    5.0613   -4.5543  -18.8212 H   0  0  0  0  0  0  0  0  0  0  0  0
    9.0852   -3.8428  -19.0733 H   0  0  0  0  0  0  0  0  0  0  0  0
    7.9392   -5.0981  -18.4920 H   0  0  0  0  0  0  0  0  0  0  0  0
    5.0159    8.5113  -20.5057 H   0  0  0  0  0  0  0  0  0  0  0  0
    6.5110    7.5360  -20.7054 H   0  0  0  0  0  0  0  0  0  0  0  0
    5.3321   -4.7874  -15.7771 H   0  0  0  0  0  0  0  0  0  0  0  0
    6.4365   -5.4726  -17.0171 H   0  0  0  0  0  0  0  0  0  0  0  0
    7.8968   -2.1089  -17.8203 H   0  0  0  0  0  0  0  0  0  0  0  0
    6.7337   -2.9977  -18.8614 H   0  0  0  0  0  0  0  0  0  0  0  0
    3.6644    3.4613  -18.3242 H   0  0  0  0  0  0  0  0  0  0  0  0
    6.2936    3.4235  -19.8776 H   0  0  0  0  0  0  0  0  0  0  0  0
    5.1643    1.3913  -17.9797 H   0  0  0  0  0  0  0  0  0  0  0  0
    3.8221    5.0174  -16.3852 H   0  0  0  0  0  0  0  0  0  0  0  0
    3.2639    5.6912  -17.7640 H   0  0  0  0  0  0  0  0  0  0  0  0
    3.4159    4.1286  -20.5509 H   0  0  0  0  0  0  0  0  0  0  0  0
  1  7  2  0
  1  8  1  0
  2  7  1  0
  2  9  2  0
  3  8  2  0
  3  9  1  0
  4 10  2  0
  4 11  1  0
  5 10  1  0
  5 12  2  0
  6 11  2  0
  6 12  1  0
  7 14  1  0
  8 15  1  0
  9 19  1  0
 10 23  1  0
 11 40  1  0
 12 41  1  0
 13 18  1  0
 13 32  1  0
 13 36  2  0
 14 33  1  0
 14 37  2  0
 15 34  1  0
 15 38  2  0
 16 17  1  0
 16 32  1  0
 17 35  1  0
 18 30  1  0
 18 35  1  0
 20 24  1  0
 21 25  1  0
 22 26  1  0
 23 31  1  0
 24 27  1  0
 25 28  1  0
 26 29  1  0
 27 32  1  0
 28 34  1  0
 29 34  1  0
 30 31  1  0
 30 39  1  0
 31 33  1  0
  1 42  1  0
  2 43  1  0
  3 44  1  0
  4 45  1  0
  5 46  1  0
  6 47  1  0
 16 48  1  0
 16 49  1  0
 17 50  1  0
 17 51  1  0
 18 52  1  1
 19 53  1  0
 19 54  1  0
 19 55  1  0
 20 56  1  0
 20 57  1  0
 20 58  1  0
 21 59  1  0
 21 60  1  0
 21 61  1  0
 22 62  1  0
 22 63  1  0
 22 64  1  0
 23 65  1  0
 23 66  1  0
 24 67  1  0
 24 68  1  0
 25 69  1  0
 25 70  1  0
 26 71  1  0
 26 72  1  0
 27 73  1  0
 27 74  1  0
 28 75  1  0
 28 76  1  0
 29 77  1  0
 29 78  1  0
 30 79  1  1
 31 80  1  6
 33 81  1  0
 35 82  1  0
 35 83  1  0
 39 84  1  0
M  CHG  1  35   1
M  END
>  <OMEGA_C>  (61) 
Og/YQA2bP76/mIXBn1MGQYZsrD+18nvB5oQAQS5WVb/Ol2vBBp7bQDRAhD/HA6vBn3WgQHGq0771
kqXBj/HiQCQBsr8oI6zBHmPtQE+Zhz9KzIXB9JfiQPFgkr+Cb3vBlkILQQu6zT5RAmzBVJuxQPEz
YD/NCqfB3Er0QEKQzr1Vh63BKfW4QNajxb8dMqjBGYnAQMEewECeg5XBZSTjQOhhA0CJGo7BeQTO
QNPmHcCpNHvBjvSSQKji+0DIyo7BE8+MQE7d3UBHM4XBc/KkQHumnkC2XY/BGlcbQXTAPD/IxVrB
tJD/QKOBDkES55XBjb5tQOPaV8D324zBoSMVQSUbjMDw6IfB+/mWQHVFBUCjKqTBta7YQMKzFUEq
jJzBegKUQLkjk8CSf47BWR8HQaz7hMCN4ZHBJ5m9QHNeAkFDCKDBnWq4QFhdlMAWOYbBelvsQHx+
RMBw1I/BBW2OQED6fkCSG5fByVqtQPQeO0DdgpvBgw2xQAPq6UB8w5bB+rS6QLilAkAks5LBQWfR
QMeTV8DPQ4bBytCBQLxNs0COSYnBUGvhQKettECPC5rBpvL9QFCgOECnxJDBwIq7QKb6MsAit2rB
wmZ2QK48l0CioJ/Blj4OQT7CST0QWbHB+wGoQJO8McCs8abBLra/QKS20L4aeIvB7okOQbwEE0A2
NnzBSfUDQaPwxb8mFF/BVcboQMtsAUDfHqzBOn2AQNBSCL8Vb6LBTtP1QB2+EMCDF67BuopnQD2N
AEHrqJLBrJ+fQFRRDUG76IvBtJiqQD0i3EAZiIDBa5xlQJPa6UALFYDBuLC5QFxqjEAI6YnBlBwT
Qa/5mz/xQE3B+icjQbIQPr5UPVXBXHcnQasptj/fRmHB3C0JQS+aHEFChJPBm3j0QEUDBkElto7B
itQJQRXBA0HDuprBzJM6QFFAWMA955LBxT9RQB1MWsBw0YTBn+WJQMj9HMDpro3BUhchQc0MpcBi
mInBZlYdQasuXMAr1IXBpgALQUdClsC9LYHBmkOSQIvKLEBuWqvBQ29vQO6k3z/6IqHBGMzEQG5+
IEE7sJfBkPzjQD48HkHYtKPBgLCAQE1ksMButI3BPfahQCK9kcDnkZbB11wRQTDxdcAUlpjBMA7+
QIojo8Cm75PB64GgQEAuCEGVC6TBZFrQQLsm8UCTpKXBoqCqQHMymcASb3zBg/fNQIAfr8ALI4jB
wLL8QE74BsDtj47BcnrXQHPaP8AN5JbBOoZqQAeGXUD1l5LB72TJQGUaW0BiBZ/BlEGlQLYUsj9n
1o/BM510QL+OoEDZFIPBBORQQHAetkCmHI7BtZ1aQE0dhEAoaKTBU5TYQBNSRb7TkIXB85EGQYAh
rT80KHzBlBkBQTN/VL/2tWvBZIzZQHiHhD/a0qrB/FCfQNwD476cUaXBTQviQPYQsb/EFKzBusHt
QETghj+I2oXBkJjjQKrQkr8sdXvBPkkLQeFt2T5A3GvBe9GvQLnUWj8juabBEr/yQCKkrL0Eaq3B
8ji4QKqlx7/UFqjBT9/CQHGzvkDVbZTBxyTjQG/4AUA4PY7BSgTPQEkbHsCmLHvByDCcQI/K/EA/
RIzBKa6LQKsm3EBLIoTB/G+iQK3jnkDJFo/BgyYcQccZPj/qR1vBRie3QA1lDkH846jBSX1uQJ5N
W8DB1IzB4poVQVAwi8AACojBFceUQHblAkAdrKPBLZLJQMThFkFmSZ7BpyOVQHVNlMBAbo7B7mIH
QROshMAv9pHBYL/eQFP0BEGVhJfB0nu5QGuwlMAfIobB6ZjsQOB8RMDg5o/BlCONQNLzf0BSHZfB
2s6rQIdIOkAYRpvBgXO/QKsw60BEzpLBR8K5QEOKA0DUVJLBywbSQECqV8DrRYbBR8h8QAXgtUAb
/4nBKEnhQCFDsEDFdJnBJ7b+QHdAM0B2hpHBfnG8QNTYMsC9r2rBCSJ4QPREmEAkzJ/BX3ANQf4F
tj23NrHB5tenQI9KM8AC6abBQ+y/QHHL1L7uWYvBh/oOQdbmEkAgw3zBGQcFQUy4xr8ze1/BcBXm
QC8GAkC096vBzgx/QKuhFL/xHKLBkkn1QAKWD8A7Hq7BTLuBQNgGA0GtlpHBDtynQPyVDEGC9IfB
KEOlQCP000AI5XzBg4FgQDiP6UDdgX/BGqKzQHoCjEBRCInBu5YUQS62nD/aYU3BiAYkQSVPQL7l
KlbBNB0oQeQStj8bO2LBNJCoQKmqG0GzX63BvATRQI5CB0EUra3BwbeeQJAvAkFMM6fB/Gw7QCvR
XMDQ4pLBpO5RQJgfXsCay4TBEbSJQLu7H8Cyqo3BSakhQWTto8BRuonBM60dQSfgWcC4DIbBD6ML
Qb9ZlcD7PoHBtpKOQA6/KUBi2KrBtHZsQM6F2D94VqDBnMPhQKImI0E3FaDBoXavQKQTHkFvm5nB
KWSCQGHrscDwn43B6CCjQHO5ksAIf5bBTnURQSVLdcClupjBVNb+QD4Po8Do7JPBUeP0QGP390Dx
rpzBcMPwQPl4DEFr9ZDB66urQJFOmcBdPnzBQ1zPQLJIr8DE9IfBt6f8QJuRBsD8tY7BR33XQLKf
QMBz7ZbB/35lQNqWX0AH7ZLBG7THQO4bWUCCAp/BewekQGzmuT9R+47B9tFfQMj2oUDd4oTBnnZT
QEidvkCrs4/BZrxdQLaHhUA5yqTBxkTaQLzbFL7064TBKE8HQZmNtz/DvHvBvoYBQQUiM7+BvWnB
HM/ZQLPLhz83iavBOZ+kQBUIAL+PfqTB8knnQHVLq7/xHazBcV/vQBWsjD+1lYXBRy/kQM6Chb9L
KHnBn1cMQdHZBz8IKGvBeMyxQDwqUj90p6bBXqH0QDQFl7zeL67BuUO/QIP2yb97UKfBR2XCQOQ5
vkDJsZPBomTkQG7KAkCoMo7BFGvMQOpGE8B7LXfBmqOeQA9L+UCzhInBxe+JQA0Z1kAj1ILBfLah
QC5PnUDn/o7BWmEcQZi4aT9UI1rBIuTVQO7GI0HtQqLBpIk3QKX/h8A52ozBxfsXQfunkMAB+o/B
YY2VQFFN/T+vfKPBdyXHQEvtDEELrp/Bj0eEQDhuWsCTKozB08wGQRVHiMBtmIfB5EbdQDC1BEEw
Z5XBMLGlQB+/g8ApOYXBHxPsQNoXU8BbIYzBpK+NQBhmfkBRaZfBdJisQABLOEBhTpvB6mvCQP3g
6ECRGpDBudS6QBR9A0CjM5LBGrzJQLxUTMAXMYTB1AF6QIKls0CwD4rBhEDeQP8NskC65pnBnMf/
QOJrM0BOuZHBEim4QFIGIMDUrmbBRld9QKoXmEB4OqDBR5kNQQoAWT5LuLLBXGuyQJgfNsDVfKXB
OnjCQGmH0r6S0IrBDG4PQWKuGEAypHzBAhQFQXa+sL/wzlzB7M7jQEmnBECxO63BCiqGQBsmL7+t
r6DB8Mb7QGS4CsAYN67BE0uGQG6WA0HI147BdO+qQD0dCUEEH4TBqQmhQI3cyUAH33nB4XNbQNva
4kCZSH3B9SiyQEbUiUCX7YjBsB8UQWw/tz/W/kzBxyskQTPfxDs+71PB64coQWQvyj+4F2HBwd7F
QC1eKUHelKnB6aDNQNBvLkEakpvBQMD4QOTnI0HueqPBCB0IQC/WbsA23ZHBsqxGQO5Jp8BfaZDB
XDAdQP6ujMDKxoTBwQMkQYrApsAcs4zBXp0QQXT5nsAlH5fBabsfQVeTZMBHKpLBPLmNQJuAJEDi
pKrBmclvQMOvyz8Z55/BYEWkQN3cDEHlfJ7BtmTPQPFUAkG6ZabBQFKRQFYTUcCFQZTBKSh5QHbd
G8DwnojBQR/+QDWopsBvaIXBrC0OQdrwc8CRc4DBPlL8QHIi+0DDg5fBi2DiQPkyEkHK5Y/BrD2Y
QOQCi8DWl3rBSi2wQD6aocDzE4nBBXv6QH7XE8CQh43BfEzfQKlKbMB8s5PBtoRkQL9UXkBNn5PB
f1jIQL2OVkDTLZ/BaTWlQF1kuz/jq47Bm6BXQHdWnkBx64XBJ+VVQMggwEDu4Y/B3ZpkQO+8hUA8
cKXBoLraQLxudL4QhIXBMDQIQZ4ipT8WqnzBUK8BQeNoWL8mF2vB4EzdQIExlj+ov6vBZVGnQOUY
075Ae6XBNfjqQIu5nL9ttazBNaLwQK4afz/VCIbB+fjjQEvMkr9DaHrB4AUNQQC4uj5jWWzBbae0
QBL0aT97QqfBfYL4QOyn0z2Aa67B/EnCQKRtvb8XSKjBbBu/QOa2wEB5uZXBME7lQERM/z/NQo7B
B8XJQNTeFcBPmnfBY6eaQJRk/EDqz4vBFkaRQM7L2UARdYPBGC2lQBCjnkBYVY/BSREdQRf1Nj8h
K1vB0vMIQRkEAkEg45TBuYVeQAI0ncBbp47BcJEQQVozf8CRRZjB/e+XQGtXA0Br76PBPrTtQPbB
EUHhqZfBz2+OQJBUdsAjvYrBNdz2QETaaMBk15LBN4bGQFErBkGpW5zBF6WvQKKbj8CtHYPBo8H7
QNp6ccDxqYbBUI6OQPuVfEBMvpbB7NKtQLv0OEDsMJvBvke1QIhy7EA7wZTBQxG8QKcPAEC6d5LB
LZnSQJg0YsAXN4HBXc+CQI4/s0BVC4nBgfzaQFD0tEC/+JvBnbn/QBg2NUBVEZHBKRuqQJ/nD8DR
HWzBhvZzQOwhlUCMOJ/B3MoPQdJusz5WoLLBFRe1QEEJMMBBrKbBv/nCQNja+L64eIvBYLMQQYmu
DkAbZ33BTwsFQbuSxb+RV17BxHfnQAs7DECSIK3BcGCIQDLMG7+l96HBOMf/QJb5AsB9yq7B/DR4
QNEHBEFQEY/BDZ2rQNF3C0FX4ofBfX+uQKCv0kBXxX3BVD9wQCD35ECn8HvBLBO7QJhQjUCN+YnB
8+QUQRfznT8E+03B3YckQU4eU75NFlXBWHgpQft9rz/P7GHBaZ8WQZ7jCkGckJHBYSwDQUTH7EA+
8o7Bxf8NQVcF80CZKpzBs3MvQPKBjsCgEZTBpvaAQKZMtsAr9JLBBik9QN1lq8DSw4fB/cwOQV4B
ecAy/qDB+SAdQa1OU8BOdpXBGwUVQUe0oMD8RZbBm1SRQHErLEBM6arB0l5zQJ/P0j/m0KDBYvnj
QL8+GkEoWZDBKaD5QMldHUGDkZ3BlROfQG31WcCQopHB5GJ5QNonRMA3cobB4vXtQG+lJsBz15TB
J77dQKhfisAgp5XB6YOtQN8FEkEnJ57B9APQQNbx+0BtxqPBBiqgQCGdl8DI8HbB35K8QOflrMDc
xYbBAH4DQds3mcD2wYTBYawJQQ1pQsAG1IPBDHJsQN/lWkCR+pHBz5zJQCrmWUDTr57BQb6mQCxv
rj8eYo/BgBNwQKlOnkCsoIPBYQhWQPdBu0A7AY7BBeZXQN1zgUCT1KPB

>  <OMEGA_E>  (61) 
FCyYPvDvXT6UIOI+jD0ZPw==

>  <OMEGA_NBR>  (61) 
     35479

$$$$
50147921
     RDKit          3D

 81 83  0  0  1  0  0  0  0  0999 V2000
    6.7801   -0.1942  -16.7004 C   0  0  0  0  0  0  0  0  0  0  0  0
    8.4346    1.3438  -15.7733 C   0  0  0  0  0  0  0  0  0  0  0  0
    8.0849   -0.8358  -14.7410 C   0  0  0  0  0  0  0  0  0  0  0  0
    6.8205    1.0350  -21.3393 C   0  0  0  0  0  0  0  0  0  0  0  0
    4.9931   -0.4431  -20.6704 C   0  0  0  0  0  0  0  0  0  0  0  0
    7.0833   -1.3834  -21.5027 C   0  0  0  0  0  0  0  0  0  0  0  0
    7.4476    1.0494  -16.7398 C   0  0  0  0  0  0  0  0  0  0  0  0
    7.1247   -1.1506  -15.7226 C   0  0  0  0  0  0  0  0  0  0  0  0
    8.7276    0.4161  -14.7542 C   0  0  0  0  0  0  0  0  0  0  0  0
    5.5126    0.8547  -20.8366 C   0  0  0  0  0  0  0  0  0  0  0  0
    7.6085   -0.0847  -21.6610 C   0  0  0  0  0  0  0  0  0  0  0  0
    5.7725   -1.5594  -21.0140 C   0  0  0  0  0  0  0  0  0  0  0  0
    6.0890    5.9650  -18.5165 C   0  0  0  0  0  0  0  0  0  0  0  0
    7.1150    2.0285  -17.7857 C   0  0  0  0  0  0  0  0  0  0  0  0
    6.4743   -2.4715  -15.7010 C   0  0  0  0  0  0  0  0  0  0  0  0
    4.9074    7.8804  -17.4338 C   0  0  0  0  0  0  0  0  0  0  0  0
    4.3231    6.8441  -16.4743 C   0  0  0  0  0  0  0  0  0  0  0  0
    5.0710    4.9599  -17.8735 C   0  0  2  0  0  0  0  0  0  0  0  0
    9.7846    0.7318  -13.7205 C   0  0  0  0  0  0  0  0  0  0  0  0
    3.7132   -3.3933  -17.5987 C   0  0  0  0  0  0  0  0  0  0  0  0
    9.3314   -4.3619  -16.9951 C   0  0  0  0  0  0  0  0  0  0  0  0
    6.3147    8.8808  -20.1263 C   0  0  0  0  0  0  0  0  0  0  0  0
    4.6667    2.0449  -20.4580 C   0  0  0  0  0  0  0  0  0  0  0  0
    4.6278   -4.6166  -17.7971 C   0  0  0  0  0  0  0  0  0  0  0  0
    8.4497   -4.1609  -18.2408 C   0  0  0  0  0  0  0  0  0  0  0  0
    6.9537    8.3049  -18.8486 C   0  0  0  0  0  0  0  0  0  0  0  0
    5.7708   -4.6398  -16.7677 C   0  0  0  0  0  0  0  0  0  0  0  0
    7.3814   -3.0824  -17.9943 C   0  0  0  0  0  0  0  0  0  0  0  0
    4.4204    3.9957  -18.8892 C   0  0  2  0  0  0  0  0  0  0  0  0
    5.3831    2.9116  -19.4069 C   0  0  1  0  0  0  0  0  0  0  0  0
    6.0519    7.3324  -18.1866 N   0  0  0  0  0  0  0  0  0  0  0  0
    5.8186    2.0595  -18.2877 N   0  0  0  0  0  0  0  0  0  0  0  0
    6.5505   -3.3705  -16.7889 N   0  0  0  0  0  0  0  0  0  0  0  0
    3.9284    5.6715  -17.2567 N   0  0  0  0  0  0  0  0  0  0  0  0
    6.9950    5.5391  -19.2242 O   0  0  0  0  0  0  0  0  0  0  0  0
    7.9782    2.7921  -18.2053 O   0  0  0  0  0  0  0  0  0  0  0  0
    5.8965   -2.7909  -14.6677 O   0  0  0  0  0  0  0  0  0  0  0  0
    3.8929    4.7572  -19.9758 O   0  0  0  0  0  0  0  0  0  0  0  0
    8.8666    0.0882  -22.1252 F   0  0  0  0  0  0  0  0  0  0  0  0
    5.2582   -2.8009  -20.8734 F   0  0  0  0  0  0  0  0  0  0  0  0
    6.0049   -0.4134  -17.4197 H   0  0  0  0  0  0  0  0  0  0  0  0
    8.9664    2.2829  -15.8156 H   0  0  0  0  0  0  0  0  0  0  0  0
    8.3287   -1.5578  -13.9757 H   0  0  0  0  0  0  0  0  0  0  0  0
    7.2147    2.0311  -21.4763 H   0  0  0  0  0  0  0  0  0  0  0  0
    3.9959   -0.5800  -20.2790 H   0  0  0  0  0  0  0  0  0  0  0  0
    7.6851   -2.2436  -21.7560 H   0  0  0  0  0  0  0  0  0  0  0  0
    4.1270    8.1902  -18.1445 H   0  0  0  0  0  0  0  0  0  0  0  0
    5.2443    8.7535  -16.8557 H   0  0  0  0  0  0  0  0  0  0  0  0
    5.0798    6.5576  -15.7291 H   0  0  0  0  0  0  0  0  0  0  0  0
    3.4446    7.2636  -15.9622 H   0  0  0  0  0  0  0  0  0  0  0  0
    5.5971    4.3695  -17.1089 H   0  0  0  0  0  0  0  0  0  0  0  0
    9.3155    1.2172  -12.8520 H   0  0  0  0  0  0  0  0  0  0  0  0
   10.2736   -0.2000  -13.3998 H   0  0  0  0  0  0  0  0  0  0  0  0
   10.5344    1.4077  -14.1575 H   0  0  0  0  0  0  0  0  0  0  0  0
    2.9099   -3.4098  -18.3500 H   0  0  0  0  0  0  0  0  0  0  0  0
    3.2733   -3.4241  -16.5910 H   0  0  0  0  0  0  0  0  0  0  0  0
    4.3033   -2.4721  -17.7133 H   0  0  0  0  0  0  0  0  0  0  0  0
   10.0847   -5.1370  -17.1996 H   0  0  0  0  0  0  0  0  0  0  0  0
    9.8362   -3.4167  -16.7468 H   0  0  0  0  0  0  0  0  0  0  0  0
    8.7034   -4.6756  -16.1482 H   0  0  0  0  0  0  0  0  0  0  0  0
    7.0073    9.5971  -20.5924 H   0  0  0  0  0  0  0  0  0  0  0  0
    6.1038    8.0632  -20.8312 H   0  0  0  0  0  0  0  0  0  0  0  0
    5.3764    9.3934  -19.8678 H   0  0  0  0  0  0  0  0  0  0  0  0
    4.4749    2.6512  -21.3555 H   0  0  0  0  0  0  0  0  0  0  0  0
    3.7112    1.6911  -20.0434 H   0  0  0  0  0  0  0  0  0  0  0  0
    4.0285   -5.5323  -17.6863 H   0  0  0  0  0  0  0  0  0  0  0  0
    5.0585   -4.5803  -18.8086 H   0  0  0  0  0  0  0  0  0  0  0  0
    9.0845   -3.8517  -19.0842 H   0  0  0  0  0  0  0  0  0  0  0  0
    7.9517   -5.1106  -18.4856 H   0  0  0  0  0  0  0  0  0  0  0  0
    7.8933    7.7986  -19.1148 H   0  0  0  0  0  0  0  0  0  0  0  0
    7.1659    9.1288  -18.1514 H   0  0  0  0  0  0  0  0  0  0  0  0
    5.3447   -4.7808  -15.7635 H   0  0  0  0  0  0  0  0  0  0  0  0
    6.4448   -5.4773  -17.0009 H   0  0  0  0  0  0  0  0  0  0  0  0
    7.8831   -2.1135  -17.8544 H   0  0  0  0  0  0  0  0  0  0  0  0
    6.7224   -3.0304  -18.8736 H   0  0  0  0  0  0  0  0  0  0  0  0
    3.5922    3.4853  -18.3759 H   0  0  0  0  0  0  0  0  0  0  0  0
    6.2541    3.3959  -19.8725 H   0  0  0  0  0  0  0  0  0  0  0  0
    5.1377    1.4644  -17.8608 H   0  0  0  0  0  0  0  0  0  0  0  0
    3.4483    5.0353  -16.6528 H   0  0  0  0  0  0  0  0  0  0  0  0
    3.3113    5.9700  -17.9847 H   0  0  0  0  0  0  0  0  0  0  0  0
    3.4900    4.1724  -20.6068 H   0  0  0  0  0  0  0  0  0  0  0  0
  1  7  2  0
  1  8  1  0
  2  7  1  0
  2  9  2  0
  3  8  2  0
  3  9  1  0
  4 10  2  0
  4 11  1  0
  5 10  1  0
  5 12  2  0
  6 11  2  0
  6 12  1  0
  7 14  1  0
  8 15  1  0
  9 19  1  0
 10 23  1  0
 11 39  1  0
 12 40  1  0
 13 18  1  0
 13 31  1  0
 13 35  2  0
 14 32  1  0
 14 36  2  0
 15 33  1  0
 15 37  2  0
 16 17  1  0
 16 31  1  0
 17 34  1  0
 18 29  1  0
 18 34  1  0
 20 24  1  0
 21 25  1  0
 22 26  1  0
 23 30  1  0
 24 27  1  0
 25 28  1  0
 26 31  1  0
 27 33  1  0
 28 33  1  0
 29 30  1  0
 29 38  1  0
 30 32  1  0
  1 41  1  0
  2 42  1  0
  3 43  1  0
  4 44  1  0
  5 45  1  0
  6 46  1  0
 16 47  1  0
 16 48  1  0
 17 49  1  0
 17 50  1  0
 18 51  1  1
 19 52  1  0
 19 53  1  0
 19 54  1  0
 20 55  1  0
 20 56  1  0
 20 57  1  0
 21 58  1  0
 21 59  1  0
 21 60  1  0
 22 61  1  0
 22 62  1  0
 22 63  1  0
 23 64  1  0
 23 65  1  0
 24 66  1  0
 24 67  1  0
 25 68  1  0
 25 69  1  0
 26 70  1  0
 26 71  1  0
 27 72  1  0
 27 73  1  0
 28 74  1  0
 28 75  1  0
 29 76  1  1
 30 77  1  6
 32 78  1  0
 34 79  1  0
 34 80  1  0
 38 81  1  0
M  CHG  1  34   1
M  END
>  <OMEGA_C>  (62) 
lfbYQJriRr5emoXBSPQGQfoBrD91X3zBxlsBQS/5Vb8k22vBaUHaQHl5hD/OtqrBYcefQJPg4r4G
XaXBFKriQOERsb+eBazBHVPuQJhThj8I64XB0v3jQINFk7+2j3vBP6QLQQEJ1T5kEWzBbmewQL7M
Wj9fsabBk3jzQDh2rb3LSa3Bdri4QM6bx7+YHKjBr9jCQJnhvkDKIZTBz63jQC/SAUAFSY7BwS3P
QG0sHsA7N3vBKgmdQE8s/EBzeIvBLleKQMIC20BZy4PBrUWiQNa3nkDx/I7Bzo0cQbNVOz8eh1vB
PaVtQHMsWcA8yozBnU0VQQmVi8De9YfBMBLKQNsXDkGfAqHBs1WVQFTfAkABqqPBihaUQMu6k8Bd
YI7B7DEHQcUlhcAa7ZHBbYTeQOjgBEH7yZbBoKq4QGJ5lMBJJIbBezTsQEVGRcBs9I/BvXONQPC5
f0AUHZfB9UGsQD5XOkBqQZvBjanBQEGj6kA5fpHBvzG6QNnOA0AtTZLBC57RQCa2V8C/T4bBTWt7
QMh8tUCfDYrBSNffQJtAsUAZy5nBpU3/QDKxMkBhpJHB0K+8QIqeMsDKrmrB5SR5QEs7mEBzzp/B
jd0NQfGutD19ALHBZkOoQLRBM8DM/KbB2CfAQFWn0755W4vBSHYPQdYaEkCpDH3BKUIFQc9lx79F
nF/BpN7mQBb9AUBdz6vBLLx/QEB9FL9yO6LBVuz1QLOXD8AyDK7B/Q+EQOEKA0HWJ5HBRdGnQE0O
DEF92IbBBI6iQPvX0UBJqnvB03RcQGxv6EA4ZX/BUxuzQOzSi0AK34jBGgwVQbDMmz/PoU3BemAk
QTrCTL7EZVbB0YwoQd8vtD8ZhWLBhTs6QNE6WsDRzJLBAH5RQIUkW8BguoTBk7SJQNQ2HsDKtI3B
AlshQXhipMDImInBR2EdQYeqWsCD+YXBKUELQZ2elcB+L4HBxzvgQL2NGUFDvaTB9VHDQLoCAUFS
pqbBUwusQFxLFkFY8Z7BEDKPQNytKUAb2KrB5YRtQGZ22D/ZWKDBxOmAQPEIscCAfY3BV9+hQBiS
ksDqd5bBIloRQbOBdsB8rJjBCXT+QDOKo8B34pPBhJX8QECO+UAW65jB4k7lQMIPEkEcNpHBuger
QFH8mMAiN3zBFDzOQNpFr8DcAYjBcEL8QF9EB8DB1Y7B4h3XQKvyQcAK/ZbBSeZlQI4OX0DCAZPB
VSHIQPFWWUDX+p7Bs2ekQJVxuz/z4o7B2LBcQM8goUDYOIXB5OxTQIYKv0Cu4I/BQlxfQFaEhUC+
2qTBTHDdQB0TlL5lmIXBHP0HQTmIqT/UXHzBGf4DQQjgXb9PtWvBIavZQK0dhz+n4KrBHXWgQHXa
5L6HGKXBh3ziQM+Mrb8BfqzBqdnwQPkUfT+J7IXBX2TpQLY6nL+tP3vB9W4NQard0j4TFWzBH1Ww
QAxYWz8Ql6bBbuDyQPKkV70Zuq3BvnC5QAKmxr8zFajBO4TCQDOGv0DPgpTBQ43kQPqK/T/wIo7B
QxzSQJaLH8BBU3nBNVqdQAC//EBcoYvBePGLQHKn20DZwYPBPSOjQBYpn0Cy947BPe4dQegnSj9u
c1vBfI96QGEqZMC47ovBt+gFQXRwN8B6oJbBv23HQBPzD0GI5qDBKTqVQLEuAkDxWqPBZrGkQDzq
jcAVRI7B8oQKQdayhMAtTpDBaNDdQC5ZBUGeSJfBjhnAQAuml8BIM4TBELAGQVRne8DGRoTBhdON
QESgfkBXw5bB9HesQMiYOEC/5prBZmPBQI1c60B65pHBksy6QCyCAEB2C5LB/pnfQIsSa8CqwIHB
7sp9QCjYtUA/24nBDbbeQJbzsUBobZrBxQL/QI5BM0AgOJHB3fuvQHT5HcB5rG/B49N3QInwlkB9
eZ/BQ1oNQRvuCT6RrbHBN+epQLE9M8AHuabBpnLFQGC8Db+JcYvBxsQPQfxtEkD6An3Bn30IQe7N
yb+7fF/BC+DlQPKiA0C19qvByB2BQO7MGL9mqKHBmmj1QNE6DcDa7a7Bu5iDQDcgA0FJI5HBeW6o
QD52DEFeJIfBwfikQFHg0kB88XvBFnVgQA/v6EC+7n7Bsgu1QGQOjUBh5IjBd+sVQbzMoD8LrE3B
MnomQcls573jJVbBO2cpQUoSwD8pb2LBNfdWQBUNWcCJZZPB3ABRQDGPgsBFJYbBYJ+HQDZyJsCn
lIjB0sEIQQsHQ8BwMJ/B8kXqQIF1JMDIaJXBbYUQQY/2A8C80ZPB2V3dQBBwG0HTsKTBuVe+QCaY
A0HWvabBdpSqQGhiGEENI57BQ7OOQG7dKUBCcKrBd69tQEe41T+tAKDBusWZQKNzrMDyr5HBrOS4
QBs7esBUH5TBX8//QBxWnsDxKpPBI0obQaMWjsDlk5HBN7L6QK8O+kCwHJrB9O7mQJnREUHngZHB
RI+qQEdCm8AlmXrBCYLRQOHGtcCnh4XBg+oLQUF0msBz2X/BzTEQQZ8NRMCnooHBsadnQBd1XkC6
ZpLBA1zIQKVuV0Bno57BLEGlQNI+sz+DrI7BKUxgQIGNoUCp44TB6wdVQAoUv0Bfk4/BIk9dQIDD
g0AfWqTB

>  <OMEGA_E>  (62) 
oP42PmiPvz4=

>  <OMEGA_NBR>  (62) 
     38337

$$$$
50147899
     RDKit          3D

 78 81  0  0  1  0  0  0  0  0999 V2000
    5.1389   10.5230  -22.0675 C   0  0  0  0  0  0  0  0  0  0  0  0
    5.6621   11.2140  -20.9567 C   0  0  0  0  0  0  0  0  0  0  0  0
    5.2243    9.1174  -22.1290 C   0  0  0  0  0  0  0  0  0  0  0  0
    6.2664   10.5008  -19.9048 C   0  0  0  0  0  0  0  0  0  0  0  0
    5.8350    8.4016  -21.0800 C   0  0  0  0  0  0  0  0  0  0  0  0
    6.9067    1.1605  -21.3696 C   0  0  0  0  0  0  0  0  0  0  0  0
    5.2990   -0.3953  -20.3857 C   0  0  0  0  0  0  0  0  0  0  0  0
    7.3829   -1.2307  -21.3379 C   0  0  0  0  0  0  0  0  0  0  0  0
    6.3560    9.0940  -19.9618 C   0  0  0  0  0  0  0  0  0  0  0  0
    5.6702    0.9180  -20.7353 C   0  0  0  0  0  0  0  0  0  0  0  0
    7.7630    0.0862  -21.6693 C   0  0  0  0  0  0  0  0  0  0  0  0
    6.1517   -1.4696  -20.6933 C   0  0  0  0  0  0  0  0  0  0  0  0
    6.0764    6.0383  -18.5288 C   0  0  0  0  0  0  0  0  0  0  0  0
    8.4152   -0.1778  -14.9390 C   0  0  0  0  0  0  0  0  0  0  0  0
    6.9888    1.8696  -17.6044 C   0  0  0  0  0  0  0  0  0  0  0  0
    4.9176    7.9762  -17.4634 C   0  0  0  0  0  0  0  0  0  0  0  0
    7.2707   -0.5268  -16.9162 C   0  0  0  0  0  0  0  0  0  0  0  0
    4.3200    6.9597  -16.4913 C   0  0  0  0  0  0  0  0  0  0  0  0
    5.0686    5.0492  -17.8589 C   0  0  2  0  0  0  0  0  0  0  0  0
    7.0742    0.8861  -16.4298 C   0  0  1  0  0  0  0  0  0  0  0  0
    9.1951   -4.5007  -17.0725 C   0  0  0  0  0  0  0  0  0  0  0  0
    7.5514    2.5469  -13.7197 C   0  0  0  0  0  0  0  0  0  0  0  0
    4.7683    2.0705  -20.3803 C   0  0  0  0  0  0  0  0  0  0  0  0
    7.0125    8.3464  -18.8192 C   0  0  0  0  0  0  0  0  0  0  0  0
    8.1338   -3.4150  -16.8646 C   0  0  0  0  0  0  0  0  0  0  0  0
    8.5425    2.3087  -14.8695 C   0  0  0  0  0  0  0  0  0  0  0  0
    8.7383   -2.3684  -15.9324 C   0  0  0  0  0  0  0  0  0  0  0  0
    4.4416    4.0495  -18.8537 C   0  0  2  0  0  0  0  0  0  0  0  0
    5.4209    2.9381  -19.2896 C   0  0  1  0  0  0  0  0  0  0  0  0
    6.0644    7.4017  -18.1936 N   0  0  0  0  0  0  0  0  0  0  0  0
    7.9106   -1.1798  -15.7691 N   0  0  0  0  0  0  0  0  0  0  0  0
    8.2279    1.0539  -15.5586 N   0  0  0  0  0  0  0  0  0  0  0  0
    5.7235    2.0988  -18.1230 N   0  0  0  0  0  0  0  0  0  0  0  0
    3.9239    5.7740  -17.2583 N   0  0  0  0  0  0  0  0  0  0  0  0
    6.9548    5.6026  -19.2651 O   0  0  0  0  0  0  0  0  0  0  0  0
    9.0638   -0.3688  -13.9151 O   0  0  0  0  0  0  0  0  0  0  0  0
    7.9895    2.4136  -18.0632 O   0  0  0  0  0  0  0  0  0  0  0  0
    3.9414    4.7691  -19.9812 O   0  0  0  0  0  0  0  0  0  0  0  0
    8.9499    0.3201  -22.2729 F   0  0  0  0  0  0  0  0  0  0  0  0
    5.7900   -2.7291  -20.3621 F   0  0  0  0  0  0  0  0  0  0  0  0
    4.6718   11.0709  -22.8726 H   0  0  0  0  0  0  0  0  0  0  0  0
    5.5995   12.2913  -20.9126 H   0  0  0  0  0  0  0  0  0  0  0  0
    4.8216    8.5888  -22.9804 H   0  0  0  0  0  0  0  0  0  0  0  0
    6.6625   11.0316  -19.0518 H   0  0  0  0  0  0  0  0  0  0  0  0
    5.9053    7.3250  -21.1297 H   0  0  0  0  0  0  0  0  0  0  0  0
    7.1951    2.1696  -21.6246 H   0  0  0  0  0  0  0  0  0  0  0  0
    4.3609   -0.5764  -19.8822 H   0  0  0  0  0  0  0  0  0  0  0  0
    8.0353   -2.0571  -21.5782 H   0  0  0  0  0  0  0  0  0  0  0  0
    4.1459    8.2783  -18.1867 H   0  0  0  0  0  0  0  0  0  0  0  0
    5.2561    8.8574  -16.8987 H   0  0  0  0  0  0  0  0  0  0  0  0
    6.3075   -1.0010  -17.1553 H   0  0  0  0  0  0  0  0  0  0  0  0
    7.9226   -0.5538  -17.8018 H   0  0  0  0  0  0  0  0  0  0  0  0
    5.0692    6.6816  -15.7354 H   0  0  0  0  0  0  0  0  0  0  0  0
    3.4400    7.3927  -15.9933 H   0  0  0  0  0  0  0  0  0  0  0  0
    5.5991    4.4854  -17.0774 H   0  0  0  0  0  0  0  0  0  0  0  0
    6.1452    0.9451  -15.8437 H   0  0  0  0  0  0  0  0  0  0  0  0
    8.7985   -5.2785  -17.7417 H   0  0  0  0  0  0  0  0  0  0  0  0
   10.0938   -4.0535  -17.5225 H   0  0  0  0  0  0  0  0  0  0  0  0
    9.4552   -4.9495  -16.1025 H   0  0  0  0  0  0  0  0  0  0  0  0
    7.7985    3.4907  -13.2115 H   0  0  0  0  0  0  0  0  0  0  0  0
    6.5295    2.6041  -14.1226 H   0  0  0  0  0  0  0  0  0  0  0  0
    7.6165    1.7161  -13.0017 H   0  0  0  0  0  0  0  0  0  0  0  0
    4.5927    2.6841  -21.2762 H   0  0  0  0  0  0  0  0  0  0  0  0
    3.8091    1.6806  -20.0091 H   0  0  0  0  0  0  0  0  0  0  0  0
    7.8772    7.7864  -19.2049 H   0  0  0  0  0  0  0  0  0  0  0  0
    7.3518    9.0698  -18.0632 H   0  0  0  0  0  0  0  0  0  0  0  0
    7.8711   -2.9548  -17.8286 H   0  0  0  0  0  0  0  0  0  0  0  0
    7.2326   -3.8508  -16.4087 H   0  0  0  0  0  0  0  0  0  0  0  0
    8.4764    3.1421  -15.5845 H   0  0  0  0  0  0  0  0  0  0  0  0
    9.5634    2.2540  -14.4636 H   0  0  0  0  0  0  0  0  0  0  0  0
    8.8850   -2.8276  -14.9437 H   0  0  0  0  0  0  0  0  0  0  0  0
    9.7117   -2.0600  -16.3416 H   0  0  0  0  0  0  0  0  0  0  0  0
    3.5989    3.5619  -18.3418 H   0  0  0  0  0  0  0  0  0  0  0  0
    6.3406    3.3945  -19.6845 H   0  0  0  0  0  0  0  0  0  0  0  0
    4.9530    1.6559  -17.6645 H   0  0  0  0  0  0  0  0  0  0  0  0
    3.4390    5.1488  -16.6468 H   0  0  0  0  0  0  0  0  0  0  0  0
    3.3112    6.0630  -17.9939 H   0  0  0  0  0  0  0  0  0  0  0  0
    3.5534    4.1606  -20.5990 H   0  0  0  0  0  0  0  0  0  0  0  0
  1  2  2  0
  1  3  1  0
  2  4  1  0
  3  5  2  0
  4  9  2  0
  5  9  1  0
  6 10  2  0
  6 11  1  0
  7 10  1  0
  7 12  2  0
  8 11  2  0
  8 12  1  0
  9 24  1  0
 10 23  1  0
 11 39  1  0
 12 40  1  0
 13 19  1  0
 13 30  1  0
 13 35  2  0
 14 31  1  0
 14 32  1  0
 14 36  2  0
 15 20  1  0
 15 33  1  0
 15 37  2  0
 16 18  1  0
 16 30  1  0
 17 20  1  0
 17 31  1  0
 18 34  1  0
 19 28  1  0
 19 34  1  0
 20 32  1  0
 21 25  1  0
 22 26  1  0
 23 29  1  0
 24 30  1  0
 25 27  1  0
 26 32  1  0
 27 31  1  0
 28 29  1  0
 28 38  1  0
 29 33  1  0
  1 41  1  0
  2 42  1  0
  3 43  1  0
  4 44  1  0
  5 45  1  0
  6 46  1  0
  7 47  1  0
  8 48  1  0
 16 49  1  0
 16 50  1  0
 17 51  1  0
 17 52  1  0
 18 53  1  0
 18 54  1  0
 19 55  1  1
 20 56  1  1
 21 57  1  0
 21 58  1  0
 21 59  1  0
 22 60  1  0
 22 61  1  0
 22 62  1  0
 23 63  1  0
 23 64  1  0
 24 65  1  0
 24 66  1  0
 25 67  1  0
 25 68  1  0
 26 69  1  0
 26 70  1  0
 27 71  1  0
 27 72  1  0
 28 73  1  1
 29 74  1  6
 33 75  1  0
 34 76  1  0
 34 77  1  0
 38 78  1  0
M  CHG  1  34   1
M  END
>  <OMEGA_C>  (63) 
l3GkQGFeKEE+irDBHDC1QL5sM0Fdp6fBui2nQKvgEUE5CLHBC4bIQDQDKEELPZ/Bbbi6QO5sBkHc
o6jBXwPdQMWLlD/s9KrBn5GpQD9ryr7dFaPBlUDsQGWGnb8ftKrBFWTLQCSBEUHQsZ/BVXK1QI4C
az/y4aXBWmr4QKiIsD2oWq3BINvEQLwbvL/Yi6XBjHHCQKo5wUDyOpTBxaQGQeIJNr71BW/BS6Tf
QNBN7z/h1YzB/1ydQNI8/0AHtYvB0qnoQA7bBr9NVIfBgz2KQH+13kAe7oPB2jGiQKWSoUDy3o7B
nl/iQITVYj9RcIPBHR8TQQIGkMCMlIjBOKXxQDAAI0D4g1vBDZaYQNmDBEDFCqPBcGbgQMmKBUG7
jZbBMSQCQeuOWsDI6obBQq4IQVvCE0Cf6W3B888LQVmTF8A7637BniGOQLSVgUBw1JbBJXitQAwJ
PEAYUZrBYQ/CQNfa7EBqjJHB1SP9QIIDl79rTnzBVqUDQdTkhj8Q8HjBDCe3QIhSBkDU+5DBryF7
QIbEuEAREYrBc43eQNFIs0DVHprBVAURQVXXvL4RpF7Bx6n/QAt5GkBjgZDBiT98QFOcmEB32Z/B
rDIPQQXloz4AL7LBvEe5QMmoLsCO5aLBwH+VQEoiMUES+7bB8i6zQEWpREHpTKfB5UqaQKVrCUHb
17fB9DLVQJSBMEH/aZjBLPi8QKFm6kCOCanBOz7mQDLaCkAj/6zBgoyLQK6QE7+mDp/By5AAQUun
A8AhoKzBaauEQBl0BEFofpHB0TGoQAa4DUGiMIfBpdbJQC0hgL8bPonBFIb9QELFDb8Kao7B1Tai
QG3P1UANxHvBKShcQACR7ECQ5H/BsiuzQFWIj0BtnojBx6XEQK30cT+0f33BlsYMQanpqMDv7o3B
BYAhQY62gcD7LYzBr0gXQWlinsD30YDBBo35QBpnX0B5YlPBcvHQQEKqJkBc9mHBDrrzQM2n2z8g
B1DBMveSQALJK0CWNarBvsdzQL4d1z+XEqDB0xH8QBYq+UCao5nBx0HrQP8dEUF0gZDBVeD7QCAb
PcD3oI7Bq3HnQNZydsDzRIPBd58HQUkYSUD5WXnBxQMZQe1BEEC9amfB+SgOQZ/3NMBxGW/B8mIb
QTzWA8CIu4LBEVRmQLP2Y0ABvJLB7eXKQAY/WUDKeZ3BAX+eQFj00z/4UI3BoxhcQM7CpECsLIXB
X+pTQM8DwkB384/B7WpjQLYjhUDRyqTBoYqmQFtxJ0G3RbDB7c22QGGPMkFLWafBxX2pQFX1EEFY
vrDBufDJQA84J0Hd4Z7Bf9e8QCmUBUFMTajB3szaQFgKgj/BJarBCrymQCYU+76u7aHBetDoQJTG
sL87e6nBaBzNQES5EEGJVJ/BpGSzQL5fTz/E5qTB7X31QOBVor0QbqzBtnHBQOLeyr+6OKTBkAXD
QDggwECP6pPBIl0GQTvjNL8f73TBkDrhQDbi6j+exIzBSQCeQNV+/kDBhYvBA73XQCcKBr/ZQ4fB
2ZKJQNMc3kBd64PBM/mhQF34oEArv47BUT/jQLiMWz/qRoPBleYQQQdoXMCQh4vBJ9sYQTxF3z9G
IF3BSmOXQNpJ/j8dLaLBjL/hQJ/SBEFaH5bBK2TxQN/KYsAkdInByTMVQYga2T/hfXXB/LHjQNI0
NsA93n3Bu3KOQJYOgUA9yZbB+a+tQJExOkA/AprBnv7CQKm060BNL5HB5zzqQHY4sb/1Un7Bhm4G
QRz7Hj8HgHzB/Fa4QM8+CUCWWJDBfzZ6QJqFuEDzMorBCJzfQEW4sUBEl5nBS3kSQWgSmb+kp2fB
AcAAQfAzEkAuEJHBcQp/QKPYl0Cb9J/BBKkNQQT99j0LbbHB5mO1QGceNcDPS6HBi8yXQMMoMEEz
wrbBDpW0QG/KQ0HIAafBz+qcQP5zCEF3k7fBsTnWQIrBL0HhBpjB7kC/QAW36EAKrqjBK3bkQB/f
AECaaKzBoZOIQHRgJb+D5Z3B6kb9QI9BDsDOQKvBFQmGQIBcBEFlcJHB29eoQCwyDUH844bBY9W0
QFhnJ78quIfBZPXlQBrDN7/hKY/B/LqgQBvD1EB4b3vBP1RaQPlG7ED2HYDBNx+yQNvdjkDSXojB
mtbLQEXllT+HZ3rB2dIUQSYMfcBkE5PBZo4VQa6oGMByFYzBHaMZQbjuesBY6YTBeO8jQU4aJEBF
QlnBWn4JQfTm9D+Q+VTBtr4fQVwkSj8ovlfBzqWQQEGlI0CJgqnBWVVyQNeHzz8TvZ7BhnL9QMSJ
90AlH5nBxnvsQNNrEEF6EpDBzVfgQEuJRMDjKJDBPIHoQKtnk8DJ/IjBFoAOQU9kKkACk3rBcsAk
QdjzxD+aV33BqYfBQMcXQ8AwHnvBkJX2QB8cUcCLoHDBttllQMSlY0Bf1pLBr6PKQPkVVkCNmZ3B
W9ifQCFZ6D9K7IvBhnFZQLOgpEAIdYXBerdUQJ0rwkB/N5DB7exmQHtGhEDL7aTBsXeoQP0gJkEt
+a/BbnOuQH/WD0FaybDBUyu2QPkhMUEGwKbBL1TCQKuMBEEKZajBZdnJQMDeJUEtVZ7BNRrYQD4H
iz+KzqrBGlKmQHR4975TdaLB9zDoQOVFpr8JpqrB2jLQQGCUD0GCJJ/BJHuxQIKnVT+xU6XBQ3Tz
QECWpjxQcq3Bma3BQDFZxr+vIKXB8JLDQJb0vkAg55PBongFQZqmN78GHHXBHNvdQBHV5j93nYzB
u5+hQA8W/kCzEovBVa7VQJo2EL/KYIfB+nOLQDL33UBrtIPB+aehQJOxoEAzvY7BwpbfQIiSUT+A
LIPBLKEVQcBIdcAlO4nBaDcUQeJL5z+s+1vBteWUQIrq/T+tOaLBjebkQGCrA0Hp8ZXB8cX7QAph
X8BhtIrBb5cSQYO42z+SgHTBeILnQOoPOsDhW4DBKjONQGk8gUADw5bBRXSrQG7tOEBt/ZnBzq7F
QG4y6kB+45DB027qQEv3t78kZH/BrpAEQb6iHj/wDnzBz0C1QGzfBkD5X5DBJTZ7QPt5uUA0NYrB
B/feQIUEsEBg2pnBapsRQUAql7/xnWfBqVL+QA5tEEAuypDBYgV+QMRsmEB275/BAVMMQYojiD6r
mrLBM0G3QLjsM8B5QKLB6FyZQHXJLkFQbbbBlcujQHFpB0H+17fBSJGxQB43QkHRI6bBxfrGQDjy
5kBSBqnBoBvUQBdOLkHUPZfBDqfgQGs0BkAN+azBXdSIQEqSLL9XOJ7BBBb9QEaZB8B6vKzBzD6K
QJEcBUEI6ZDBCtmtQBtqDEFFPIbBpPSyQP7XPb+flIfBMBLjQP95NL/vb4/B2+ehQBMV00C+/nrB
hw5fQHEL7UC6y3/BQEWxQKgzjkBmWYjBtnDHQEemjT99ZnrBGxAcQUuxh8CHvpDBpoIeQcILO8CD
DofBSlgXQROQksAb1YLBndYeQdDwKEA+k1fBzzYEQZVs/T++MlXBXMEaQZemXT/fo1XBci2NQGK2
JEDRZanBj2puQAlnyz/atJ7Bgw8AQUOb9EBW+pjBwlTwQP1CD0HG+I/BGb34QPHiL8D1J5HBYWjq
QKr7jMCN7ozBuTIMQczNKkCJkHrBRr0iQU8Cxz+qAXvBQIjFQGpdTMCpIYDBCyH4QHyvVcAg03LB
GYViQOSXZUBFz5LB0t/IQNRuU0CsgZ3BuG2cQOmP4T8lJozBdyhYQDD7pUDCnoXBck1XQMxrxED8
PJDBg8FkQEk2hUAn6KTB94enQJ5OKEFqIrDBXpC3QAtKM0HRJKfBeEyqQH7SEUEUqbDB6jjKQHzP
J0FQqJ7BNi69QM1NBkH3MqjBPZ7bQOzRiT8PIKrBRbemQLKi6b7smKLBEHTpQGNZqb/Z86nBliHN
QFdPEUHFJZ/BtcmzQHC2Wj9qH6XBJG32QABhQby5iKzB7JPBQJOSxb8S+6TB7h7CQDocwUCS5ZPB
Cu0KQQbCW789ZIHBAW7gQIOu5z8c8YzB5CedQL5Q/0BcbIvBU/3PQMrXAr9JdobBVX+IQPLL3kAh
5IPBfzKhQLPKoUBBuo7B9LziQFfvVj9XYYPB8HPfQFCnXcCQv27Bmx0ZQX71lj9+vF3BXXmXQJBK
AUDVSKLBxjjhQKxGBUF755XBgyPSQI51ZMBPNYPBrt0VQVejuz+xq3XB8FrxQMSwM8CnnIrB+uCN
QETAgUCoxJbBA0utQFLVO0A6+ZnB0zPCQMqW7EBbE5HBdh71QC9rsL+UwofBtwYHQc7KAT/9qX/B
8Jy3QHZsCkCnUpDBDWd4QGlDuUC1N4rBmlreQGD5skDzuJnBaXEaQQfuvb9KKnzBLFoAQeS7EkC9
/5DBKxZ+QEiFmEC58p/BBFMOQS5UUD4OTLHBtBS1QKIUM8DHcaLB4BqZQJUgMUFOobbBNIi1QNOF
REEDxKbBwfGdQAZsCUHdjLfB+1fWQEY/MEHCwJfBKnq/QHAq6kBJn6jBqYLlQJ44BUA/GqzBNRWI
QKEmIL9e1Z7BmBL+QHYsCsDZyKvBLVKFQDvgBEGcWZHBQvynQJ+IDUFQvIbBwtu6QDazY7+2G4DB
7e69QCdQ374E/o3B13ifQIdd1UBKT3vBxvNXQLvo7EAdIYDBbGCxQKPQj0BtVYjBKz/QQIU0oT8j
YHnB9IDIQM+KgMA9xGTBCZ7/QLoFecBSrGzB1cHfQL76GcCM5mnBxkUkQWNh9T+X9FbBoqYJQbqm
nz+DZ1XBKr8fQWVbLD4ftlvBv8GQQAeOJkAyj6nBdYlyQBES0j8z757BygD9QN1q+EBT2JjBh7/r
QOXNEEE1zI/Bj77RQLIrlMDgiYXBW+KxQGhMScD9JoTBeVYPQSbIHkCJgnfBAG8lQQB1sz8k0X3B
ZpQIQfx4UcCdAorBRbrlQBqZOMAv5ZLB57RkQG3eZEA/15LB/2DKQMgWWEBkc53B5BKfQD+j7j8F
x4vBCnBXQGVNpUC/g4XBvy1TQO73wkCNQZDBFDJmQNPuhEAt76TBHUaoQIqeJ0Ehm7DBroqsQPIw
EUFqIbHBD7W2QBrQMkGxgqfB8GK/QKryBUEokqjBYX7JQJqcJ0FS8p7BgMDbQPkLjz+VvarBt0mh
QAg2pr5MxqTBKuTiQHQ9p7/106vB/wfOQNgsEUHic5/BW16yQEtWdj9ababBEuvzQKDkjrwkfK3B
5Jm5QK6wur/uc6fB81jDQHdTwUDp55PBsCH+QO7ro7+7JHrB8wjbQH9WzT91II3BUSaeQIHv/0CV
sovBD9HcQOCGZ7+IaY3BmmGJQGzY30B/FITBzyiiQNowokDHtY7BE8LaQKAzpD4FTYbBkKGhQNzA
ecDkAIvBqQQbQazTWD8AsWLBCHmYQFkKC0AqeKPBgEjiQKJnBUF8JJbBpOnKQHGFhMDSg4TByqgF
QYOpkD+6Im7BlZjxQOAiVsCq4IjBsV2OQGyCgkAXu5bBhzGtQBZ/PEDqH5rBM1jDQEv47EDBOZHB
NvvuQIxS9L99XIbBagj/QLQG2D0+K37BTZuzQDjPAUCnCJHBpVZ6QNv5uUDjRYrBiczfQDrvskAi
oJnBFg8EQfi17b9KkWnBzXX8QA6FC0DCcI/BH1N+QKUamkDyxJ/BVbINQeFqBj6AvbHBHGmpQOlP
LMC6u6XBa+2ZQGA7MEGKLrfBoV2hQLqfCEEiGLjBQVqzQCP+Q0FmHKfB+KXCQAiH6UDH+KjBBnbU
QNg1MEHF+JfBo9roQIrEBkD17qvB05aBQC4o4b45daHBbID1QGBsC8Ct6a3B5G6GQAf9BEE9spHB
ltGoQIL9DUHBGIfBfbm8QOtwmb/TJ5DBbZHxQDCXOr9cYZTBP0OgQNnD1kCClHvBlZ1ZQGEs7kAO
ZYDBySCyQGsckEAgTYjBJMe8QOpclT4EsoHBGFyHQJu/j8BxiIfBIVCZQExgNcA+wYrBgcemQKy7
hsBTWpPBKFceQaNM0z8SJVfBVvkZQacQ6r0GM1rBWv4nQfhJTT+Kj27B+DiWQGiRNUCudarBgmFw
QGj47D/EFKHBsh7+QPWi+EAOCZnBDr/sQFYYEUFKG5DBHC/FQDSZdcDWW3jBe6bSQCDYpsAAx4TB
O+zxQDWBlz+O+mHBIvsGQZ5jBkASV3bB9IMHQT0scMB1UIXBTcvyQG/WXcChnpHB2bhlQDu2ZkBV
wZLB1NvLQFUSWEDTupzBDmyZQDlC1z9nXY3BZ19ZQGBHpkBJgIXBix5VQOlWw0B0WJDBNqZlQG74
hkBDzqTB

>  <OMEGA_E>  (63) 
PKbsPviY/z6o+ek+CEwYP5onDT8=

>  <OMEGA_NBR>  (63) 
     44676

$$$$
50147914
     RDKit          3D

 74 77  0  0  1  0  0  0  0  0999 V2000
    5.3682   10.4375  -21.9662 C   0  0  0  0  0  0  0  0  0  0  0  0
    5.9005   11.1056  -20.8457 C   0  0  0  0  0  0  0  0  0  0  0  0
    5.4083    9.0304  -22.0341 C   0  0  0  0  0  0  0  0  0  0  0  0
    6.4689   10.3682  -19.7905 C   0  0  0  0  0  0  0  0  0  0  0  0
    5.9839    8.2905  -20.9825 C   0  0  0  0  0  0  0  0  0  0  0  0
    6.6968    1.0999  -21.4544 C   0  0  0  0  0  0  0  0  0  0  0  0
    5.1376   -0.4913  -20.4502 C   0  0  0  0  0  0  0  0  0  0  0  0
    7.2021   -1.2840  -21.4803 C   0  0  0  0  0  0  0  0  0  0  0  0
    6.5141    8.9598  -19.8542 C   0  0  0  0  0  0  0  0  0  0  0  0
    5.4878    0.8343  -20.7778 C   0  0  0  0  0  0  0  0  0  0  0  0
    7.5552    0.0424  -21.7998 C   0  0  0  0  0  0  0  0  0  0  0  0
    5.9940   -1.5496  -20.8044 C   0  0  0  0  0  0  0  0  0  0  0  0
    8.4963   -0.2695  -15.0707 C   0  0  0  0  0  0  0  0  0  0  0  0
    6.0945    5.9164  -18.4850 C   0  0  0  0  0  0  0  0  0  0  0  0
    7.0280    2.0695  -17.6574 C   0  0  0  0  0  0  0  0  0  0  0  0
    8.5312    1.1141  -15.7433 C   0  0  0  0  0  0  0  0  0  0  0  0
    5.0074    7.8723  -17.3797 C   0  0  0  0  0  0  0  0  0  0  0  0
    6.9662   -0.2657  -16.8467 C   0  0  0  0  0  0  0  0  0  0  0  0
    4.3447    6.8572  -16.4493 C   0  0  0  0  0  0  0  0  0  0  0  0
    5.0352    4.9572  -17.8578 C   0  0  2  0  0  0  0  0  0  0  0  0
    7.1759    1.1732  -16.4343 C   0  0  2  0  0  0  0  0  0  0  0  0
    5.7533   -4.6673  -17.2543 C   0  0  0  0  0  0  0  0  0  0  0  0
    4.5966    1.9759  -20.3596 C   0  0  0  0  0  0  0  0  0  0  0  0
    7.1292    8.1858  -18.7062 C   0  0  0  0  0  0  0  0  0  0  0  0
    7.2476   -2.4607  -15.5567 C   0  0  0  0  0  0  0  0  0  0  0  0
    7.6952   -3.2869  -16.7869 C   0  0  0  0  0  0  0  0  0  0  0  0
    4.3862    4.0041  -18.8845 C   0  0  2  0  0  0  0  0  0  0  0  0
    5.3379    2.8927  -19.3666 C   0  0  1  0  0  0  0  0  0  0  0  0
    6.1407    7.2670  -18.1069 N   0  0  0  0  0  0  0  0  0  0  0  0
    7.5221   -1.0321  -15.7390 N   0  0  0  0  0  0  0  0  0  0  0  0
    5.7555    2.1016  -18.2096 N   0  0  0  0  0  0  0  0  0  0  0  0
    3.9119    5.7138  -17.2585 N   0  0  0  0  0  0  0  0  0  0  0  0
    9.1617   -0.6003  -14.0967 O   0  0  0  0  0  0  0  0  0  0  0  0
    6.9653    5.4627  -19.2192 O   0  0  0  0  0  0  0  0  0  0  0  0
    7.9635    2.7248  -18.1053 O   0  0  0  0  0  0  0  0  0  0  0  0
    3.9049    4.7650  -19.9912 O   0  0  0  0  0  0  0  0  0  0  0  0
    7.1024   -4.6018  -16.7340 O   0  0  0  0  0  0  0  0  0  0  0  0
    8.7203    0.3028  -22.4334 F   0  0  0  0  0  0  0  0  0  0  0  0
    5.6649   -2.8192  -20.4802 F   0  0  0  0  0  0  0  0  0  0  0  0
    4.9289   11.0043  -22.7738 H   0  0  0  0  0  0  0  0  0  0  0  0
    5.8724   12.1841  -20.7967 H   0  0  0  0  0  0  0  0  0  0  0  0
    4.9978    8.5193  -22.8923 H   0  0  0  0  0  0  0  0  0  0  0  0
    6.8713   10.8818  -18.9298 H   0  0  0  0  0  0  0  0  0  0  0  0
    6.0206    7.2125  -21.0376 H   0  0  0  0  0  0  0  0  0  0  0  0
    6.9626    2.1158  -21.7070 H   0  0  0  0  0  0  0  0  0  0  0  0
    4.2139   -0.6939  -19.9285 H   0  0  0  0  0  0  0  0  0  0  0  0
    7.8577   -2.0976  -21.7535 H   0  0  0  0  0  0  0  0  0  0  0  0
    8.6337    1.9167  -14.9981 H   0  0  0  0  0  0  0  0  0  0  0  0
    9.3528    1.1825  -16.4714 H   0  0  0  0  0  0  0  0  0  0  0  0
    4.2645    8.2312  -18.1071 H   0  0  0  0  0  0  0  0  0  0  0  0
    5.3753    8.7198  -16.7828 H   0  0  0  0  0  0  0  0  0  0  0  0
    5.8958   -0.4839  -16.9753 H   0  0  0  0  0  0  0  0  0  0  0  0
    7.5005   -0.4864  -17.7825 H   0  0  0  0  0  0  0  0  0  0  0  0
    5.0647    6.5238  -15.6874 H   0  0  0  0  0  0  0  0  0  0  0  0
    3.4749    7.3157  -15.9560 H   0  0  0  0  0  0  0  0  0  0  0  0
    5.5279    4.3547  -17.0805 H   0  0  0  0  0  0  0  0  0  0  0  0
    6.4102    1.4502  -15.6947 H   0  0  0  0  0  0  0  0  0  0  0  0
    5.3795   -5.6989  -17.1766 H   0  0  0  0  0  0  0  0  0  0  0  0
    5.1032   -3.9971  -16.6727 H   0  0  0  0  0  0  0  0  0  0  0  0
    5.7518   -4.3553  -18.3091 H   0  0  0  0  0  0  0  0  0  0  0  0
    4.3107    2.5582  -21.2480 H   0  0  0  0  0  0  0  0  0  0  0  0
    3.6929    1.5741  -19.8781 H   0  0  0  0  0  0  0  0  0  0  0  0
    7.9835    7.6027  -19.0806 H   0  0  0  0  0  0  0  0  0  0  0  0
    7.4763    8.8933  -17.9387 H   0  0  0  0  0  0  0  0  0  0  0  0
    6.1669   -2.6005  -15.4065 H   0  0  0  0  0  0  0  0  0  0  0  0
    7.7905   -2.8184  -14.6694 H   0  0  0  0  0  0  0  0  0  0  0  0
    7.3720   -2.7772  -17.7065 H   0  0  0  0  0  0  0  0  0  0  0  0
    8.7913   -3.3800  -16.7851 H   0  0  0  0  0  0  0  0  0  0  0  0
    3.5336    3.5169  -18.3889 H   0  0  0  0  0  0  0  0  0  0  0  0
    6.2096    3.3441  -19.8628 H   0  0  0  0  0  0  0  0  0  0  0  0
    5.0587    1.5303  -17.7758 H   0  0  0  0  0  0  0  0  0  0  0  0
    3.3874    5.0933  -16.6754 H   0  0  0  0  0  0  0  0  0  0  0  0
    3.3277    6.0511  -17.9967 H   0  0  0  0  0  0  0  0  0  0  0  0
    3.5044    4.1828  -20.6261 H   0  0  0  0  0  0  0  0  0  0  0  0
  1  2  2  0
  1  3  1  0
  2  4  1  0
  3  5  2  0
  4  9  2  0
  5  9  1  0
  6 10  2  0
  6 11  1  0
  7 10  1  0
  7 12  2  0
  8 11  2  0
  8 12  1  0
  9 24  1  0
 10 23  1  0
 11 38  1  0
 12 39  1  0
 13 16  1  0
 13 30  1  0
 13 33  2  0
 14 20  1  0
 14 29  1  0
 14 34  2  0
 15 21  1  0
 15 31  1  0
 15 35  2  0
 16 21  1  0
 17 19  1  0
 17 29  1  0
 18 21  1  0
 18 30  1  0
 19 32  1  0
 20 27  1  0
 20 32  1  0
 22 37  1  0
 23 28  1  0
 24 29  1  0
 25 26  1  0
 25 30  1  0
 26 37  1  0
 27 28  1  0
 27 36  1  0
 28 31  1  0
  1 40  1  0
  2 41  1  0
  3 42  1  0
  4 43  1  0
  5 44  1  0
  6 45  1  0
  7 46  1  0
  8 47  1  0
 16 48  1  0
 16 49  1  0
 17 50  1  0
 17 51  1  0
 18 52  1  0
 18 53  1  0
 19 54  1  0
 19 55  1  0
 20 56  1  1
 21 57  1  1
 22 58  1  0
 22 59  1  0
 22 60  1  0
 23 61  1  0
 23 62  1  0
 24 63  1  0
 24 64  1  0
 25 65  1  0
 25 66  1  0
 26 67  1  0
 26 68  1  0
 27 69  1  1
 28 70  1  6
 31 71  1  0
 32 72  1  0
 32 73  1  0
 36 74  1  0
M  CHG  1  32   1
M  END
>  <OMEGA_C>  (64) 
M8irQCYAJ0Gvuq/BNtG8QI2wMUH7w6bBAxGtQHR8EEHERbDB2QDPQC/kJUHbUp7BYny/QLSlBEFB
3KfBb0zWQJvJjD+1oqvB12akQISK+77ymaPB73fmQFBapL+h16vBTnPQQH9bD0F31Z7BWZyvQGaV
VT/iOKbBW8TxQK6ULT3uZa7BNs+/QGJYxr9db6bBzPAHQe75ib6oIXHBvgXDQFdTvUA04ZPBU+Xg
QGZzBEBcQo3BmH8IQQ+ajj9x5HvBqjygQKTp+0CNCYvBQuveQEgDiL7yxYbBlgeLQGlu20AUmIPB
cyChQFihnkC+3I7BwqDlQBsrlj9feYPBNhu4QJtalcDPCIrBWxeTQJrr/D9f4KLBbiLkQBb5AkE/
ppXBcOznQEd8HcBT6HjBaT/2QBRcUsB6S4bBIVyMQP8hgEByE5fB0s+qQEAiOUC37prBZYDEQGGL
6EDk2pDBKrXwQHcchL8m03vB3iy4QKKABkAqrZHBQFx6QB7XtkCCEYrBKpYSQRCrGb8PjGHBj+Pe
QNnOrkDrwJnBGtX+QE1jLkCr15DBLul5QAp7mED57Z/B9UbjQChCk8Ap34XBfoYLQX4Hmz6hd7PB
KEe1QDBtNMCI16PB4rmdQKERMEGsMLbB3uq7QCzyQkGWX6bBou2fQApPCEF/I7fBsuHbQL8bLkFI
cJfBn6jAQKTM5kD1TKjBZs3eQNloB0Dyp63B+deGQLSkMb+RbZ/BMnL7QKI/BsA+B67BzCMKQbZX
9T9r+G/BP6UVQVpblz9jxYPBbXaIQOqyA0Fo25DBVQKsQH2EC0EdQ4bBXaq8QHDC976CzYfBaQTw
QHcJ+b6FQo7BGhKiQDnD0ECq/3rBgWReQNsZ6kDDS3/By+SwQF1Zi0DapIjBNyDNQLqguT9wHXvB
xCSsQIxdtsDEaYnBpE2jQLrQf8DEYYXBaw64QLpei8AXeZLBZvGJQG+5I0DQ+6nBEVhsQH16yT9t
Bp/B/Hj/QJFJ80D6pJjBnz3vQNdKDkFsgo/BdVfFQBpvJsACgXbBcEv5QOhgNMDMtWrBRefrQO68
McDapo3BIqkMQYVRWMD8R4bB6iZiQGMVYUBiHJPBbLXGQBYFVkAX557B5uChQIrhwz/UNI7BpctY
QKf8okBGZ4XBRfhUQKeiwUBB+Y/BJ0hgQEPZhUBKAqXBznmpQJp0J0Epna/BysGuQAkqEUG/t7DB
xEW3QKHXMUEpOabBJP7BQL9ABUG/cKjBXlPKQK/3JUFa7p3B4kXWQDP5jT++2qvBGjelQGSK+b6T
kKPBtubmQKHGor8DCqzB5OXPQF6tD0GCBJ/B8gSwQLu8Vj/GRabBtL7xQFo4Yz2Rsq7BuKfAQMln
xb+HdqbB0UgGQUj/wr6/MnHBkCXDQFqxvUC/GZTB8jriQNB3A0A1WI3Bb/sIQQikej/uoXzBIHyg
QDIk/ED6L4vBuvHZQGvqeL7lSYbBNd6LQOmp20BqooPBJuehQHDOnkCs5Y7BEC3mQECDlj8sa4PB
PvYPQa4gh8BQ8o7BzJ+TQNQK/T+70qLBqg7kQCAuA0Ez8pXB5rjaQJjaGcAzmXbBjA/lQCQPVMAk
5ITBeAiNQLHkf0DF/pbBsqSrQJowOUDi7JrBwJfEQDXp6ECtGJHBiNroQGyRgr/vYnrBHF25QDKd
BkAetJHBQ/x7QNvItkCiAYrB7jERQffjR7/tOGLBNK/eQMJNr0B8FprBqR0AQWPVLUBr0JDBobh5
QKgAmECz0J/BtVcJQaUUWMBeR4bBWVALQRAhpD5V7rPBnKO2QKr7M8AmvKPBtdaaQMiUMEEf+bXB
cA+kQLA2CUFg6LfB8zizQA/sQkHTY6XB3xzGQIhc6ECKSqnBILXUQBTwLUG/t5bBRHHeQMsJCEAq
8a3B7vGHQLBvMb+gRp/BE+r7QGxDBcC4Rq7Bg5YMQWUV5D90J3HBW6oVQfw5bz8taITBHFeIQACs
A0Ev8pDBt06sQHm4C0HYe4bBrha3QI0Brb4TQYfBbvfpQCUJEL8Gso3B7EWjQDdU0UBsLnvBmjZg
QBM46kDfQn/B4T6yQPDXi0DttYjBsubPQFYyxj8DlXrByYYhQV4Jh8D1gI/Bzk8KQSz1p8C2f43B
NB0JQcdLdsDIepbBbB2KQOriI0Bx5KnBDNFtQNM4yT+05Z7BkTH/QFi580DhD5nBP4rvQNZpDkFW
z4/Bh/C3QNseGsCw5XPBXhTrQBDWMsAFUmjBDH3YQKpaisCdY4PB9TjWQMHGOcDWKYzBRkhkQFxH
YED56pLBtlHHQHtnVkBL9J7B7QajQDAdxT/qKo7Bb1pbQD3hokClQIXBZLRVQONCwUCt24/BmOxf
QP8ohUAY1aTB3VisQLBaKEHGua7BEta8QHONMkGsjqXBCNetQNfhEUFVlq/BPszOQP5OJkFnPp3B
5Pq/QACZBUHAS6fBANDWQEARfj8tLavB4b2hQLfmAb++SaPB8FbjQK32tL/9+6rByIbQQDzRD0GO
FJ7BowyvQC9SSz+BD6bBlvbwQJZR472Im63Bd+O7QLwczr/9vqXBD1IJQdAMd70q5m/BG9XCQK42
vUDMxZPBipHgQEYwA0CUq43BDFQIQX+tpD9+p3vBxQ+gQMD6+kB3j4rBfiriQIAhg75aJIbBzVSK
QCbJ2UD7aIPBTLCgQHcxnkDQA4/BILLlQOSpmz8vjIPBSFwJQQfucsAUwJTBYF+TQBJG/T9HNKPB
+x/kQObzAkHvC5XB26nuQNvyFcCX6XTBY1cEQSD9TcBgOoLBwD2MQNVcgEBkcJfBwqiqQAU4OUDR
MZvBfmvEQGwW6ECJc5DBv+XzQBLrZ7/HTXnBZYK3QGwfB0Dm1JHB2j55QKoHtkD1LorBxPQUQUCN
m76mnGDBB7TeQKonr0Btt5nB6vP+QPTvJ0BH3JHBK8Z7QC4wmUB6UaDB6+z4QPwnRsBqCo3BGKQL
QSQspz3UYrLBqWKvQBTCNsBK7qLBXo2eQOHDMUFAGbXB3rC7QDvGQ0HB6KTBjxOhQOITCkG4mrbB
yEnbQKkmLkHdNJbBrEHBQPbD6EBE+afBsCXhQFbS/j/zOK3Bu4CDQF9bKL/yR5/BOiX3QILOEMBJ
/azBI8cIQZUfCECaTnDBqZAVQfVJsT+0koPBu5OIQKyrA0FiV5DBtdqrQPG1CkExjoXBkJbAQHk0
DL9EYYfB9ez0QHDBAb8WUI3BcwWhQDhPzkBHpnrBlsNcQNAm6EAJ5H7BiSuwQJ5eikDQ24jBoznM
QPx7vj/7wHvBAX8CQf9basBDyJzBy70ZQac1WcDUm5TBO7cJQf+9m8CqwZLBwhSMQEgiI0BTgarB
ZsxqQFpgzz8Xl5/Bw3L/QFaC80BIJpjBLjzvQMnyDUEEw47BuJjMQESSJsAjcnbBK235QMgMI8CF
emTBRDEVQf+/OcARAYLBGyEDQeGgiMCOaH/BEOJgQL/YYUBXqpPBrNLGQEPaVUAZE5/BwdKgQE73
yT8JJI7BJfNWQFLCoUDOt4XBG6JUQIiXwUD6EpDB6ppiQLThhkChgaXB+m2oQJriJkEm+K/BVJyu
QAWeEEGQ4LDBxfO0QA2pMUFDk6bBEq7BQOwjBUEzbajB5rzHQBw0JkHUGJ7BIbHXQJLakj+JbavB
Z0imQFHq7L5AcaPBB5zoQLSZnb+BsavBjIDOQLf2D0F1BZ/BUCexQIrqXT/2/6XBVIHzQMyuzD0I
Nq7BC/vBQLdywb+FT6bBOxgGQfUhyb6Xl3DB5dDCQNTVvkCf55PBFGziQAekAEDPVI3BlNQIQeBn
dD8fN3zBH1+fQHwi/UBRGYvBcA/aQBnukL74RIbBy3yKQBuK3EDOoIPBS2mhQMvYn0BrzY7B8wvm
QD+WkT9xVoPBRgCgQGIRkMA4MYjBQWKUQPV7/z8zmKLBwt3iQNfuA0Ed0ZXBKjfdQN7KHcAH/nbB
PfPjQDtYWMApU4XBthGNQNTagECN8ZbBQvOrQAzZOkDEqprB0M3DQCwf6kD27ZDBsdPrQKmLjL82
XHvBZBS5QOB1CUCSRZHBKD16QNKut0DhD4rB6BoQQYpLQr/CyWDBVcneQJV+sEDCxpnBC9cAQfF9
IUDwoJHBROx6QKm5mEAg3J/BZDjLQD/qksDbGoTB6GMMQfgcwD4JPLPBBMO3QBk6MsCpv6PBVxWa
QNyxL0HJerbBebqkQBdaCEEeDbjB5yGwQBO3QkGn4aXBkoDGQMos6ECOIanB/f7QQJR0LkED3pbB
wc/fQFmmCkBbca3B78CIQOUHLb84Sp/Bw939QChkAsCX463BWkQMQVEt4j8k23DBHaQVQY57Zz/b
IITBe3OHQEMsBEEk6pDBjOiqQNUzDEErV4bB2hS3QG7zyr6Bp4bBYSnoQCBBEL+XA47BK5uhQCRB
0kBwBXvB6uhcQJD06kB2bH/BYXqxQP0BjUAnjIjB1GLPQJYiwT8Bl3rBH4OPQHPErsAm84bBr6+O
QIgibcBJ8YPBL/CgQEWxiMAyy5DB+NyKQC3sJECPranBI2ZvQGajyj8ytZ7BNHX+QLOT9UAiz5jB
E7btQNxzD0G+vY/BkPS6QPdYHMD593LB9GPvQL21N8A2YmnBx47ZQG6HNsDAl4zBSgkDQXq6aMCE
A4bBqc9jQIVLYkCj9JLBsd/HQA/NV0Asnp7B2OuhQP3i1T/XR43B4RJZQD23o0D7YYXBYLJUQDUj
wkCR/Y/BzcZhQI3GhUBB56TBEPSlQAMWKEG/y7DB8pqqQMuvEUG0bbHBtkK0QPErM0HKp6fBML+9
QMddBkFT76jBIFrHQKflJ0EOKZ/BGCfdQPLYjT+CZKrBnDukQArnwr6vOKTBji3mQICXp79chqvB
pk7MQCl/EUFox5/BljW0QEBVaz8W56XBDBv2QABv4buFNq3Buju9QKJFv78xBqfBqpoFQUychr8S
RnfByK/CQIyawUArOZTB/LveQJIS6D9674vBPoQDQSMl7j61BXrBAPOcQLjK/0Ah/ovB+DnmQPHD
Lb98pYvBEVWJQNml30CQMYTBkp2iQEUWokDfw47BxGfhQD3CET9QtYTBYj+TQNfJfMDqKIvBMG6Z
QFbRBkDL4KLBWtbgQGmrBUGwiJbBF20DQUJVQsBIfojBvgzeQAuZdsCAXIbB0ByPQKiSgUD8l5bB
Ep+uQGeNO0Cb4JnBQirCQIJE7UBAm5HB+YMAQdIfz7+bjYXB4PC2QJPnA0BHkZDBqeZ6QJs/uUB4
OYrBMsUKQYa10b9i3WbBgsreQOqPs0AoGprBquL+QHcvHEAwg47BxzN+QAdCmEBFsp/BUme9QCD3
X8DPAo7ByqcOQaglMj77i7HB+OitQO5jL8DGXaXBTGiXQE3CMEEGU7fBMn+fQIozCUGNbLjBvpKw
QFNTREFaK6fBPEzBQMlo6kBWaqnBHzzSQGNpMEHPJpjBqU7pQMDTBkBDqavBcteEQIphBb9FyaDB
xV35QLqhCsCdrq3BG/b/QG+MdT80s2rBpx4SQSgnZj+DfIDBs6iEQIuGBEEX7ZHBiVanQFQjDkGt
hYfBRq7GQKXoj7+XPY3BbMj1QAeF2L42RZPB/s+gQKJQ10Bd9HvBRHhZQPmV7UBjbYDBt3mzQOy4
kEAcYIjBRXvDQJ7K+j41HoDBbq14QEQRacCiXpHB8jCTQLd8ocBjeYrBSfGJQG9mYMBIc4PB2kWV
QGbjL0AN86nBB+1zQFeo4D+7HKDBq638QE5X+UDmfZnBPlnrQGBREUGme5DBKqAQQfk/XcBHvoPB
WWcHQSFlRsDxDJHBrFvlQBqcncDrFYfBpmvSQPX3aMDQdnzBRSVoQNtFZEAffZLBk4/MQNAcWEB4
0pzBLKidQGK0zT/DRY3BKoFbQKlrpUClUoXBmmRUQE/wwUDRO5DBI9hlQAqNhEAPnqTBwzalQDkz
KEGu07DBSumzQBtnM0HGwqfBeaKpQDbIEUEYYLHBnRXHQD84KEH5Pp/Bium8QNWOBkHR3qjBunrd
QP3pjT/2carBB6WkQLsfvL5xCKTBveXlQOvJp78Fl6vBk8fLQIbLEUGwxp/B77S0QDSqbT+a1qXB
ag/2QGCISLztUq3BdSK9QCU6vr9F96bBK9IFQQwMWr8UsXLBOZvCQIxLwkDuQpTB5ozfQD7x5T/m
JozBkJIDQSx+IT8mo3jB89KcQHUnAEEA9YvBt4jpQNJiM79eDIrBUPiIQAQK4EBLOoTBicmiQHea
okAqxo7BOkfiQE6AHT8WPoTBzyyxQHAWhMCdhojB7wyaQEiwB0Az46LBxYrgQGMRBkGZhpbBpX0E
QVfLQMCf/IPBQjH5QLh7ZcCr147BEnOPQDa/gUCCjJbB4BWvQBIXPEBA25nBxh3CQF7m7UBCkZHB
RUb7QFuzzr/a4IHBR4a3QJbGA0CQmZDBntZ6QDKeuUBQSorBICMOQXfior+vQ2LBkpDeQKJstECc
NZrBfpT/QOMBG0Bb2I7BXxl+QLMumECTpp/BJmDLQCwSXsBLbpDBkX0OQYDLIj6t1rHBCTmtQKGS
LsCRdKXBs4uWQJ3MMEHUXLfBAHawQJKTREG8WKfBiz6eQFc1CUG8ULjBljrSQLnSMEFNSpjBUlbA
QInE6kAyS6nB2sjpQBWwBkAFwqvBJJOFQMgqAL8MZ6DBrMT4QJMEC8CNzq3BYVz/QKHDnj88g2rB
QEsSQdyUgT+FDYDB8qeEQDviBEHm5pHBTTCnQAJUDkHobYfBlSjLQH7ai7+qM43B6i0AQVhOEb+P
qZDB5jegQKG810DF6HvBLV5YQNDh7UCph4DBR72zQMaGkUDrWYjBCfvDQFw6Dj+Vk3/B6jCPQF6X
fsAne4rBT2y4QGeIpsBweojBL+63QCQAbcDilYDB0EWWQA3FMECe+KnBL9V0QOQ34z+TMKDBxHr8
QOFM+kAFfZnB4/HqQH/GEUHffZDBonv8QEijacCCEnvBWRUWQZ3FQsBZ7IPBr7cEQaK8QsB0VJXB
UvAAQWjSlMBlNY/BljNpQNFfZEAcZZLB0f/MQKrwWEDzxZzBJkeeQAZazj/fOY3BtVFbQKy1pUDh
a4XB5plUQP9CwkCiVJDB0uxlQFNOhEAQi6TB0JmiQMEmJ0GNxrDBCJaxQKOUMkGMz6fB9J2nQI3C
EEEaRLHB2KbFQHGnJ0FnV5/B+sS7QLHKBUHQzajB1nPcQOXxjD9xxarBZlGkQHWowb5tB6TBKqrl
QEOhqL8FlKvBxPDKQENCEUHRz5/BMumzQNo9az9QDKbBrEX1QHABkLwej63BrjS9QOyAv7/GyqbB
HZADQfijUL/3lnLBkFnDQFulwUAKNZTBNmPhQLYx8D8JoIzBABMGQafDHj8EOHvBFAyeQI1q/0DI
oYvBlBHfQAhlGr98DInBKlOKQIq83kC+/YPBTG2jQOTboUDRz47BEFbjQJsSRz/5F4TB56sNQVXS
c8A6AI7BzkuZQOwoB0CQEaPBQKHgQCzRBUG2mZbBptfTQEnnLsDgbnvBOl7SQM3Bb8DaD4fBHMSP
QB2WgUAVsZbBWlGvQFnLPEDkTJrBlOjCQNMx7UDxdJHBRPbrQMgPwb/sYoDB8jW5QKGlBUBCG5HB
faV8QAXWuED8MYrBtAcLQfJ4nb98uWHBZEPfQC3ts0AyMJrB3G8AQS2KIkB4Io/BIZh9QFZ5mEA2
o5/Bphr6QJJhj8AWCojBLP0NQYJnIT6ELbLBEDquQAVeL8DG1aTBpUGTQDOOL0EUR7fBzKutQLi7
Q0FecKfBUAOcQIECCEHfILjBdwfRQGBvMEEVd5jBZKK/QApG6UCJLqnBeGfoQPI/BkA/PqzBtlCF
QMZfA7/rXaDB5Ln4QGpXC8Dauq3BtN8GQWNQrT/bIW7BRGAUQaxWNz8troLBDaWFQGHBBEFLc5HB
rt2oQJyqDUEVAYfB6ti9QNL3S7/CgovBLmH0QKymNb8wAJDBrsahQDvd1UAuoXvBjIlbQOt57EAO
KYDBvGC0QNFGkEB8eYjBWofIQCiBbT90CX3BqQMcQcpHjsDsR47BWw0IQWlVZ8BiMZbBIZwRQdXT
NsCKEorB+5CUQFJKL0CXM6rBzR10QNws4j9tGKDBY5b8QFUM+kCxpJnBliPrQDewEUGYqJDB3dyy
QH/aHMB1QHfB0CjjQIzHTcAJmG3Bnie4QCmrjsDqooXB12/MQK/gTMCNj47BvXhqQDkaY0DghZLB
JpXMQMJMWkDngp3BJaCgQOGYzT+mvI3BrftcQLq7pEAwZIXB4VRWQKAIwkAsLZDBkBhlQDfYhEAs
kaTB

>  <OMEGA_E>  (64) 
MDbpPjT06T5sV/M+NIHmPgDzEj/Exww/fHwBPw==

>  <OMEGA_NBR>  (64) 
     53034

$$$$
50147892
     RDKit          3D

 84 87  0  0  1  0  0  0  0  0999 V2000
    5.2647   10.5018  -21.8624 C   0  0  0  0  0  0  0  0  0  0  0  0
    5.4487    9.1125  -22.0123 C   0  0  0  0  0  0  0  0  0  0  0  0
    5.6782   11.1450  -20.6786 C   0  0  0  0  0  0  0  0  0  0  0  0
    6.0577    8.3674  -20.9834 C   0  0  0  0  0  0  0  0  0  0  0  0
    6.2812   10.4012  -19.6467 C   0  0  0  0  0  0  0  0  0  0  0  0
    6.7656    1.0120  -21.3883 C   0  0  0  0  0  0  0  0  0  0  0  0
    5.1201   -0.4880  -20.3820 C   0  0  0  0  0  0  0  0  0  0  0  0
    7.1882   -1.3888  -21.3120 C   0  0  0  0  0  0  0  0  0  0  0  0
    6.4821    9.0127  -19.7989 C   0  0  0  0  0  0  0  0  0  0  0  0
    5.5194    0.8126  -20.7556 C   0  0  0  0  0  0  0  0  0  0  0  0
    7.5977   -0.0878  -21.6668 C   0  0  0  0  0  0  0  0  0  0  0  0
    5.9543   -1.5873  -20.6605 C   0  0  0  0  0  0  0  0  0  0  0  0
    6.1136    5.9414  -18.4930 C   0  0  0  0  0  0  0  0  0  0  0  0
    8.0682   -1.1488  -14.9454 C   0  0  0  0  0  0  0  0  0  0  0  0
    6.9698    1.8708  -17.8034 C   0  0  0  0  0  0  0  0  0  0  0  0
    5.0342    7.8669  -17.3258 C   0  0  0  0  0  0  0  0  0  0  0  0
    7.1629   -0.5661  -17.2039 C   0  0  0  0  0  0  0  0  0  0  0  0
    8.4052    1.1358  -15.8909 C   0  0  0  0  0  0  0  0  0  0  0  0
    4.3802    6.8260  -16.4186 C   0  0  0  0  0  0  0  0  0  0  0  0
    5.0565    4.9655  -17.8839 C   0  0  2  0  0  0  0  0  0  0  0  0
    7.1263    0.8721  -16.6658 C   0  0  0  0  0  0  0  0  0  0  0  0
    9.1910   -3.8110  -16.9381 C   0  0  0  0  0  0  0  0  0  0  0  0
   11.4766    0.7006  -14.3711 C   0  0  0  0  0  0  0  0  0  0  0  0
    4.6382    1.9996  -20.4262 C   0  0  0  0  0  0  0  0  0  0  0  0
    7.1303    8.2255  -18.6783 C   0  0  0  0  0  0  0  0  0  0  0  0
    7.7245   -3.6513  -17.3791 C   0  0  0  0  0  0  0  0  0  0  0  0
   10.3668    1.5195  -13.6938 C   0  0  0  0  0  0  0  0  0  0  0  0
    6.8680   -2.9190  -16.3171 C   0  0  0  0  0  0  0  0  0  0  0  0
    9.0841    0.6763  -13.4989 C   0  0  0  0  0  0  0  0  0  0  0  0
    4.3958    4.0340  -18.9288 C   0  0  2  0  0  0  0  0  0  0  0  0
    5.3334    2.9091  -19.3979 C   0  0  1  0  0  0  0  0  0  0  0  0
    6.1612    7.2840  -18.0815 N   0  0  0  0  0  0  0  0  0  0  0  0
    7.3223   -1.5206  -16.0894 N   0  0  0  0  0  0  0  0  0  0  0  0
    8.5158    0.1825  -14.7802 N   0  0  0  0  0  0  0  0  0  0  0  0
    5.6823    2.1026  -18.2340 N   0  0  0  0  0  0  0  0  0  0  0  0
    3.9398    5.7065  -17.2565 N   0  0  0  0  0  0  0  0  0  0  0  0
    6.9814    5.5029  -19.2402 O   0  0  0  0  0  0  0  0  0  0  0  0
    8.2651   -1.9699  -14.0557 O   0  0  0  0  0  0  0  0  0  0  0  0
    7.9329    2.4633  -18.2837 O   0  0  0  0  0  0  0  0  0  0  0  0
    3.9461    4.8071  -20.0380 O   0  0  0  0  0  0  0  0  0  0  0  0
    8.7924    0.1068  -22.2691 F   0  0  0  0  0  0  0  0  0  0  0  0
    5.5790   -2.8311  -20.2855 F   0  0  0  0  0  0  0  0  0  0  0  0
    4.8063   11.0740  -22.6554 H   0  0  0  0  0  0  0  0  0  0  0  0
    5.1228    8.6190  -22.9160 H   0  0  0  0  0  0  0  0  0  0  0  0
    5.5325   12.2088  -20.5631 H   0  0  0  0  0  0  0  0  0  0  0  0
    6.2005    7.3031  -21.0993 H   0  0  0  0  0  0  0  0  0  0  0  0
    6.5907   10.8941  -18.7369 H   0  0  0  0  0  0  0  0  0  0  0  0
    7.0803    2.0091  -21.6586 H   0  0  0  0  0  0  0  0  0  0  0  0
    4.1748   -0.6402  -19.8825 H   0  0  0  0  0  0  0  0  0  0  0  0
    7.8204   -2.2344  -21.5396 H   0  0  0  0  0  0  0  0  0  0  0  0
    4.2843    8.2462  -18.0356 H   0  0  0  0  0  0  0  0  0  0  0  0
    5.4075    8.6972  -16.7084 H   0  0  0  0  0  0  0  0  0  0  0  0
    6.2234   -0.7800  -17.7346 H   0  0  0  0  0  0  0  0  0  0  0  0
    8.0090   -0.6732  -17.8985 H   0  0  0  0  0  0  0  0  0  0  0  0
    9.2696    1.0184  -16.5610 H   0  0  0  0  0  0  0  0  0  0  0  0
    8.3866    2.1609  -15.4925 H   0  0  0  0  0  0  0  0  0  0  0  0
    5.1073    6.4709  -15.6734 H   0  0  0  0  0  0  0  0  0  0  0  0
    3.5152    7.2701  -15.9042 H   0  0  0  0  0  0  0  0  0  0  0  0
    5.5549    4.3435  -17.1259 H   0  0  0  0  0  0  0  0  0  0  0  0
    6.2689    0.9719  -15.9840 H   0  0  0  0  0  0  0  0  0  0  0  0
    9.7555   -4.3350  -17.7234 H   0  0  0  0  0  0  0  0  0  0  0  0
    9.6331   -2.8180  -16.7694 H   0  0  0  0  0  0  0  0  0  0  0  0
    9.2321   -4.3939  -16.0062 H   0  0  0  0  0  0  0  0  0  0  0  0
   12.3721    1.3273  -14.4946 H   0  0  0  0  0  0  0  0  0  0  0  0
   11.7224   -0.1708  -13.7464 H   0  0  0  0  0  0  0  0  0  0  0  0
   11.1297    0.3585  -15.3573 H   0  0  0  0  0  0  0  0  0  0  0  0
    4.4426    2.5728  -21.3445 H   0  0  0  0  0  0  0  0  0  0  0  0
    3.6861    1.6404  -20.0084 H   0  0  0  0  0  0  0  0  0  0  0  0
    7.9843    7.6602  -19.0797 H   0  0  0  0  0  0  0  0  0  0  0  0
    7.4831    8.9219  -17.9034 H   0  0  0  0  0  0  0  0  0  0  0  0
    7.6973   -3.0739  -18.3149 H   0  0  0  0  0  0  0  0  0  0  0  0
    7.2963   -4.6497  -17.5517 H   0  0  0  0  0  0  0  0  0  0  0  0
   10.7232    1.8618  -12.7110 H   0  0  0  0  0  0  0  0  0  0  0  0
   10.1305    2.3910  -14.3220 H   0  0  0  0  0  0  0  0  0  0  0  0
    5.8224   -2.8999  -16.6582 H   0  0  0  0  0  0  0  0  0  0  0  0
    6.9339   -3.4711  -15.3679 H   0  0  0  0  0  0  0  0  0  0  0  0
    9.3264   -0.1899  -12.8656 H   0  0  0  0  0  0  0  0  0  0  0  0
    8.3285    1.2980  -12.9964 H   0  0  0  0  0  0  0  0  0  0  0  0
    3.5273    3.5619  -18.4463 H   0  0  0  0  0  0  0  0  0  0  0  0
    6.2358    3.3481  -19.8483 H   0  0  0  0  0  0  0  0  0  0  0  0
    4.9355    1.6896  -17.7128 H   0  0  0  0  0  0  0  0  0  0  0  0
    3.4181    5.0709  -16.6874 H   0  0  0  0  0  0  0  0  0  0  0  0
    3.3512    6.0654  -17.9809 H   0  0  0  0  0  0  0  0  0  0  0  0
    3.5406    4.2354  -20.6793 H   0  0  0  0  0  0  0  0  0  0  0  0
  1  2  2  0
  1  3  1  0
  2  4  1  0
  3  5  2  0
  4  9  2  0
  5  9  1  0
  6 10  2  0
  6 11  1  0
  7 10  1  0
  7 12  2  0
  8 11  2  0
  8 12  1  0
  9 25  1  0
 10 24  1  0
 11 41  1  0
 12 42  1  0
 13 20  1  0
 13 32  1  0
 13 37  2  0
 14 33  1  0
 14 34  1  0
 14 38  2  0
 15 21  1  0
 15 35  1  0
 15 39  2  0
 16 19  1  0
 16 32  1  0
 17 21  1  0
 17 33  1  0
 18 21  1  0
 18 34  1  0
 19 36  1  0
 20 30  1  0
 20 36  1  0
 22 26  1  0
 23 27  1  0
 24 31  1  0
 25 32  1  0
 26 28  1  0
 27 29  1  0
 28 33  1  0
 29 34  1  0
 30 31  1  0
 30 40  1  0
 31 35  1  0
  1 43  1  0
  2 44  1  0
  3 45  1  0
  4 46  1  0
  5 47  1  0
  6 48  1  0
  7 49  1  0
  8 50  1  0
 16 51  1  0
 16 52  1  0
 17 53  1  0
 17 54  1  0
 18 55  1  0
 18 56  1  0
 19 57  1  0
 19 58  1  0
 20 59  1  1
 21 60  1  0
 22 61  1  0
 22 62  1  0
 22 63  1  0
 23 64  1  0
 23 65  1  0
 23 66  1  0
 24 67  1  0
 24 68  1  0
 25 69  1  0
 25 70  1  0
 26 71  1  0
 26 72  1  0
 27 73  1  0
 27 74  1  0
 28 75  1  0
 28 76  1  0
 29 77  1  0
 29 78  1  0
 30 79  1  1
 31 80  1  6
 35 81  1  0
 36 82  1  0
 36 83  1  0
 40 84  1  0
M  CHG  1  36   1
M  END
>  <OMEGA_C>  (65) 
CnioQHEHKEEo5q7BnFuuQK3MEUEtGbDBGrS1QL5RMkHUbaXBltjBQL3gBUH33afB6v/IQEFrJkFa
LJ3BZH/YQDaJgT8zG6vBHNijQNDe+b5aDqPBiAXmQPfEsb8Lf6rBFm3PQBg0EEEpZJ7Bxp6wQCgG
UD+DC6bBYiDzQHi+s72XVa3BiIm+QD0uy7+eSKXBiKLDQDcgvkCf8ZPBJhcBQeEMk79oIG/B6gjf
QLZ27z9obY7BchihQPS9+0BHm4rBaDblQBbqEL+FoYnBzXsGQWRhkT8aQX7ByCqMQKZu2kAyWYPB
lM6hQMTlnkBREo/BSgrkQC4/Xz+iU4XBLA4TQdjmc8BPgYfBIqA3QStZMz8D8GXBCGyUQDf0/z/R
aKPBXCvkQJ6bA0E5bZXBzi73QD6vacBXCIvBVN4lQcR/wj+aGVvBasbbQIDROsBdiYLBaVgRQegh
LT+K+1fBPaqMQO8WgUAWbpfBWquqQAwuOkDaLpvBkCjFQOsW6UDTppDBolDqQDmjwr8lt4DBokAI
QYDiOj7De2zBTNW1QPOQBkA035HB6SR8QH6btkBXDYrB/mffQAsYsEDd65nB+D0EQe8k/L8P5GDB
Dtr9QJKmHUAQRZLBe4x8QGLTmUDjTaDBoq0MQYC92j0gJ7LBFIeyQAQwNcDASKLBDs2ZQCcvMUFF
PrXB6u2jQJ7nCUEEVLfBeAqxQFxXQ0E5gaTBHWrGQE2z6UBTy6jB4ebSQBVOLkEb5ZXBbZHiQMWV
AEDQRK3Bp5eFQHLmI79aD5/BU0D6QN7/DsAzUazB5BiJQD/wA0HkSJDBYAqtQOYnC0G4qoXBXCbH
QL+vR79k4I3B/yQAQVZWLL82MI/Bc1AUQdtbgj/ifITBsS8GQbpMCkA94XfBBW+jQK8Rz0A5xnrB
KflgQEyk6ECOd37BhMGxQN79ikDWAYnBlprIQPnNeD9mvn/BrhYcQfK3isCXyY3BUyEaQexZNMCy
J4bBvbYTQYWajMCrDIDBGfRFQS7mqT/w6WfB7I47QZHiLr4P8VvBaRMyQcyNtz6qt3XB+SmOQAep
JEBwwarBZOlrQNv50T8zEaDBsH//QKYg9UA3o5jB4nXvQCbADkEwOo/BXlD2QFq6RMD3hJLBMnvp
QLzKlMDwaYzBK5IrQd1N7j8jYEvBqBYiQdEGGUC+JmXB7VC6QC2XOcAARIXBoeLdQLglXsDp4nXB
8zgVQcNpQr6V2U3BW0EFQVIkpj8w8U/Bjr5hQHj2Y0AIkpPB6YvHQJVHVkBRyZ7BTO+dQNhD2D/E
s43BsMFaQOhEokDHf4XBcnlWQOcXwkDe2I/BiphiQGCIh0BGb6XBXPKlQCGUJkH5vK/BkZ62QC+Z
MUHN1KbBRfKoQDIbEEFOSbDBWyPKQJ4qJkGicp7By7a8QIWkBEH176fBzg3bQG1Ylj/rbqvBrw2s
QM7Z975+MqPB4t7vQPFRlr9pKKvBS03NQN6sD0F4957BJZe0QEFdWj/KF6bBm534QHGmJj7D9a3B
mJPJQKSgv78dyqXB6y7DQInIvUCc8ZPBGAsDQR+4ZL/LWGzBIOngQKPc9D/Vc47B3rafQCpr+0AF
34rBGe3jQPIo8r6++YfBtfcIQQsSoT8pOn/B4GmMQP1M2kAcSYPBWNmhQPhVnkCc7Y7BtczmQOqc
gT+PyITBAb8LQU09csCYT4jBZshBQeXMhD/lVFXBK4qVQE0L+j/uEKPBvFXiQKqlA0Eb2pXBC7vm
QNYAZMCmKYjBWNUwQXQm+T47fGTBgf3XQEvrLMC1Gn3BJoIaQVGMXj9PTFzBuIGMQHdAgEDjN5fB
dv2qQFqUOUBcAZvBP9vDQMsL6UBl6pDB4SDrQAwhq78zDX3BW6oKQcTT3T6UDWzB+Fi3QE2WB0DY
rJHBsJJ8QD2ktUCVtYnBVVjfQMPJr0Cvz5nBxWsHQb9F0r+1bV3Bgzb/QG7QHkDJwpLBRgl7QFyv
mEAQFaDB8ZUOQfwe8z4hLbPBVCXBQLHvMcCgIaPBs9qWQKVcL0G1JrbBV2u0QEnTQkH9b6bBdhac
QISsB0G8G7fBRbjWQFWhLkFxmpfBLTW/QJnc5kBHYqjB+MbhQIvCDECclK3Bt+aOQAv/Or8D/57B
VkIDQWvj+b/LH63BifeGQHsQA0EIh5DB7yyrQEV2C0HAL4bB8vvDQNp8Lb9mSovBcGP8QJv7ML+t
Do7B0coVQTjMfT/QP4XBuWoKQTh7FEDV2nrB7qKkQOXqz0Bz53rBIOVhQHlC6EAyD37BSmiyQFiH
ikA78ojBN2/NQHZdnT8O3n3B3BMQQSDOjMD6Ro/BKO4TQe0MNMCH04jBNqYQQZSbicDC7oDBP8dR
Qd1CQz87NlvBMm1AQYiGCEAgk1TBNWA/QcFJHT/QQ0XBh3CMQJ4iIUD2RKrBepFxQJ5WwT/fbp/B
OwH+QIxn9UC18pjBqy3tQK4oD0G+xY/B2lfdQF9+Q8Bom4/B98fWQE1UkcCitofBpT4zQYDkaD8d
jXTBqTEyQd/rG7/NPWXBPPO0QJ2uJsC5t33BOUfhQK2tTcD1O27BnXMXQcxHvz4O40zBqIYZQWzc
+j9tNlrBtTNiQB6YYUC/RZPBB1bHQBLVVkAcup7B+QmgQJsI2j+SUI3B0mBdQElHoUAV7YTBQNhU
QIlDwEA0ZI/BF+hgQMEuhkDBJqXBLrupQO8TKEHQP6/B7CC6QGecMkFJKqbBQP6rQLOaEUGl/6/B
vLfMQHWyJkF70Z3BgMq+QDunBUFVrafBoP7YQKLngj+0u6rBvKykQFx1/r5wyKLBMmvnQBS8r78/
GKrBvTPPQBQ1EEEQi57BbgexQPb/Tj8lvaXB9Cb0QHRVib1s5KzBo9S/QO4Fy799+KTB09zCQJtO
vkAG25PBrHEBQR4ucb9TzG3B8DTgQNQcAUA5NY7B9ayfQFVF/EAL0orBUoHeQNBYt76m/4fBFIEK
QTcwlj/5nYDBoseKQAI220CZfIPBLL6gQIpDn0AWC4/BrxrnQDVLjD/csITBV1bBQByylcD/pIjB
ao8wQd3i7T9bpUXBZyaUQHHa/T9KKqPBqk3jQGmuA0FidpXB5/TfQBx6X8CoK4fBwLQbQerNwD8z
GFHBgczMQFDRIcAmpX3BZI0gQZyG6z6VOmLBo+OLQJBTgUB6bpfBmDqqQIQ3O0C2J5vBU//DQB10
6UASupDB+KnjQBCGnr8cS33BQKQNQZhAcT6zfm/BQa22QHbcCUDYwJHBtcJ5QGAWt0C9HYrBBxff
QE4VsED4qpnBi+oDQTlx179VV17BJ+T9QEbqKECsSpLB5xx7QAbpmUCHVaDBjUUNQaSqED6fmLHB
4yO0QLpqNcB/BqLBnWqbQJQ7MUHPpLXBQW64QIPVQ0GTm6XBj1CfQEuLCUHu87bBJxzZQHbKLkFy
15bBNazAQCTh6EA5RajBG7fiQEp8AUBi5azBcV+GQIotKb8p157BtQP8QImBDcD/4KvBgcSHQAv4
A0FHlZDBX1KrQDeYC0Fp9IXByKq9QGk/5L7XFovBJFT1QJCEJ7/MQ47BwooVQYcBaz/vKIfB3NAN
QZGKDECkqHvBWwSiQF8p0ECS9nrBbgVeQId/6UBI2n7B/WmwQJFli0AK7YjBbwTRQBcgsD8jbnzB
aKrOQJr1q8A8l47BCk29QENkpsCh9oDBfReiQNzvicASb4vBSV8tQZksJ0BZOjnBkUA3QcJAdD+H
MD7BRBM8QazOEECzR1HBvBKNQIdFIkA2karBcEVsQHpBzj/2qJ/BXr3+QM0X9UC/jJjBk1buQDjk
DkHAQ4/Bezj/QGPHdsCoXYTB7QLkQJXePcAa1o7BgCcQQamrjD90hkXBM/oUQVEUGkCgnVjBi/2q
QPEzFsC+y4DBUwjPQKV8P8A7uW3B68YtQf7BUD+tWmzBES4lQVvX976weFrBMUNgQOAKZEDdmpPB
147GQA/yV0Ct8p7BuZSfQFnt2D9wnI3BM1RYQI7jokCNh4XBVDdUQLJMwkAO9Y/BU41hQIuCh0Cl
eKXBqx6pQIwzJ0Hata/B6/SuQIvuEEFbv7DB/0O2QIXAMUFNTqbBSCDCQHQ1BUEHZajBM0bJQOQP
JkEk8J3BccHXQIoAkz+QPavBYIqnQJYU9L5cAqPB99rqQPJzm7/U86rB/nfPQNjLD0EX+J7Blh6x
QIqNWj8o4aXBcp/0QBRa7j09va3BM1fEQBRFwb9FlKXB/NTCQE0TvkD86JPB1icBQVOSeL8UdW3B
Xw3gQGoLAEDeBo7BSdifQKe7/EB3JovB2nzcQJqKtr72kofBxcUKQaw2jz+eqYDBNhqLQNxO3EDJ
nIPBf7SgQMNxn0AJ647BHRznQLJ+iz+Mb4TBLmW+QLVplcAfOIjBheYvQRxi9D9Z6EXBqAqTQP6W
/D8Px6LBfY/jQENzA0GU1ZXBMnLdQKCqX8AwuYbBwB8bQeIRvj8g5VDB2KDKQDdhIcDYynzBQF4g
QWwm2j7LwmHB9nmLQIVPgUB8LpfBV4apQK2xOkDI2prBNhLEQMhv6UBo/pDB/QriQHDmnr80inzB
2LcNQQ4QQz79Y2/B0FS2QKejCUDUcZHBzQd6QKaft0B8BIrBX/veQI9er0Cpq5nBe74DQfoi3L8+
Hl7BcNn9QGHjJUCeV5LBvZJ6QAC7mUAbIqDB0dsMQcJCzz69zbLBmT+7QH0qMsA2xaLBro6aQFwv
MEFtIbbBK7ykQIvaCEHx8bfB9sCxQMvPQkHahKXB55/GQMpM6EDcMKnBwSPTQNYmLkFytpbBdSPf
QGu6CkBjbK3BRiOKQNzbM7/2157BTHIAQdmNAMBO76zBs9KHQC/wA0Gu8pDBwo6rQBEKDEEycobB
cyK7QKQu0r6OWorBZgbyQCXlLb+6CY7BaE4VQTqLUj82TYfBU+AOQarRCEDUHXzBrXqiQLbD0UA2
K3vBaOFeQCj26kAgLX/BknWwQOTLi0AZxYjBGAzSQL+Psz94sHvByojLQP3Yq8DPJo7BSA26QE0L
psAwioDBMVWfQCxIicBfCYvBm2IsQUj7KkBqtznBBFI3QWpvhD/dOz7BG/M6QRTnFECP3lHB/saJ
QJpTIkBf+anBZpNsQM9ixj9W/57B99f+QH5O9ECj4pjBis/uQIDGDkGkto/BWIb8QAHAd8Cv5IPB
Qc7hQL85PsDfY47BewsQQfJIiD+P/ETBkawTQdjTFkBBn1jBseSoQAT7FMCdX4DB1q7MQAjgPsA4
2GzBxsotQZivRj+Hq2vBddskQX8aA79tvlnBPFBfQJ67ZEBXS5PBH8fFQDfwVkAXvZ7BCFGfQH4b
2j/hL43BgxBZQHDHo0CySIXBCfRTQOlRwkB73Y/BuHpgQAZIh0CiN6XBbbCqQH8oKEHJr67Bzcqw
QGnyEUEb6K/B2ke3QJFlMkEeJqXBG7fDQJv6BUH1m6fBN/7JQG5zJkH/05zBw6XZQAk3hj8yAKvB
A0SkQA/b7L5tZ6PB8IrnQHvOrL9qVKrBCILQQAg/EEFiDJ7B9yaxQDCzVz/xQqbBurz0QHT5Pb1X
C63B2Xu/QL1Ex782bqXBJiLDQClOvkBwwJPBmbv9QJE3lb8DY3HBQZbcQLS/+j/9dI7BjCmgQEvu
+0D2h4rB0+DfQNXY+b6Hg4rBmOAEQSNSjz/ALn/ByJeKQBCM2kA0aoPBTVOgQIpRn0ChOY/BIXzg
QHLfbT8SqYXBn8+UQN7HTMDaVYbB35k5QTxGZj9F91HBaE2UQL/NAUBa3KPBUEHkQLKWA0GO+JTB
kqe+QMxsacCO54DB0qEqQbz5pz4W5WLB3ivmQNNNPMD7uoXBxkcTQXSnAz9Gu1vBzX2LQCtWgkCo
2JfBFJypQCgTPUCwmZvB+5fEQCAy6UCdaZDBJ+vpQIqZwr8NcYLB4TQFQRZDKT5tlG3Bo/CzQOI3
CkCrQJLBoBp5QCUht0DJQorBubDfQKoasEBYd5nBjSICQVt4AcCduWPBLc77QHlFI0A+G5LBveV7
QHWrm0AyraDB/70NQTayHj5llLHBR3CzQOh5M8DyjaLBJFmcQMtWMUF0EbXBWvamQCsaCkHHM7fB
WpKyQEhqQ0EhOaTBYnPIQGzu6UDVjKjBhmHTQMFLLkEPf5XBb9fjQJcQA0BWD63BvYiFQO9OH7/g
qZ/BsCX8QJdADMBbAazBBaeIQPIfBEGyT5DBuNKrQOUvC0HfgYXBK92/QAF9L78s0I3BBcD3QIpC
Cr+q95DBepESQfxRcD+p7YTBwbkFQXlKCUAa33jBv3ShQMC/zkBq0XrBK6ddQO/U6ECXtH7BUm+v
QBqxikBNLYnBJlHFQBA0hD9zIIDBYDBzQB9kbsB/qYLBLsGQQC1VB8BOT4XB6DCWQO4iXMCi6o7B
oktKQaEARD9ZHFfBCEY2QYpZ/D+J10/BFwo3QRWTvz5nt0LBGnmOQLHEJUC6SKvBZVtrQPEG1T+8
pKDBCs//QMP49EAvBJjBmQfvQEyvDkGWsY7B89a8QL8pWsDMpnDBrUbCQMB7l8C67oHBYzMtQTR+
Wj9+JHLBc/ctQVZrPr9cBGXB0YoBQeeIXsBWG4PB3dHjQEUGP8AQgY7BiOcPQds6Eb6nA07BLJkQ
Qcnvxz8CF1fBKrFeQNo0ZkCfLpTBrbHGQFpWWUDWE5/B78SbQIpA3T/dTY7BC+JWQIi/okBl0YXB
EkFUQMgGw0AdFpDBMG5iQJnIiUDg7qXB3UKqQBvvJ0HuTa/BkW66QHGDMkE6NabBaYSsQLV0EUHF
BLDBPePMQDqlJkE/053BGSG/QMSMBUGup6fBpS3ZQJVagz9nsKrB1ZqkQCU8976lt6LB45nnQEYm
r7/Uz6nBYGfPQPMmEEHShJ7BPBGxQJ6hUT/KwaXBglz0QIg9iL3iuKzBjea/QDSLyb8euaTBKNjC
QE1ovkBYz5PBBMECQd7HgL/glW/B6OPeQOSwAEC0AI7B87OfQM11/EC9z4rB/8rrQDeCyr49MIrB
bqYFQbrZqj/tinzBvneKQAN620A3hIPB3oOgQO56n0B3DI/BTvPkQIKEfT/2MYXB2QK6QEqllcB0
iYXBC7o1QTwKKz8A+mHBiEiUQNjk/z9MR6PBlnPjQJitA0HeaJXBe97CQIzrT8BXr4HB8mEkQdtN
yT8zOljB0FjwQEAfNMA82YTBO9MOQQ6xUz/1LFbBzcKLQAWngUCyeZfBOxuqQEjLO0D/KpvBahjE
QEmG6UDDqpDBlLv2QDXosr97/4HBgfIGQdXPtD5RM2vB1MS1QILdCUCcxpHBxTp5QLdlt0DgKorB
nxffQDkesEAfm5nBRcEEQRx07L/Ob2HBemH9QCjIJkDz+JHBoj17QCFMmkBAYqDBdGkNQWDgCj7N
Z7HBxla0QDlKNMBQlaHBIyCcQJ4OMUEtvLXBvKm4QKy8Q0EOq6XBQ/qfQLNbCUFL+rbB4SbZQAPH
LkFv2JbBXPnAQJOp6ECpN6jBiv/iQBiKAUDu5qzBvB6GQFJXJL/m2Z7BmEL8QLdZDcBye6vBnv2H
QPwfBEHlm5DBa1erQNSnC0Hg64XBYzfOQESINL8rRI7BQgMDQa89rL6CCZDBuVcUQcwspj96G4PB
KbEDQW0CFkA60XXBYX2hQExX0EB18HrB0EZdQHDf6UAwA3/BRPuvQEOJi0AY6ojBuw/IQFCkdj8C
LIDBamWZQDMRn8AWNoPBiBG9QIwBl8ANTI7BsDfRQFmtq8DG3oHBydREQfUbnT9dN2PBohQ4QWUQ
Wb45r1fBqawwQUnQrj5LAXLB5MiNQESAI0CxsqrBI/NrQPAL0T/h5J/Bjeb+QMYJ9UDNeJjBbXTu
QGzsDkFtOY/BgYyrQAQbJMBfWoXBqbK/QJ9yTcAx2nHB5ZYpQTgM8z/UPkjB7C4iQSzxHEDlkGLB
xe0DQQjEW8AEkYDBpp/0QHZGPMATho3BjfkQQfh2I71DjkvBYecCQUs4wT++OE/Bn9BfQHi/ZECG
r5PBpbnGQL5aWEDG157BY02eQPlu2D9/y43B/31XQDI9o0DTmoXBOP9TQNqqwkBhCJDBRc9hQPjw
h0B3iqXB

>  <OMEGA_E>  (65) 
sOfnPgDf8T5mggA/0JkAP1QZAT8eTAY/

>  <OMEGA_NBR>  (65) 
     61011

$$$$
50147875
     RDKit          3D

 85 88  0  0  1  0  0  0  0  0999 V2000
    6.2373    9.4741  -22.4034 C   0  0  0  0  0  0  0  0  0  0  0  0
    7.4653    9.2776  -21.7391 C   0  0  0  0  0  0  0  0  0  0  0  0
    5.0235    9.3382  -21.7000 C   0  0  0  0  0  0  0  0  0  0  0  0
    7.4820    8.9494  -20.3697 C   0  0  0  0  0  0  0  0  0  0  0  0
    5.0379    9.0121  -20.3306 C   0  0  0  0  0  0  0  0  0  0  0  0
    6.7890   -0.0234  -16.6874 C   0  0  0  0  0  0  0  0  0  0  0  0
    8.3966    1.5657  -15.7634 C   0  0  0  0  0  0  0  0  0  0  0  0
    8.1168   -0.6208  -14.7282 C   0  0  0  0  0  0  0  0  0  0  0  0
    6.8010    1.1920  -21.3687 C   0  0  0  0  0  0  0  0  0  0  0  0
    5.0006   -0.3147  -20.6896 C   0  0  0  0  0  0  0  0  0  0  0  0
    7.1127   -1.2237  -21.5014 C   0  0  0  0  0  0  0  0  0  0  0  0
    7.4127    1.2429  -16.7237 C   0  0  0  0  0  0  0  0  0  0  0  0
    7.1532   -0.9591  -15.6983 C   0  0  0  0  0  0  0  0  0  0  0  0
    6.2684    8.8195  -19.6624 C   0  0  0  0  0  0  0  0  0  0  0  0
    8.7547    0.6330  -14.7725 C   0  0  0  0  0  0  0  0  0  0  0  0
    5.4934    0.9924  -20.8726 C   0  0  0  0  0  0  0  0  0  0  0  0
    7.6123    0.0832  -21.6740 C   0  0  0  0  0  0  0  0  0  0  0  0
    5.8054   -1.4204  -21.0119 C   0  0  0  0  0  0  0  0  0  0  0  0
    5.9808    5.9700  -18.3567 C   0  0  0  0  0  0  0  0  0  0  0  0
    7.0368    2.2216  -17.7530 C   0  0  0  0  0  0  0  0  0  0  0  0
    6.5248   -2.2869  -15.6604 C   0  0  0  0  0  0  0  0  0  0  0  0
    4.5101    7.0878  -16.9573 C   0  0  0  0  0  0  0  0  0  0  0  0
    4.9612    4.9643  -17.7861 C   0  0  2  0  0  0  0  0  0  0  0  0
    9.7704    1.0058  -13.7168 C   0  0  0  0  0  0  0  0  0  0  0  0
    3.8388   -3.3729  -17.4647 C   0  0  0  0  0  0  0  0  0  0  0  0
    9.4744   -4.2821  -17.0305 C   0  0  0  0  0  0  0  0  0  0  0  0
    4.6272    2.1725  -20.4972 C   0  0  0  0  0  0  0  0  0  0  0  0
    6.2800    8.4683  -18.1932 C   0  0  0  0  0  0  0  0  0  0  0  0
    4.8191   -4.5384  -17.6910 C   0  0  0  0  0  0  0  0  0  0  0  0
    8.5461   -4.0202  -18.2311 C   0  0  0  0  0  0  0  0  0  0  0  0
    5.9633   -4.5225  -16.6625 C   0  0  0  0  0  0  0  0  0  0  0  0
    7.5237   -2.9178  -17.9042 C   0  0  0  0  0  0  0  0  0  0  0  0
    4.3124    4.0572  -18.8494 C   0  0  2  0  0  0  0  0  0  0  0  0
    5.3067    3.0262  -19.4097 C   0  0  1  0  0  0  0  0  0  0  0  0
    5.5338    7.2302  -17.9832 N   0  0  0  0  0  0  0  0  0  0  0  0
    5.7709    2.1511  -18.3218 N   0  0  0  0  0  0  0  0  0  0  0  0
    6.7069   -3.2320  -16.6942 N   0  0  0  0  0  0  0  0  0  0  0  0
    3.8953    5.7888  -17.2053 N   0  0  0  0  0  0  0  0  0  0  0  0
    6.9561    5.7333  -19.0608 O   0  0  0  0  0  0  0  0  0  0  0  0
    7.8347    3.0904  -18.0870 O   0  0  0  0  0  0  0  0  0  0  0  0
    5.8775   -2.5699  -14.6582 O   0  0  0  0  0  0  0  0  0  0  0  0
    3.7889    4.8584  -19.9101 O   0  0  0  0  0  0  0  0  0  0  0  0
    8.8720    0.2730  -22.1275 F   0  0  0  0  0  0  0  0  0  0  0  0
    5.3249   -2.6713  -20.8371 F   0  0  0  0  0  0  0  0  0  0  0  0
    6.2267    9.7293  -23.4527 H   0  0  0  0  0  0  0  0  0  0  0  0
    8.3941    9.3788  -22.2810 H   0  0  0  0  0  0  0  0  0  0  0  0
    4.0833    9.4840  -22.2111 H   0  0  0  0  0  0  0  0  0  0  0  0
    8.4228    8.7974  -19.8615 H   0  0  0  0  0  0  0  0  0  0  0  0
    4.1084    8.9090  -19.7904 H   0  0  0  0  0  0  0  0  0  0  0  0
    6.0335   -0.2748  -17.4169 H   0  0  0  0  0  0  0  0  0  0  0  0
    8.8763    2.5329  -15.7897 H   0  0  0  0  0  0  0  0  0  0  0  0
    8.3667   -1.3252  -13.9486 H   0  0  0  0  0  0  0  0  0  0  0  0
    7.1774    2.1938  -21.5136 H   0  0  0  0  0  0  0  0  0  0  0  0
    4.0043   -0.4668  -20.3017 H   0  0  0  0  0  0  0  0  0  0  0  0
    7.7317   -2.0747  -21.7443 H   0  0  0  0  0  0  0  0  0  0  0  0
    4.9626    7.1149  -15.9550 H   0  0  0  0  0  0  0  0  0  0  0  0
    3.7632    7.8906  -17.0442 H   0  0  0  0  0  0  0  0  0  0  0  0
    5.4415    4.3462  -17.0133 H   0  0  0  0  0  0  0  0  0  0  0  0
    9.2582    1.4756  -12.8642 H   0  0  0  0  0  0  0  0  0  0  0  0
   10.2942    0.1005  -13.3762 H   0  0  0  0  0  0  0  0  0  0  0  0
   10.4983    1.7125  -14.1418 H   0  0  0  0  0  0  0  0  0  0  0  0
    3.0367   -3.4166  -18.2161 H   0  0  0  0  0  0  0  0  0  0  0  0
    3.4025   -3.4512  -16.4579 H   0  0  0  0  0  0  0  0  0  0  0  0
    4.3769   -2.4181  -17.5579 H   0  0  0  0  0  0  0  0  0  0  0  0
   10.1945   -5.0725  -17.2887 H   0  0  0  0  0  0  0  0  0  0  0  0
   10.0176   -3.3593  -16.7790 H   0  0  0  0  0  0  0  0  0  0  0  0
    8.8741   -4.6015  -16.1658 H   0  0  0  0  0  0  0  0  0  0  0  0
    4.4573    2.7933  -21.3893 H   0  0  0  0  0  0  0  0  0  0  0  0
    3.6625    1.8052  -20.1170 H   0  0  0  0  0  0  0  0  0  0  0  0
    7.3185    8.3323  -17.8569 H   0  0  0  0  0  0  0  0  0  0  0  0
    5.8118    9.2808  -17.6182 H   0  0  0  0  0  0  0  0  0  0  0  0
    4.2715   -5.4882  -17.6014 H   0  0  0  0  0  0  0  0  0  0  0  0
    5.2458   -4.4551  -18.7014 H   0  0  0  0  0  0  0  0  0  0  0  0
    9.1523   -3.7051  -19.0931 H   0  0  0  0  0  0  0  0  0  0  0  0
    8.0088   -4.9473  -18.4799 H   0  0  0  0  0  0  0  0  0  0  0  0
    5.5421   -4.6679  -15.6568 H   0  0  0  0  0  0  0  0  0  0  0  0
    6.6602   -5.3424  -16.8903 H   0  0  0  0  0  0  0  0  0  0  0  0
    8.0650   -1.9763  -17.7290 H   0  0  0  0  0  0  0  0  0  0  0  0
    6.8481   -2.7978  -18.7638 H   0  0  0  0  0  0  0  0  0  0  0  0
    3.4901    3.5074  -18.3682 H   0  0  0  0  0  0  0  0  0  0  0  0
    6.1615    3.5573  -19.8539 H   0  0  0  0  0  0  0  0  0  0  0  0
    5.1363    1.4630  -17.9700 H   0  0  0  0  0  0  0  0  0  0  0  0
    3.5673    5.3870  -16.3504 H   0  0  0  0  0  0  0  0  0  0  0  0
    3.1326    5.8783  -17.8458 H   0  0  0  0  0  0  0  0  0  0  0  0
    3.3895    4.2970  -20.5642 H   0  0  0  0  0  0  0  0  0  0  0  0
  1  2  2  0
  1  3  1  0
  2  4  1  0
  3  5  2  0
  4 14  2  0
  5 14  1  0
  6 12  2  0
  6 13  1  0
  7 12  1  0
  7 15  2  0
  8 13  2  0
  8 15  1  0
  9 16  2  0
  9 17  1  0
 10 16  1  0
 10 18  2  0
 11 17  2  0
 11 18  1  0
 12 20  1  0
 13 21  1  0
 14 28  1  0
 15 24  1  0
 16 27  1  0
 17 43  1  0
 18 44  1  0
 19 23  1  0
 19 35  1  0
 19 39  2  0
 20 36  1  0
 20 40  2  0
 21 37  1  0
 21 41  2  0
 22 35  1  0
 22 38  1  0
 23 33  1  0
 23 38  1  0
 25 29  1  0
 26 30  1  0
 27 34  1  0
 28 35  1  0
 29 31  1  0
 30 32  1  0
 31 37  1  0
 32 37  1  0
 33 34  1  0
 33 42  1  0
 34 36  1  0
  1 45  1  0
  2 46  1  0
  3 47  1  0
  4 48  1  0
  5 49  1  0
  6 50  1  0
  7 51  1  0
  8 52  1  0
  9 53  1  0
 10 54  1  0
 11 55  1  0
 22 56  1  0
 22 57  1  0
 23 58  1  1
 24 59  1  0
 24 60  1  0
 24 61  1  0
 25 62  1  0
 25 63  1  0
 25 64  1  0
 26 65  1  0
 26 66  1  0
 26 67  1  0
 27 68  1  0
 27 69  1  0
 28 70  1  0
 28 71  1  0
 29 72  1  0
 29 73  1  0
 30 74  1  0
 30 75  1  0
 31 76  1  0
 31 77  1  0
 32 78  1  0
 32 79  1  0
 33 80  1  1
 34 81  1  6
 36 82  1  0
 38 83  1  0
 38 84  1  0
 42 85  1  0
M  CHG  1  38   1
M  END
>  <OMEGA_C>  (66) 
2ZfHQAKWF0EXOrPBAeTuQOtwFEG16a3BHsCgQBZpFUGuma3BPWzvQMEwD0ES9aLBTDahQGkxEEEJ
paLB2j/ZQFrHv7y2f4XBSFgGQR9pyD/0NnzBdN4BQSTtHr+hpmvBeqHZQGeTmD8y86rBNgWgQKkh
ob5khKXB2ZrjQNqinL/RAqzB+TTtQLwVnz87yoXBKefkQFuFdb8+LHvBdpbIQIocDUGsTJ3BLRMM
QewMIj8pXGzBy8mvQP4Ofj8k+6bBTpjzQGVVqj1HZK3B2MW5QNvPtb9cGKjB62K/QKIKv0Bt2pLB
Hy3hQLcuDkAVBo7B98rQQNlcEsAlkXrBG1OQQPzO4kCBqIfB38GeQIjbnkDsSY7BgVMcQRu+gD/3
d1vB5651QBTeV8Cpt4vBB5cXQVwHicBePojBqBGUQFgKC0BX+qPBDfbIQFN+B0HGi5HBzDWaQJ06
kcA3h43BrrwIQdKlgMAz2ZHBQtO+QAO4kMDmTIXBhsLwQGy8OsCzO4/BWf+JQH/UgUCly5bBUNCp
QNatQUAdR5vB1BSxQN5d50CP3Y/Bhau4QGyrCUABk5LBO5/WQNPYTsCfjYXBT015QA0+uUCBpInB
r5jeQFF3t0CVfJjBHrb6QIHJRUAvspDBPRS8QMx5JMD7h2rB4HxyQFV4m0DeR5/BuPMNQVXBiz4z
BbHBQ2WqQLr2KsB3sqbBPUHHQBOrG0E2n7vBFk4GQWYPFkFzP7LBQKqCQFy+F0FnsLHBoMMGQSnC
DEFr5J7B1neDQGqLDkG1Up7BFhLBQBuwjL7pVYvBUgUOQdYbIkB1onzBI94FQVCfqb9QLV/BWK3l
QAVoDEDaG6zBCiOAQKwB777LaaLBOmr3QK/HBMBT9K3B7M2eQNys40DER3/BpddwQG1//EBtWojB
+SCuQF0Ui0AvG4jBtiEUQTDhvD+g003B4rQkQau9zT3SBFbBFvknQewz2z/8RGLBBFlCQBSpWsCq
upHBHsNZQBrgXMDVqYPBRw+MQFzBGsChdozBrhwjQVNSosA1T4rBA0ggQX3+VsBWO4bBKPwNQTg/
k8CDU4HB/qGOQBXGMkA0HavBtWZqQD8S5z+T76DB7TDqQPxQBUHs2o7Bnvq5QE1+FEEi8ozBDrCI
QHGfr8C/z4zBxt2nQBKQjsCLnJXB/W8SQaggbcCsvpjBIiQAQU1QnsDa1pPBJ1mxQJBflcBfgnrB
vCDVQE71qsBgH4fBCgoBQcP1/L8E1Y3BQyPbQGgPM8BVHJbBSF5fQKp5YEAO8pLBnirFQFerY0DM
1J7BLlykQKlEuz+Lwo/BW09kQOxhrECYzYLBX3xIQPQavEAxxI7BT+5YQGyBiUCEg6TB41PDQPCK
GEEUYLPBOirrQEOJFUFqTK7Bkw2dQCYDFkHQi63B5czsQHQOEEHmYKPBe52eQCOOEEHBoKLBGXbd
QOQz2r1/H4XBGWUIQSsVxj/pU33B210FQbLcGb9nTWvB0QDaQKSbmz81HqvBgjuhQPUWn77yeqXB
ZB3lQNsPmb8g/avBU5HwQBlBlj/vAYbBJ6jqQLcsfb8Hx3nBfIbGQJ+WDUFyhp3Bg60OQXWKLD/w
3WzBGWGwQAIngD81EafB3G/0QLz/7j0QgK3B1Hi7QBsttL8jAKjBJ9C/QD86v0B46JLBZ9XiQAJM
CUBOPo7BIznTQAIMD8Bux3XBwsiPQFwH40Cp7YfB+fafQHSankBALo7BjLgfQbi0jD/0Il3Bzj9r
QAnaicCz74/By4sXQU36ccAbepbB3KCUQFr4CkCU6qPB/hDIQGS5B0Fa0ZHBaWGXQKPeWcBB8YrB
ZLQCQW3OUcAOiJHBVzC2QGiQh8CL7oPBSEQCQRrmasAErIXBRwSLQKlLgUCumJbBDI6qQPvuP0D9
FZvB/72wQFOB50BoFpDB2qe5QBAgBkDWeZLBlqXaQNUZWcAf3IDBMDR7QHR0uEDrcYnBVQ/fQPXN
t0DTipjBUHj7QJh+QkAN7pDB0XW1QDOzDMBpBWnBKZ90QBv6mkBUGZ/BsEwOQbj1pD6gK7HBmLqs
QCSDKsC3hKbBZSPCQLPKHEGovrvBWDkEQeJvF0GkybLBAh19QBVCGEHqc7HBfqgFQTO/DUGjfZ/B
6E6BQLiiDkGIJp7Bk+zEQP1V0b7DtIrBBfYPQeLqIEBxw37BhIsKQftTpL+09F7B6ITlQG0uDkBv
YqzBG3qBQPJe8r43VKLBBU35QLSJAsBm463BuuCdQLbg5UDFyn/Bt/dtQNao+0Dn94jBf/yvQLEZ
i0D9C4jB7ioYQfr8yz/4WE/B+5soQc+JWz6YoVfBic0qQRJR5j84+mTBPss/QNcfbcB055TB61uF
QNMnosD28JTBqndGQEm9mcAHkonB6AwYQfhZYMAy/p7BkzQlQd7AVMCtTJLBymYYQWkCnMALs5XB
mTiPQKHTM0BA9KrBenxrQCsp5j+w7qDB35PpQMapBUFqVI/BWEG5QEaOFEE6EY3Btq2pQPQZOsBY
U5HBn42HQOBEKcBo9IXB89ABQfjAC8CBSJLBUwbqQOwEb8DfrpXBW1ylQHOVksCha3nBM7LBQKVm
o8A1fIjBALMFQUbal8BK84TBDpYOQa8sRsAoYYHBhkhhQDr0X0ARspLBwhDGQJK+YUDvlp7BRkCl
QLhdtT/lj4/BDgRpQCwXrEDfbILBzuFIQLvDuUCLYI7BvbZaQPAIiUBKT6TB

>  <OMEGA_E>  (66) 
gMzXPJRSmj4=

>  <OMEGA_NBR>  (66) 
      2973

$$$$
50147883
     RDKit          3D

 70 73  0  0  1  0  0  0  0  0999 V2000
    5.4984    9.4501  -22.4985 C   0  0  0  0  0  0  0  0  0  0  0  0
    6.8306    9.2281  -22.0942 C   0  0  0  0  0  0  0  0  0  0  0  0
    4.4520    9.3689  -21.5581 C   0  0  0  0  0  0  0  0  0  0  0  0
    7.1175    8.9205  -20.7499 C   0  0  0  0  0  0  0  0  0  0  0  0
    4.7369    9.0664  -20.2134 C   0  0  0  0  0  0  0  0  0  0  0  0
    6.7612    1.2450  -21.3649 C   0  0  0  0  0  0  0  0  0  0  0  0
    5.2639   -0.3685  -20.3039 C   0  0  0  0  0  0  0  0  0  0  0  0
    7.3272   -1.1258  -21.3619 C   0  0  0  0  0  0  0  0  0  0  0  0
    6.0707    8.8396  -19.8070 C   0  0  0  0  0  0  0  0  0  0  0  0
    5.5757    0.9599  -20.6588 C   0  0  0  0  0  0  0  0  0  0  0  0
    7.6369    0.2035  -21.7143 C   0  0  0  0  0  0  0  0  0  0  0  0
    6.1420   -1.4107  -20.6535 C   0  0  0  0  0  0  0  0  0  0  0  0
    6.5131   -1.1896  -15.5400 C   0  0  0  0  0  0  0  0  0  0  0  0
    6.0519    5.9886  -18.3425 C   0  0  0  0  0  0  0  0  0  0  0  0
    7.0017    1.9194  -17.5484 C   0  0  0  0  0  0  0  0  0  0  0  0
    6.0332   -0.1165  -16.4795 C   0  0  0  0  0  0  0  0  0  0  0  0
    8.3397    0.2047  -16.0945 C   0  0  0  0  0  0  0  0  0  0  0  0
    4.5318    7.2324  -17.0759 C   0  0  0  0  0  0  0  0  0  0  0  0
    5.0106    5.0408  -17.7285 C   0  0  2  0  0  0  0  0  0  0  0  0
    7.0566    0.9936  -16.3195 C   0  0  1  0  0  0  0  0  0  0  0  0
    9.4982   -4.1503  -17.0274 C   0  0  0  0  0  0  0  0  0  0  0  0
    4.6712    2.0864  -20.2404 C   0  0  0  0  0  0  0  0  0  0  0  0
    6.3699    8.4962  -18.3673 C   0  0  0  0  0  0  0  0  0  0  0  0
    8.5112   -2.9933  -16.8715 C   0  0  0  0  0  0  0  0  0  0  0  0
    8.7372   -2.2699  -15.5160 C   0  0  0  0  0  0  0  0  0  0  0  0
    4.3827    4.0842  -18.7540 C   0  0  2  0  0  0  0  0  0  0  0  0
    5.3721    2.9938  -19.2051 C   0  0  1  0  0  0  0  0  0  0  0  0
    7.9048   -1.0658  -15.4508 N   0  0  0  0  0  0  0  0  0  0  0  0
    5.6591    7.2734  -18.0024 N   0  0  0  0  0  0  0  0  0  0  0  0
    5.7248    2.2047  -18.0237 N   0  0  0  0  0  0  0  0  0  0  0  0
    3.9371    5.9065  -17.2239 N   0  0  0  0  0  0  0  0  0  0  0  0
    5.8493   -2.1724  -15.2311 O   0  0  0  0  0  0  0  0  0  0  0  0
    7.0047    5.6917  -19.0548 O   0  0  0  0  0  0  0  0  0  0  0  0
    8.0107    2.4384  -18.0160 O   0  0  0  0  0  0  0  0  0  0  0  0
    3.9071    4.8291  -19.8767 O   0  0  0  0  0  0  0  0  0  0  0  0
    8.7820    0.4839  -22.3751 F   0  0  0  0  0  0  0  0  0  0  0  0
    5.8594   -2.6810  -20.2879 F   0  0  0  0  0  0  0  0  0  0  0  0
    5.2795    9.6825  -23.5302 H   0  0  0  0  0  0  0  0  0  0  0  0
    7.6316    9.2941  -22.8156 H   0  0  0  0  0  0  0  0  0  0  0  0
    3.4318    9.5389  -21.8691 H   0  0  0  0  0  0  0  0  0  0  0  0
    8.1377    8.7466  -20.4411 H   0  0  0  0  0  0  0  0  0  0  0  0
    3.9355    9.0076  -19.4919 H   0  0  0  0  0  0  0  0  0  0  0  0
    6.9965    2.2633  -21.6372 H   0  0  0  0  0  0  0  0  0  0  0  0
    4.3534   -0.5855  -19.7651 H   0  0  0  0  0  0  0  0  0  0  0  0
    7.9984   -1.9267  -21.6348 H   0  0  0  0  0  0  0  0  0  0  0  0
    6.0135   -0.4841  -17.5161 H   0  0  0  0  0  0  0  0  0  0  0  0
    5.0296    0.2325  -16.1950 H   0  0  0  0  0  0  0  0  0  0  0  0
    8.8409    0.0007  -17.0522 H   0  0  0  0  0  0  0  0  0  0  0  0
    9.0229    0.7584  -15.4338 H   0  0  0  0  0  0  0  0  0  0  0  0
    4.8801    7.3820  -16.0433 H   0  0  0  0  0  0  0  0  0  0  0  0
    3.7982    8.0110  -17.3319 H   0  0  0  0  0  0  0  0  0  0  0  0
    5.4661    4.4646  -16.9097 H   0  0  0  0  0  0  0  0  0  0  0  0
    6.8246    1.5779  -15.4169 H   0  0  0  0  0  0  0  0  0  0  0  0
    9.3262   -4.6524  -17.9908 H   0  0  0  0  0  0  0  0  0  0  0  0
   10.5267   -3.7615  -16.9951 H   0  0  0  0  0  0  0  0  0  0  0  0
    9.3523   -4.8695  -16.2080 H   0  0  0  0  0  0  0  0  0  0  0  0
    4.4069    2.6847  -21.1248 H   0  0  0  0  0  0  0  0  0  0  0  0
    3.7568    1.6685  -19.7939 H   0  0  0  0  0  0  0  0  0  0  0  0
    7.4520    8.3424  -18.2439 H   0  0  0  0  0  0  0  0  0  0  0  0
    6.0402    9.3201  -17.7173 H   0  0  0  0  0  0  0  0  0  0  0  0
    8.6586   -2.2776  -17.6936 H   0  0  0  0  0  0  0  0  0  0  0  0
    7.4841   -3.3856  -16.9065 H   0  0  0  0  0  0  0  0  0  0  0  0
    8.4664   -2.9461  -14.6917 H   0  0  0  0  0  0  0  0  0  0  0  0
    9.7963   -1.9870  -15.4252 H   0  0  0  0  0  0  0  0  0  0  0  0
    3.5325    3.5833  -18.2679 H   0  0  0  0  0  0  0  0  0  0  0  0
    6.2638    3.4563  -19.6536 H   0  0  0  0  0  0  0  0  0  0  0  0
    4.9619    1.8278  -17.4985 H   0  0  0  0  0  0  0  0  0  0  0  0
    3.6065    5.5726  -16.3411 H   0  0  0  0  0  0  0  0  0  0  0  0
    3.1784    5.9357  -17.8746 H   0  0  0  0  0  0  0  0  0  0  0  0
    3.5193    4.2361  -20.5095 H   0  0  0  0  0  0  0  0  0  0  0  0
  1  2  2  0
  1  3  1  0
  2  4  1  0
  3  5  2  0
  4  9  2  0
  5  9  1  0
  6 10  2  0
  6 11  1  0
  7 10  1  0
  7 12  2  0
  8 11  2  0
  8 12  1  0
  9 23  1  0
 10 22  1  0
 11 36  1  0
 12 37  1  0
 13 16  1  0
 13 28  1  0
 13 32  2  0
 14 19  1  0
 14 29  1  0
 14 33  2  0
 15 20  1  0
 15 30  1  0
 15 34  2  0
 16 20  1  0
 17 20  1  0
 17 28  1  0
 18 29  1  0
 18 31  1  0
 19 26  1  0
 19 31  1  0
 21 24  1  0
 22 27  1  0
 23 29  1  0
 24 25  1  0
 25 28  1  0
 26 27  1  0
 26 35  1  0
 27 30  1  0
  1 38  1  0
  2 39  1  0
  3 40  1  0
  4 41  1  0
  5 42  1  0
  6 43  1  0
  7 44  1  0
  8 45  1  0
 16 46  1  0
 16 47  1  0
 17 48  1  0
 17 49  1  0
 18 50  1  0
 18 51  1  0
 19 52  1  1
 20 53  1  1
 21 54  1  0
 21 55  1  0
 21 56  1  0
 22 57  1  0
 22 58  1  0
 23 59  1  0
 23 60  1  0
 24 61  1  0
 24 62  1  0
 25 63  1  0
 25 64  1  0
 26 65  1  1
 27 66  1  6
 30 67  1  0
 31 68  1  0
 31 69  1  0
 35 70  1  0
M  CHG  1  31   1
M  END
>  <OMEGA_C>  (67) 
/PKvQHYzF0Ht/LPB4ZPaQH6mE0HiwLDBf3aOQDbnFUEBd6zBT8LjQDK6DkHI/6XB9JSXQAEQEUEV
taHB4VvYQLZdnz8/66rB3HGoQCKsvL5vbqLBvnjqQDAbkL815arBUEPCQO1uDUHMdJ7B3GuyQBK6
dT8zRaXBu2H0QNRiUD7wtq3BpIvEQM6QtL9rOqXBHWvQQNZFmL/Lo3jBNKnBQH2iv0BxvZLBxw3g
QDKu9T83Y4zBPhDBQNiT7r391YPBgm8FQaSSUT6JwYDBsQSRQKpv50CKm4jBF1egQGhOoUD8043B
jM/hQGdafj9YjoLB1PgXQQHPhMAHOIjBH3qVQByHBUBj7KHB39XLQGDwB0El8JLB+i0IQQCTP8DB
+IbBqssLQYxGEcBtQXjBBz+MQGOxgkA9CJbBieirQOiaP0AOpJnBOPT8QP5qiL9mNnfBnxe1QNq/
6EDbBJDBkTG3QAwaDUCRMJDBLvp7QLwBvUB8yonBLS27QD8JC8CKsnPBUCbgQIUitkAucJjBASwA
QQAPHEC/IJDBIA56QOCHmkBqA5/BD4MMQYi89z4hALPBKIC7QCmVK8CnTaLB+/GoQKTrGkHlPbzB
CDb0QJa0FEFChrbBIKJbQC+fGEH4867B6jMCQRPyC0Fdh6PBvt57QEcfEEFk75vBZOPfQFXaEEDp
GK3B/U6LQC/kFb8DH57BMfP/QLKe9r8ZFK3BSm7AQBra977kIIzBkPKgQNEbbj5jj4HBN3QNQRcp
Ozr6aojB+F0QQVcpQj/N8HbBuCmcQIQ57EC5WIDBxBVzQBwtAEHTp4rBq+quQDnejkD+RofB1GLa
QNz3yT+Aq3bBNTgVQW3glMA37Y/BjW0oQRy8cMAM9ofBEaMVQRXTm8DwqYHBbwWNQOPSK0CX/6jB
329wQDeR1T/qWZ7BG3fuQFl6BUF385HBDknBQEkfFUEXvY3Bf4kKQYnDEcCHjI3BBX7vQJitWMBq
QIfBZXYHQWOMPMAIEWvByr0cQSNW/r/KzXbBHBRiQGlVZUCoJJLBxHDIQHgzXUCTOp3BgseeQNf2
6T/d/IvBC9FmQN5SskCjuoLBGGtLQDzxvUA2/47BejxhQOWNh0BoE6TBsAnBQFHbFkEkD7XBw6zo
QJLKFEE4xa/B6oaaQGpEFEFZVa/Bc97pQJc4EEHrvaTBQKebQGO4D0EHTqTBOAHeQJd2nD/YhqrB
LfWlQKWOmL5rWaTBCq7oQIx1mL+veavBwFzDQGi9DUFC/J7Bpgu1QL1cgT+jGKbBB9T3QMwf9T2W
M63BqsG/QCrrsr8jB6fBpwUCQR8p8r7OH3DBHky/QM++wUCsIZPBgwXlQNt1CkD3eozBFukCQdx3
fD8f/XfBOhHcQE22qL65w4fBvHKOQOa85UAUhYjBmZqgQL8WoUAh+Y3B6IH5QASTYj9VwYfBt9UG
QdQSZ8CV7YzBsIuZQEt1C0CS86LBNXrEQOgaCUE+IZPBtCfgQFhXX8A+QYjBxW3fQBohJ8BqHnzB
AmWNQLVdgUAcAZbBCmyuQBCOQEBY7JnBoL7vQMMyn78e+n/BjG+uQOzt6UAV7pDB3mK8QHQeB0CZ
I5HB7Cd6QFK8ukCfvYnBZ+sIQRJ7Xr/J5V7BhpHeQM81ukDrv5jBj6D6QDzSS0B++YzBEKF4QA/W
mECs4Z7BhKIPQZ1yoz7KWLHBcVyxQEWuKcBRMqXB1C7AQJttGkGIgr3BdBIDQSy3FkEhLrTBT194
QPbEFUHNZrPBQh4EQRieDkEisqDBuVN8QNC+DUG/6J/Bl37pQIuKDkA23KvB/pSGQJpF6b4U9KDB
LXT8QMBmAsAlkK3BPefuQBmIzj9oLG/BlR0TQbw6sz/+LXbB2Iu7QCDGTb3EPoXBh9LaQGkQSr+5
wI/BP02dQLqE6UAOmYDBnS1qQCDR/UBVhonBOhSxQI62j0DdhYfBgSkLQTxPJT+jbozB32wGQaiv
h8AJJJTB29QMQRgMJ8BrBo/B6nsRQdcmgsAq84bBp8uUQAnJNEDW+anBMsR0QBQH5z8nKaDB4vDl
QHfkB0Hed5DB8H60QBwoFkGSyI7BIBPLQFtrQsDpTY7BPmHUQHjWj8CoOobBykG+QD2xIsAXVnbB
2G3zQKi+RcDO0m/BR79mQHvoX0CV+5HB5UjKQI2rYkAUM53BIJqnQAxRtz8QZ47BsMVmQDVAr0CB
rYLBZf5IQNvMukDd3I7BhqBgQJF5hUAV6qPBkAG4QFy0FUFvzrTBNELhQPTzEkGsd7DBXLSTQG3S
E0EcL67Blz7mQPxSDkFbgqXBCqOYQNlOD0F4NaPBGHjeQCnTlz9cfqrBN2+pQGbcsL6DBKPBePzt
QPL1mb+8aKnBIfnBQJt+DEEh1Z7BaI61QEXfdj/qBabBfYT6QDgV1T3AOKzBJ57FQOqetr8ZuaTB
txbnQLZhib/1K3/BeV/BQB3Tv0DPqJLBI9nbQK25CkAgkY3BCb/PQGz+Qr7VlYfBtlsEQacpfz9d
33/BUMCGQBiN5UCcSYzB/kSgQAy1n0A3Vo7BVCPdQEy6mz8FVITBVYorQexoDb5dUkjBbYGXQAgl
CUC0+aPBQNPHQFovCEFM+JLBeBIaQVdqxj4EA1fB2CgSQa3zPr8juGXBL66KQLM8hECsLpfBrGSq
QEQGRUDEYpvB8IIBQZQsdr4OvnPBJYCzQDM86EBenY/BqJO0QLlJEECMTpLB49h/QKlpuUAUxYjB
je/iQH9pEsC8m33BcM7hQIKot0AqyZfB6B76QG0SOUCj9Y/BQiZ3QChHnkCGtZ/BG8kQQcLtoz6j
jLDB0jC6QFZXK8D7vKHBTDW0QLpBGUFYNb3BdhH9QMdkFEHci7XBDSxoQBnXFUHehbHBWPECQUcr
DEGINKLB3pd5QMz+DUG/IZ7B20boQCcHDEC/l6zBroaKQIuvBL91aJ/BIaoBQcQdAsB72KrBs+rZ
QNYO1L5N0Y/B9+GsQFKBor6664bBRjMQQXLgXj8iXobBGkQJQcvF6T/NaHXBCYmAQMPl+0ARq4XB
BAVjQEgr7UCRCpPBTC+wQDEqikBzoIjBOMXHQJnFyT/E6HvBPCgxQUhJLD/h1z3BTCAlQSovdb/k
fT7Bxfo4QVehAr8/AFLB/ReTQBEtLUBgdKvBDsVwQGie4T9hNaHBIEXqQKpCB0F/N5HBHY+5QBV2
FUHXbI7BWaQMQTWKQj92Uk3B0X4gQQSMmj/Q1GDBXJYfQVhNj79gZm/Bk7QLQUpbyL/e6FvBwyJf
QNF7ZkABhJPBviDHQKvlZEDGip7B4vycQICi2T/cNo/BuL6DQHMbt0AY2YDBbQZFQKadr0AawYrB
fRldQAzAjEAS/6TBAtvKQOaQG0HGIbPBoYXxQJ3rF0Fdna3BIV+jQH3cGEGM2a3Bq8TwQBmQEUFW
z6LBXY2iQJuKEkEwCqPBmdbhQDDHpz9XfKvBWA+mQAzNI77n7qbB34/oQIwIjb93xK3BaUvJQOjV
DkG4gp3B5tm3QBemkD9VrafBAyH6QKayRj68lq7Bd36+QIRzo78K7anB20/RQCSA2L9ykXfBLS2/
QOdIwEDX85LBkPnZQHyhwz+LzovBNb7dQNbKTb7JrHjB22nLQDiCgr9tso3BsvqMQLOd5UCF44jB
VI+fQL0+oECK1Y3BNqvlQFs8mT1cNIjBxuMIQVGWfMA9UIzBmkmeQOj7E0ByGaTBYXbIQIJJCEHr
45HB+zrkQAcbg8A38ZDB3sLBQASIYsDbSInBlXuNQAbffUCxrJXBN8uuQAzCOUDEXpnBIbfLQF2h
CcD3PYbB6eavQNIS6UB8j5DBiwm0QAAE5j+vbpHBGpp2QCHcukA+XIrB8OzLQCHFFcCcJ2fBueTe
QPT2t0CfVpjBEzPzQEbMG0Cn1InBlld4QGr6lUAPoZ7BpDIRQb4BvD7FR7LBl+etQBIaIcBr0ajB
z3zLQH9wIEFxa7vBLd4HQUgBGkGErbHBl8aFQEqiG0EmF7LBEjIHQenGDkFSlZ7B2FKEQMyGEEGM
+Z7BNlHvQDtkE0AnBazBKbiFQHtklL7NEaTBplr7QEX5+r9cFbDBr5TDQFkA3D5Gm3LBmOj6QOcv
OryrTG/BgniqQEDfLL/NHo/B/jDaQCH/pr/1WZXBqguZQIqC6UDwrYDBf/JoQOoK/kCPgYrBereu
QLAnkEBW/IbBcd8DQVAOw72o8InB3JYUQRxgi8A1BJLBtVAMQY9xOMCp6orBQf4JQWDZj8C7tITB
KiagQAPYRUBmS6rBAIx5QFAiAEDtDqPBVG3pQCisBUFNGI/Bt4u5QM4VFUFJI43B1HbiQHg/Y8BI
kZjB69HdQFRApcBaW5LB13SiQLA7ZMB/TY3Bip3AQNw0hcDcCYLBr9JmQNOvW0CPlpHB+L3NQGpu
WUDnv5rB3sqaQN6fmj+3B5DBPmdeQPDYr0AmfIPBO9FIQJAsu0Aa84/BNlVhQF1OgkC9qKPBIR/B
QFBQFkFdsbPBr2fpQLB7EkHrAK/BYLabQMT3FEH8bq3BnU7sQAtJDUGgD6TBJJSeQHP1D0E7d6LB
0ULdQKpumj/BTarB3X+nQGX3rr5sZKPBpeLsQBxel7+AUanBge3GQMIKDEE4vZ3Bq9KzQLTfeD/5
J6bB0bH5QFzWBD7K4qvB1+XDQApbtb+kA6XB6wT2QI4MV78qj3vBtm3AQBIjvkDSPZLBTUvbQCbp
CUD86I3BKA3aQBSfJ77jIIbBQ6kGQRjgsj9ao37Bq8OGQIC65UDyI4zB2KidQJzqnkB8Ro7BGIjg
QDjVqD/m5oPBxSICQc0DpL4YAkfBfV2VQMe8CEDVEqTBeZjKQBAjB0Fc35HBstAVQZsw2D5dzE/B
AeAbQXwR+71U8mXBNHWIQGQAhECPSpfBadynQPpVQ0CvVZvB6XIKQTb2yD3SEHXBKyi0QO+45kDo
647BTd6yQK8zDkClKpLBDIJ6QJiXuUDmA4nBu/3yQI7mAMAuKXbBcyXhQME8tUBLLJfB2er4QIdi
NEBckpHB2kJ2QD2+nkC045/Bca0QQQWftT5v1K/Bze63QOQSK8DaWKLBq+q+QPdHGkF9FbzBGQkD
QViIE0EPzbPByKV5QArHF0GUC7HBDpkFQT8+CkEsf6DBRueBQDIcD0FtqZ3BECTnQEaSDUAtQ6zB
sjSIQP7gBb9GBqDBqT4BQVqSAMBipqrBbpvkQJwQ2L7hQ47Bwki4QD8a5b4KHoXBK2ISQUovzD+O
sIXB6acHQWcmDECXeHLBe0uAQKKk+0BNcoXBV2pmQMoE70AvFJPBwwasQGDwiEARaojB1FXJQPke
0z/LqnvBKf77QIFspT3EJjfBKBrpQGqKOL6i+FHBhcgFQUtMsr+KnkXBgiKRQNWrLUCBfavBlm1s
QCFX3z/fbqHBn6TsQKRvBUGtzo/BHbm8QP6CFEHgUo3Bdh4SQbFLvz/SIFHB51kjQc9CkD66xkTB
clAqQT+kyT7WsGvBMBcfQXfFmb9Nt2TB2f1YQLQ+Z0D12pPBELHEQLcWY0B1dJ7BCMebQIgN1j93
zI7B4Ud+QKhitkDKEYHBdOU/QLNRsUBUeYvBJo5cQG++jUAsT6XBJCnAQC/4F0GurbLBmCfpQGvP
E0Fsda7BucabQPxuFkHSDqzBAc7tQA8UDkE8n6PBtWGgQGLTEEFENKHBVkfaQO9zoD+cKavB1d2n
QH+sqb6wQ6PBdPjrQMeFj7/gbKrBiHPJQFKiDEGI9ZzB82uyQJwIfT9wRqbBvPL2QFzuSz7MQK3B
J47EQLU/sb8iXqXBffj7QDZCUL8ej3jBLMbAQOubvUB+R5LB+SDdQBhkAkAeNI7B+CXnQAHKoL6e
m4bBckwEQcNOwD8mhXvBbQeQQNWi5UAeMYjBwk+dQCGsn0CuHI7BKL3hQEiDlT+EUoTBOKY3QfuU
jT+HuGrB9zGUQL9dCECcoKPBhofOQCq0BkE+SZHBENglQR8Srj/4H1rBsDEUQa47iz5+71rBgNKI
QLTngkAm0JbBh0SoQKrMQUBW/JrBKK8IQVL5jz4zZG/Bcy+2QA6Q5kCo6o7Bjx20QHbJC0As+5HB
GEx3QPkivEDWCorBsSP6QOm++r/yqHHBgNbfQIYztEAgyZfB8Sn7QLDKK0CY3JHBdNpzQE2inECE
dJ/BeYoOQUXr6D488LHBpG+6QGZqKcCkbaLBUaC8QDFWHEG6/brBjYECQcIEFUFLibPBTLx4QGaO
GUGQTq/BMZoGQW7JCkHiaKDBe4OEQJC6D0G2H5zB4cXiQPYCEUBITK3BkcGJQCeQCL/9V5/BweIA
Qf499794IqzBkBT8QIev9r7ujY3ByBPIQA4dTb+S/YfBjugRQR/a4D+x9ILBs/kAQU/3FUBxq3DB
EfGYQGnz6EAncH/BplJ0QPW2/0A/cIrBWBOqQCKDi0B3pIfBvhzFQIiepj/7oH7BmcVDQec78z9S
j2nBkiw/QZ7KBj5vjWfBgbMwQWlyjT8q5HrB9ECOQD1vLkAY4arBWYJrQNNu3D9rp6DBvpPwQJLl
A0GSjI/B26bCQE7jE0H4RIzBb/0sQb7Qrj+JCkrBXoQeQeq0FUBEYV3BuqkbQeDmNr9SuVjB1rUI
QR8G6T6e7E3B/BxbQBdFZEARJ5PB07LEQLPBYUD5S57BE9ScQMKY1j+USo7BaFdfQLWhsEBFNIPB
rVdIQI4Av0BVbo/Bj85aQGnXikBMw6TBOmDBQK4ZGEElkbLBohLqQN/wE0EuKq7BrI+cQIDNFkFR
FqzBN/3tQGhZDkG4SqPB1mqgQCBLEUFYNqHBtnjXQA7ckz/eCKvBMtGlQFsb2L4YwaLBKk3pQHnh
m7/xQarBmyTJQLz+DEE3zZzBhC2wQKa0ZT8s3aXBfPrzQFxnzT2aNK3Bw2LCQH8svb959aTBEc7v
QAjaSb83FXnBwGHAQAhpvUByYpLBFZ3eQGufCkDNFI7B2QDYQPx3yb0GoIXBDiAIQa2Moj80lX/B
BfCQQCKN40CdsYfBgYadQIvUnkBUNY7BJG/jQCNJrj8G+IPBu3kZQc2U0z+2JEvBkmKSQJMsA0DF
I6PBO+7MQMqYBkF0MJHBK7EmQcxcWj+gelvBDLsZQZ/Xpr62z2TBjvqIQKmBgkBk/JbBORyoQGly
QECpIpvBCf8GQaLr/D378nDBq/mzQGBL5kCJW4/BjZu1QP8gDkBnApLB0uJ3QMy1ukBK3onBUbzq
QCSg+r+q1XPBvZnfQI9ntECY4JfBTun7QPQ7NkDSspHB0at1QIFtnEAzqp/BmuwMQeNntj4XA7LB
kOe4QEAxL8AYzqHBxWi+QG5JHEGs6rrBxyEDQeUKFUHVIbPBbNN6QJMIGkG8dq/BepMGQVMaC0Fy
7Z/BBjqEQPhZEEGNPJzBOq3fQIWDCkB6VK3BuACIQP0sH7/qr57BffL+QDXcAcAsD6zBKzDjQMEr
6r6OdY3BW0W1QLSCg77t9oTBBpMTQbLAij+vTobBG60MQVMCDEBYA3fBsFKdQLNA5ECz6n7BzNN0
QH8z/kBc2ojBjuuqQKBUikAF44fBCpHOQIhp5D+ke3vBiSwjQbHbHkDq10TB6BoLQd+ZA0Ax/lLB
wa8UQSIgfj8d6D3BKXuKQK9xJkCxfqrBsrxpQNFU0z8aj5/BnbbuQD+UA0E2O4/BO5vAQDqNE0Fa
F4zBKXsrQYrJwj8lm2jBAxA1QXOX6j4RhVPB7CskQVkkaL86gW/BqkwUQZIqd78QkFfBgLNaQMsP
ZECqaZPB7q3DQGqFX0Ah/Z7BrVSfQC5s1j/TRo7BfeVfQBxUrkDgIIPBYttIQLKKvkCINY/BOpRc
QM3PikCDAaXBCBS4QKDTF0G87LTBuNrgQDmpFEGYYbDBHiOTQFYMFkHFg67Bt7jkQP/FD0ExbaXB
ePeWQFJTEUHHh6PBf7DeQC68pD+Z0arBY4OqQKZhgr5pEaPBqDzuQE7rjL8EBarBD9i/QDE1DkGV
8p7B+pW2QK4Shz+S/6XBaHn6QMyRVj7v06zBclzGQCx3qr9AFaXBj7oIQUBKfL/gCX/BK92/QGwc
w0BHt5LBbJ/YQNE4uj/hMo7B4YnwQLw+c7+XlYjBOxvgQNHANj9kRXbBOA+EQC7T50DVqozBnE6g
QGhfokAHAI7BVwLUQFCziT55WIbBhCssQRptHEBRr1bB+R+aQERZDkDAPaPBLaTEQOnvCUHkD5PB
XlsdQZoe9T99OGjBTwQTQd3lGD8d3WDBCMeMQGByhECvfJbBFOysQBVWQkDHzZnBFM0EQcBT2j10
qHHB9+ywQLRX60Cszo/BLB6zQLAbCUDHlJDBBet7QDyyu0D5BYnBQwwXQeZx6L8XRX3B07PfQABU
u0ARG5jB/7r7QEl77j/MK5HBz/N9QCjJnECviJ/Bz5kQQbaV3z6USbHBdzm7QO1QJcBwE6LBTCC1
QASeG0FqUr3BhST9QLH7FUHoTLXBmsFnQEtOGEHGBbLBpv0BQSg3DUGi+KHBJVB1QKQWEEEQnZ7B
kRHoQIyiEkCW96zB9/OLQA073L4PSZ/B77cBQXvs9r/vpqvBTFYAQSs4V78rW5DBr1DdQFqS77+O
lojBW4HiQIO85z89kXXB2AzIQGacvD4qrGrBP8N5QDBh/kBkJ4bBkUNeQPiY7kCgiZPBsM+wQMMN
j0D26IfB42OyQN+Lab3lVIbBGIozQeu6WEDy/VvBFd0iQanhJ0APBkjBisM4QRsI2j8La1PBGT2X
QJxJOEC5RarBPZF0QGSr7D+4/aDBde7mQDJmCUGuF5HBI1W1QNgNF0FcnY7BxcUQQb4DKkDGe2vB
OqwmQUNM3j/D4HbBkpEfQfP5F77euF3BnMQJQeKoRT9IJ1LB2NZhQJ0baUBc3JLBV2bLQMe/X0Dg
OZzBAlSaQDk0AUCnnovBAByAQE8oukD6DIHBO69CQDvOsEAeWYvB+fJlQA4jikBtu6TB

>  <OMEGA_E>  (67) 
uHQAPxz0/z420Rg/LBsUP9yWEj8y0w0/BKcHP6J/PT8=

>  <OMEGA_NBR>  (67) 
     12070

$$$$
50147900
     RDKit          3D

 73 76  0  0  1  0  0  0  0  0999 V2000
    6.0301    9.3699  -22.5883 C   0  0  0  0  0  0  0  0  0  0  0  0
    7.2732    9.2372  -21.9360 C   0  0  0  0  0  0  0  0  0  0  0  0
    4.8310    9.2198  -21.8630 C   0  0  0  0  0  0  0  0  0  0  0  0
    7.3194    8.9620  -20.5558 C   0  0  0  0  0  0  0  0  0  0  0  0
    4.8749    8.9465  -20.4832 C   0  0  0  0  0  0  0  0  0  0  0  0
    6.9155    1.1704  -21.3424 C   0  0  0  0  0  0  0  0  0  0  0  0
    5.1460   -0.3163  -20.5478 C   0  0  0  0  0  0  0  0  0  0  0  0
    7.2228   -1.2484  -21.4209 C   0  0  0  0  0  0  0  0  0  0  0  0
    6.1200    8.8241  -19.8265 C   0  0  0  0  0  0  0  0  0  0  0  0
    5.6315    0.9853  -20.7898 C   0  0  0  0  0  0  0  0  0  0  0  0
    7.7112    0.0535  -21.6548 C   0  0  0  0  0  0  0  0  0  0  0  0
    5.9407   -1.4322  -20.8644 C   0  0  0  0  0  0  0  0  0  0  0  0
    8.1241   -0.2362  -14.9454 C   0  0  0  0  0  0  0  0  0  0  0  0
    5.9935    6.0346  -18.3979 C   0  0  0  0  0  0  0  0  0  0  0  0
    7.1669    2.2992  -17.6036 C   0  0  0  0  0  0  0  0  0  0  0  0
    8.3549    1.1601  -15.5654 C   0  0  0  0  0  0  0  0  0  0  0  0
    6.5051    0.1182  -16.5819 C   0  0  0  0  0  0  0  0  0  0  0  0
    4.4762    7.1300  -17.0313 C   0  0  0  0  0  0  0  0  0  0  0  0
    5.0387    5.0033  -17.7741 C   0  0  2  0  0  0  0  0  0  0  0  0
    7.6758    1.0230  -16.9215 C   0  0  1  0  0  0  0  0  0  0  0  0
    8.6818   -4.6907  -18.1094 C   0  0  0  0  0  0  0  0  0  0  0  0
    4.7841    2.1791  -20.4268 C   0  0  0  0  0  0  0  0  0  0  0  0
    6.1603    8.5413  -18.3449 C   0  0  0  0  0  0  0  0  0  0  0  0
    7.5491   -4.2178  -17.1919 C   0  0  0  0  0  0  0  0  0  0  0  0
    7.7489   -2.7302  -16.9147 C   0  0  0  0  0  0  0  0  0  0  0  0
    6.8325   -2.2576  -15.7799 C   0  0  0  0  0  0  0  0  0  0  0  0
    4.4254    4.0456  -18.8015 C   0  0  2  0  0  0  0  0  0  0  0  0
    5.4656    3.0589  -19.3521 C   0  0  1  0  0  0  0  0  0  0  0  0
    7.0279   -0.8206  -15.6056 N   0  0  0  0  0  0  0  0  0  0  0  0
    5.4763    7.2810  -18.0797 N   0  0  0  0  0  0  0  0  0  0  0  0
    5.9432    2.2011  -18.2668 N   0  0  0  0  0  0  0  0  0  0  0  0
    3.9395    5.7855  -17.1991 N   0  0  0  0  0  0  0  0  0  0  0  0
    8.8069   -0.7558  -14.0705 O   0  0  0  0  0  0  0  0  0  0  0  0
    6.9761    5.8188  -19.0992 O   0  0  0  0  0  0  0  0  0  0  0  0
    7.8865    3.2867  -17.6990 O   0  0  0  0  0  0  0  0  0  0  0  0
    3.8376    4.7933  -19.8690 O   0  0  0  0  0  0  0  0  0  0  0  0
    8.9462    0.2322  -22.1744 F   0  0  0  0  0  0  0  0  0  0  0  0
    5.4754   -2.6787  -20.6253 F   0  0  0  0  0  0  0  0  0  0  0  0
    5.9968    9.5870  -23.6457 H   0  0  0  0  0  0  0  0  0  0  0  0
    8.1905    9.3467  -22.4954 H   0  0  0  0  0  0  0  0  0  0  0  0
    3.8797    9.3143  -22.3655 H   0  0  0  0  0  0  0  0  0  0  0  0
    8.2713    8.8567  -20.0567 H   0  0  0  0  0  0  0  0  0  0  0  0
    3.9570    8.8302  -19.9263 H   0  0  0  0  0  0  0  0  0  0  0  0
    7.2872    2.1678  -21.5255 H   0  0  0  0  0  0  0  0  0  0  0  0
    4.1644   -0.4560  -20.1196 H   0  0  0  0  0  0  0  0  0  0  0  0
    7.8315   -2.1056  -21.6682 H   0  0  0  0  0  0  0  0  0  0  0  0
    7.8831    1.9485  -14.9606 H   0  0  0  0  0  0  0  0  0  0  0  0
    9.4279    1.3754  -15.6761 H   0  0  0  0  0  0  0  0  0  0  0  0
    5.6772    0.7016  -16.1528 H   0  0  0  0  0  0  0  0  0  0  0  0
    6.1534   -0.4124  -17.4790 H   0  0  0  0  0  0  0  0  0  0  0  0
    4.9391    7.2386  -16.0394 H   0  0  0  0  0  0  0  0  0  0  0  0
    3.6798    7.8797  -17.1483 H   0  0  0  0  0  0  0  0  0  0  0  0
    5.5631    4.4316  -16.9943 H   0  0  0  0  0  0  0  0  0  0  0  0
    8.3517    0.4951  -17.6104 H   0  0  0  0  0  0  0  0  0  0  0  0
    8.5579   -5.7626  -18.3231 H   0  0  0  0  0  0  0  0  0  0  0  0
    8.6517   -4.1233  -19.0512 H   0  0  0  0  0  0  0  0  0  0  0  0
    9.6492   -4.5254  -17.6125 H   0  0  0  0  0  0  0  0  0  0  0  0
    4.6162    2.7848  -21.3295 H   0  0  0  0  0  0  0  0  0  0  0  0
    3.8179    1.8254  -20.0377 H   0  0  0  0  0  0  0  0  0  0  0  0
    7.2063    8.4697  -18.0121 H   0  0  0  0  0  0  0  0  0  0  0  0
    5.6574    9.3546  -17.8011 H   0  0  0  0  0  0  0  0  0  0  0  0
    6.5791   -4.3775  -17.6854 H   0  0  0  0  0  0  0  0  0  0  0  0
    7.5765   -4.7796  -16.2466 H   0  0  0  0  0  0  0  0  0  0  0  0
    8.7964   -2.5546  -16.6287 H   0  0  0  0  0  0  0  0  0  0  0  0
    7.5171   -2.1597  -17.8262 H   0  0  0  0  0  0  0  0  0  0  0  0
    5.7832   -2.4623  -16.0385 H   0  0  0  0  0  0  0  0  0  0  0  0
    7.0902   -2.7843  -14.8491 H   0  0  0  0  0  0  0  0  0  0  0  0
    3.6429    3.4622  -18.2943 H   0  0  0  0  0  0  0  0  0  0  0  0
    6.3000    3.6141  -19.8056 H   0  0  0  0  0  0  0  0  0  0  0  0
    5.3294    1.4695  -17.9700 H   0  0  0  0  0  0  0  0  0  0  0  0
    3.6626    5.4055  -16.3166 H   0  0  0  0  0  0  0  0  0  0  0  0
    3.1546    5.7958  -17.8187 H   0  0  0  0  0  0  0  0  0  0  0  0
    3.4588    4.1961  -20.5033 H   0  0  0  0  0  0  0  0  0  0  0  0
  1  2  2  0
  1  3  1  0
  2  4  1  0
  3  5  2  0
  4  9  2  0
  5  9  1  0
  6 10  2  0
  6 11  1  0
  7 10  1  0
  7 12  2  0
  8 11  2  0
  8 12  1  0
  9 23  1  0
 10 22  1  0
 11 37  1  0
 12 38  1  0
 13 16  1  0
 13 29  1  0
 13 33  2  0
 14 19  1  0
 14 30  1  0
 14 34  2  0
 15 20  1  0
 15 31  1  0
 15 35  2  0
 16 20  1  0
 17 20  1  0
 17 29  1  0
 18 30  1  0
 18 32  1  0
 19 27  1  0
 19 32  1  0
 21 24  1  0
 22 28  1  0
 23 30  1  0
 24 25  1  0
 25 26  1  0
 26 29  1  0
 27 28  1  0
 27 36  1  0
 28 31  1  0
  1 39  1  0
  2 40  1  0
  3 41  1  0
  4 42  1  0
  5 43  1  0
  6 44  1  0
  7 45  1  0
  8 46  1  0
 16 47  1  0
 16 48  1  0
 17 49  1  0
 17 50  1  0
 18 51  1  0
 18 52  1  0
 19 53  1  1
 20 54  1  6
 21 55  1  0
 21 56  1  0
 21 57  1  0
 22 58  1  0
 22 59  1  0
 23 60  1  0
 23 61  1  0
 24 62  1  0
 24 63  1  0
 25 64  1  0
 25 65  1  0
 26 66  1  0
 26 67  1  0
 27 68  1  1
 28 69  1  6
 31 70  1  0
 32 71  1  0
 32 72  1  0
 36 73  1  0
M  CHG  1  32   1
M  END
>  <OMEGA_C>  (68) 
zvbAQCDrFUHHtLTBrb3oQJjLE0HifK/BoJeaQC2EE0F5567BNDjqQEhkD0FGcqTBlP+bQLEkD0Gf
3aPBLUzdQMbQlT9PvarBzqukQMHwob7VYaTBKCHnQPbMn7/oXavBFdfDQJ4vDUGmnJ7BFzW0QOY+
fD9tUabBWML2QKgvWz0ZPa3Blxq+QChRt7866qbBRvwBQfLjcb5EIG/Ba8q/QHobwUDhLpPBYVfl
QJslE0Aj1IzBeK0FQRh9lD8ADHnBByrQQOgR8j25p4TBXz2PQBwp5EAdQIjB8jyhQCsboEBJMY7B
RaD1QFTwgj8yX4fBougKQQ8alsD535DBOBeZQD52C0AYaqPB6yDFQFGpCEFawpLBXpLxQBn4hsAc
iYnBDvf3QBe8LsBhUYfBF6TaQEN9EMBQenzBLJ2NQNR1gUBzaZbBI+auQL/FQ0As0ZrBX+TgQNAV
Ur+DsHnB6D2vQPb96EAho5DBpy6+QCnfDEBdIpLBwiB8QOUiuUDVl4nBIukMQUZ7Qb/oIGHBFTzf
QIgzukAsy5jBL178QO9YUkCIl43BrJt1QHlimUCu857B0CMPQYq+bT40ZbHBYzavQJ5wK8CUAKXB
Lua/QGdkGUFkKr3BOAwDQUCMFUGA9rPBJE14QIwHFUGM7LLBL1cEQeC0DUEGdKDB4T59QI5IDUH+
aJ/BGDHpQEm9CkAkNKzBlkKFQO926b7f9KDBipv6QBDCBsCAWK3Bm0L8QAVo+T9uXm/BjNgWQeoN
sD9w0XrBjKu1QNmbMz/XOIHB2ujEQKIk07751IvBTQ2eQFCi50CbUIDBZIJrQJ0m/EC/L4nBSQWy
QNLPjUA69IfBgqAFQe6D/T4b4ozBW+0IQSdnuMCjlZLBUm0KQerxg8D1aJjB7GIaQdPPkMBa5ozB
QLiTQM46MkDcoqrBnlh0QMql6T8/TaDBwJnmQLqDB0HOGJDBYgm1QH2sFUGtaI7B0IfSQKsUjMC7
e43BBHPyQJPymMAg+YHBP74MQSF/I8CJB4XBSYzwQME3CsABnI7Bpg+5QCOXHcDyToDBuOLiQH4x
MsD8lW3B3yRpQLuUXUDLWpLBjpnJQEFNZ0DFcZ7BwIqqQNQZvD+Gwo/BTGdqQBr6rEBYiILBGuVJ
QEt3uUCrjI7BWF1dQI1GhkDYBqTBlbPBQOc0GEGqiLPBa1LqQKchE0H/VK/Bl1mdQFvRF0Eq3azB
P6TuQNmnDUFTdKTByZ6hQFNtEkE3/KHBNBjWQLNunT/WOKvBxPOiQEOnsr7+haPB8iHlQMTJlL/7
jqvB2UzKQP1lDUFowZ3Bq/quQCejeT9/9aXBFTrxQAoiJT72963BW/29QDFFtb/CWKbBvHD6QK7a
Zb4Q0W7B+snAQMp+v0An9JLBIUPkQL/nDUD4xo3BGA36QEU5mz8uZXfBI/vcQJ+ag77YsojBB92R
QH8V50DBX4jBVRKfQM1QoUAWFI7BFFn3QJNEgj9kt4fBDd5/QBM7csBzUYvBY7SSQKW5B0A4i6LB
TonOQGl2B0F9GZLBU9SdQFVgPsC4DYTBIg/NQP5sT8B0+obB7BvsQPLbIcCpXX7BJ1OKQHXdgkDC
O5bBqMypQP9WQUCTUZrBGSroQMYph786cX7BZye1QH+b6ECP/o/BCvi5QFBEDECpZZHBvYh6QBan
vUA8BorBpcUEQXQhE7/snV3B1SjfQDc9tkDftZjBZNr7QO09SkDw14/BBV90QJJFm0A0Cp/B9YML
QZZD0D4j2LLBDKeyQDTFK8CZ7aPBNHC+QP1lHEFB4LvBAhIDQUBxE0HNdLTB+Hh8QH6nG0FcGbDB
LdwGQQmpCUEQP6HBw8aFQLUiEkGF3pzBDS/fQPudD0BgI63BqwSFQOUcC7/Gfp/B9+L5QIDW/b9Y
ta3BpCLeQHg14j/WYHHBcMMLQQB43z+E8nLBUJa6QHeCvLzgu4jB3lblQFBaTL++EZDBc/qdQHip
6UAII4DB90F2QBmdAEHr7YnB2nGtQIC7jkB1hofBXdYLQZkgUz9w1orBV/E8QHBHZcB7HonB/j6F
QBq3X8AvtJPBT6eGQG5ym8C7V4rBYE+KQO8uLkASnKnBkblqQKTn2z9U557Bo1TwQD9HBEG4OJDB
NNzCQFC2FEGxGI3B8O6WQH6V87/zCYXBQVeYQIH4UMABW3fBignTQO1gisDKqYbB1gTTQFHqN8Bh
I4/Bk5PlQEgCOcCYEW7BG4kGQUmrMsAEcoHBF1FfQJ2wZEC1PZLBQsDEQG51YUART57BUGylQPPD
yT84vY3BKR5jQPNzskAnIIPBqi9LQE00wEByXo/BCqpaQAeXiEACGqTBhdK5QK1hF0FljrPByJHj
QET0E0EFpK/BJG+WQFWvFUGlnqzBbfvpQDzEDkG4yqTBrMecQA2QEEGkxKHBRoHaQLR+oj+XCavB
Q0KpQB6EsL5vEKPB+6btQI79i78NWarBI5bGQNYIDUFX1p3BGwCzQB5sez+3D6bB5733QAKzbj5e
Lq3BX4bGQMrPsL/uPKXBqcTvQOl+f7+m6HrBI5PBQJ1JvkCRqZLBweXbQHQrBkDiXY3Ba4vWQH56
hb65GIbBApYGQcKhkD8bNH/BLRaSQCaH5UCpKYjBQ/qeQNf3n0CNNY7B5zzgQCxjmT//soPB+jcN
QZB+urxwyjvBBGCUQAwgB0CbV6PBYTTNQGQxB0FpOZLBEO8VQWaMjz9D0UnBk0IlQWpwGD9VVVvB
fC8bQUneCL+b92jBUK6JQJVMg0C1ypbBqpaoQOJGQUB5yprBAwoHQZhNx73wkXLBDk61QDxd50C2
y4/B/ZezQOUODEAnqpHBxVJ7QEL8u0AfzYnBRFrrQKCiC8CyWHbBnOjgQNzmtEAiFJjBFG35QHka
NECKYZDBHoZ2QGXOnEBLhp/BY88OQWR3Az+U5rHB8lO9QNCeKcC7SqLBa/S0QN5PG0Gc4bvBeKj+
QJNOFUGb9rTB4O1sQBBQGEGQoK/BzvsEQe4dDEGuzKHBFK2BQB9UD0F0cZzBlEziQF5SEkDFM63B
+VyLQEeqEL+hGp/B4fQBQRj78b/HF6zBNbbhQBMhCr9lI47B2RO0QD9H775ia4XB/RASQezBiT8N
QobBEUYKQe09AEBvK3XByUOeQKwi6EAp3X/BWF52QJKL/0A6sonBqNisQPDAi0Dn5IfBlNbKQPzW
xj+soXrBnGoCQQSDxz4NkC/BpmQEQWN+PL/33UXBb6AaQRD2Cb8z7jPBpsCNQA7YLED1larB5ZZs
QL5j2D85QKDBlHfvQLh9BEHVuZDBw7TBQHZOFEFsG43Bu2kIQclB0T+yh1HBhaUeQfKF6j/tlz/B
7YgpQSUStz/C92XBk8ozQXTzUz7mllPBwWcmQUjcUL9PwnXBSB8YQQgAtL9DrV7B2EdcQNKAZkDq
DpPBg2bFQLDSX0CuGp7Bh0icQArx0j/OS47BusdlQItbsEAB2oLB1aBKQLSqvkD58o7B1X5cQHT4
ikCxv6TBykzCQDWUGEGoy7LBdMrqQC7NE0GObq7B1midQNVgF0E+VqzBxHLuQPnNDUFmm6PBCQSh
QI94EUFmgaHBQbrZQBiXnj84eqvBSsSmQAJMsb59zqPB6pXqQHdSkr9dFqvBVZPJQGu1DEFNHZ3B
pMmxQDYMej8bn6bB1g32QOswOD65tK3BuBDDQHnSs7+tE6bBPkX6QORHL7/OPHfBaKvAQE8EvUCH
XZLBKZHdQC5tBkCqO47Bz7ThQIb3O74ZboXB2v0FQW7Fxj/Fu3zBA/KQQG/240D174fBWKCdQOug
nkC0Jo7BqRHiQE2JqT8K5IPBq7RBQR3g1L/JyVzBrtWTQLLWB0AT3KPBNknNQDRoBkFpe5HB/ZZC
QbcUJ74yV2LBw48uQYaWkD5rg27B81MaQV7blj4AQmDBiNiIQLMygkBD4pbBAEioQKEHQUDdPpvB
e5wHQadS2D5rC27B4Cm0QHwb5kBtjo/BitO0QMzOCkDeUZLBjUR4QJLIukAv2YnBW2H7QOaX7L+n
HHHBQYTgQNOzs0BHmJfBvjj7QBhnMECa+5HBZOVyQII7nEBZaZ/BOjIOQQUp3j6DSrLBeHm4QGPx
KsCCWaPBVoy/QAYqHUHsGLvBS4MDQX69FEFfZLPBHMp8QMf8GkHIsa/BLrkGQZIMCkHAR6DBE8OE
QDWUEEHAjJzBkIziQMkrEEChe63BwpmIQOv9C79m6J/B5AsAQT16+r/U66zBTQ7yQKrf777k4YzB
583AQFoHE7+BhYXBY0gTQQJexj+fIoTBMucFQYJlIEDT83PB9iCdQA6h5UAwYn/BC6V0QAFd/kDs
T4nBSOuqQPg0ikDuzIfBD9HHQItazT8R8nzBwE1QQTRT+b9/E1TBUKEzQchC7r/KtVLB9YtAQQwV
EMCQnWvBIa2NQHIeLkAwFavB7O5qQFmn2z9a0qDBdAvvQPdSA0ENho/BwB/BQOl1E0E5bIzBGNVD
QWZg1T7Ub1PBvb9QQUwy3DyaV2zBGTsxQTscpj9svHTB7+MrQcJW0b7Y8HvBw1sZQealJL8+HFfB
lwcbQXqqkj+0IVXBvqdbQBFAYkA+MpPBcmXEQMCPYUAFo57BnEueQBKdzD9x747BAg5hQH3lrkDT
AoPBZ7FIQFwOvkD6Io/BpIVZQMudikBSu6TBhke4QG6GF0HXt7PBQibiQKDyE0FV66/BqzGVQIYM
FkFrrKzBOvvoQFPODkHDFKXBR/abQGv5EEE21aHBF7PaQJoYpD9J+6rBQ/ypQAoXqr4lzqLBnjTu
QEjrib/rNarBIuLFQLVIDUE4BZ7BknCzQBM4fj8a56XBnfn3QNwJfj7vJa3Bo1LHQM7jrr8o/aTB
A9rwQAjIjL8XunzBtWjBQMzQvkD5tpLBo6TcQAyUBEDsVo3BPNTbQAT4sb7akYfB+loFQUZhjT9V
+nzBlLqRQBlQ5kA4UojB4veeQKOOoECkLI7BKDDgQG1ujT8ZGITBxNYqQfNbCkA56VPBUNWUQFS2
B0DQLqPBdevMQBl4B0Hsa5LBBvojQajmgz+2oUTBQt0PQQmAmj5prUzBo3cUQR3dAr/3I2HB5t2J
QN91g0CwrZbBWh2pQBgVQkALqJrB/OoEQeBOLr6Kh3HBxw+1QGD050BL7Y/BnzK0QNMIDUCth5HB
BgJ7QFOavEDu2InBOVnsQPmsEsBYy3jBS8vgQKpMtUAcGZjB7dL6QNofMUBPQpDBxdJ1QGSTnEAM
bp/Bg8QOQVeVBz9yBLLBQGq+QKCUKMA99aHBzBWzQNRmG0GECbzBKgL9QIEmFUGvUrXB4ERqQCjP
GEESl6/BI4cEQfEHDEGhLaLBnBeBQJnmD0H6bJzB10fiQOsWE0BLNa3BFUWMQHGTDb9Pw57BHkMC
QV6u778f9qvBg73sQArAB7/iJY/BDgK6QAfhIb/4cIjB16QSQRjekT+PQITBWLAGQVDE+T/F0nHB
9MWdQBlh6UCFFoDBZ3Z1QOcSAEGC9InBR+2sQCiwjECvzYfBFOXGQENiqj/NfnzBhjw5QevvKUAf
k03BG1ouQW3L3j/5yGPBetIdQWxsOUCJSFXB2BqOQCBMLUBhbqrBQJxtQKKC2T9EEKDB2zrvQA7A
BEFIAJHBmaTBQBKaFEEwSY3BYiIxQX8BnD57S0PBwZogQcsNuz8KyzTBMjIKQYKgw75nHEDBO2AD
QabVhT8tKlDBIKckQX+fjb4m8mbBPV8TQa3xyr97hV3BYzVdQO5XZkAV4pLBRs/FQC7wYED9/J3B
fpmcQFhF2D9xBo7BlYxlQLY6sUAN3oLB905KQJjwvkBNAY/BuAVcQKhyikDRm6TBhTi0QODpFkEc
srLB7LveQBmOE0HKUq/BX1SSQLIuFUGETqvBQmPnQFZqDkG/kKTBEOqaQMwQEEHdi6DBjoncQNsu
lD/IoKrBH3KoQObHtr4PiaLB4ULsQIwcnb9ZRKnBmn7FQNWiDEFRJp3BlyC0QBt/cT+N26XBqG74
QKhRlD1pYKzBRHPEQDBeuL9OQqTBXmLvQPsmdb8Sx3vB/WvCQKQXvkCbZJLBX9ncQNAOB0BQ+43B
PAPZQHjhhL4YLYfBrvcEQblCmj+qjH7BK3SSQIwu5UDJ2IfBhCefQJDhn0C+Qo7BTkrfQCOImj/i
c4TBjl04QZmsPb+dNUXBf0uWQKy4B0A3vKPBCsnOQMQLB0Ewl5HBpwgyQWxpMD984UvBOroaQTUx
RD8oUlPBnTgWQS4TqL6XJWTBR2OKQDyNg0AODJfBntCpQPA9Q0CUOpvB/+4DQYAIhTy9GnHB1nu4
QBui5kBBoo7BDq+0QGnYDkA3JpLBWpF7QLr6u0Ck7YnByo7tQEAeCsA58HfBudvgQI9GtUBtLJjB
VRT7QBSBM0DP6pDBqhh3QOlgnUATpp/BZHoPQd5Sjj6ZBbHBMVK5QF60K8C3AqHBWJytQBbRGkHZ
8rrB+K74QCTsFEEg/bTB0YpjQLrHF0Gc5a3BCPwDQaTVC0Er/aHBB++AQAnDDkHb4prBpA/mQOrp
CUAg8KzB6P2JQJJdBb/Gqp7BjboAQXLkA8ATuarBbCboQPMzA7/Y247B8Na2QNhJBb9keYfB3tcR
QYm5jz/sPIXBBWIHQS0sB0D+4nTByJubQD6S50DIvX7B6lN5QFuY/0D/4onBb0isQKpCi0DN7YfB
yOLGQPgmwT87LX3BoSxJQWE7QL+T/j/BihAuQd9Oib+F9jfBPF82Qd/Ftb/c6FLBe4WRQJnCK0Aw
M6vB3pZuQPsp3z/x26DBLnLxQN7HBEEkjpDBxNHDQNgpFEFDZ4zBWS80QbQkrj80Gz7BCn48QbSt
gT+LDVnBPxQQQQHjHj/CgEXBl7kXQaqb4D9OcFrBP1EkQTap4L4niW7BbA8TQYXUo7+751vBezde
QKh7ZUCQZ5PBaGLGQMbeYkC6g57BGx6dQA6j2z9apo7B8QFkQOHJr0CkJIPByj9MQN6Gv0DHPY/B
AtxdQACwi0Ct9qTB

>  <OMEGA_E>  (68) 
MBf7PnzVzj4i+RE/CLQSPzT+FT9wbhc/

>  <OMEGA_NBR>  (68) 
     19215

$$$$
50147906
     RDKit          3D

 79 82  0  0  1  0  0  0  0  0999 V2000
    6.1985    9.4995  -22.5113 C   0  0  0  0  0  0  0  0  0  0  0  0
    7.4223    9.2547  -21.8555 C   0  0  0  0  0  0  0  0  0  0  0  0
    4.9858    9.4193  -21.7974 C   0  0  0  0  0  0  0  0  0  0  0  0
    7.4356    8.9311  -20.4850 C   0  0  0  0  0  0  0  0  0  0  0  0
    4.9976    9.1046  -20.4248 C   0  0  0  0  0  0  0  0  0  0  0  0
    6.7528    1.3529  -21.3831 C   0  0  0  0  0  0  0  0  0  0  0  0
    5.2053   -0.2975  -20.4587 C   0  0  0  0  0  0  0  0  0  0  0  0
    7.3222   -1.0164  -21.4343 C   0  0  0  0  0  0  0  0  0  0  0  0
    6.2241    8.8623  -19.7659 C   0  0  0  0  0  0  0  0  0  0  0  0
    5.5310    1.0423  -20.7516 C   0  0  0  0  0  0  0  0  0  0  0  0
    7.6495    0.3246  -21.7193 C   0  0  0  0  0  0  0  0  0  0  0  0
    6.0989   -1.3267  -20.8062 C   0  0  0  0  0  0  0  0  0  0  0  0
    8.6324   -0.2336  -15.0479 C   0  0  0  0  0  0  0  0  0  0  0  0
    5.9482    6.0230  -18.3132 C   0  0  0  0  0  0  0  0  0  0  0  0
    6.9189    1.9923  -17.6103 C   0  0  0  0  0  0  0  0  0  0  0  0
    7.4544   -0.4071  -17.0823 C   0  0  0  0  0  0  0  0  0  0  0  0
    4.4115    7.2270  -17.0643 C   0  0  0  0  0  0  0  0  0  0  0  0
    8.3473    1.1747  -15.5779 C   0  0  1  0  0  0  0  0  0  0  0  0
    4.8934    5.0542  -17.7438 C   0  0  2  0  0  0  0  0  0  0  0  0
    7.1338    0.9525  -16.4883 C   0  0  1  0  0  0  0  0  0  0  0  0
    7.7470    3.5714  -14.9382 C   0  0  0  0  0  0  0  0  0  0  0  0
    5.3375   -4.2720  -16.6056 C   0  0  0  0  0  0  0  0  0  0  0  0
    4.6028    2.1520  -20.3356 C   0  0  0  0  0  0  0  0  0  0  0  0
    6.2361    8.5328  -18.2921 C   0  0  0  0  0  0  0  0  0  0  0  0
    8.1094    2.1705  -14.4221 C   0  0  0  0  0  0  0  0  0  0  0  0
    6.4650   -3.5177  -15.8989 C   0  0  0  0  0  0  0  0  0  0  0  0
    7.7047   -3.4218  -16.8212 C   0  0  0  0  0  0  0  0  0  0  0  0
    8.7547   -2.4751  -16.2165 C   0  0  0  0  0  0  0  0  0  0  0  0
    4.2813    4.1158  -18.7988 C   0  0  2  0  0  0  0  0  0  0  0  0
    5.2664    3.0207  -19.2462 C   0  0  1  0  0  0  0  0  0  0  0  0
    8.1800   -1.1332  -16.0189 N   0  0  0  0  0  0  0  0  0  0  0  0
    5.4792    7.3060  -18.0516 N   0  0  0  0  0  0  0  0  0  0  0  0
    5.6261    2.1673  -18.0944 N   0  0  0  0  0  0  0  0  0  0  0  0
    3.8085    5.9128  -17.2509 N   0  0  0  0  0  0  0  0  0  0  0  0
    9.1512   -0.5139  -13.9725 O   0  0  0  0  0  0  0  0  0  0  0  0
    6.9580    5.7311  -18.9445 O   0  0  0  0  0  0  0  0  0  0  0  0
    7.8650    2.6150  -18.0824 O   0  0  0  0  0  0  0  0  0  0  0  0
    3.8565    4.8883  -19.9254 O   0  0  0  0  0  0  0  0  0  0  0  0
    8.8253    0.6261  -22.3136 F   0  0  0  0  0  0  0  0  0  0  0  0
    5.7886   -2.6115  -20.5236 F   0  0  0  0  0  0  0  0  0  0  0  0
    6.1901    9.7487  -23.5621 H   0  0  0  0  0  0  0  0  0  0  0  0
    8.3503    9.3153  -22.4047 H   0  0  0  0  0  0  0  0  0  0  0  0
    4.0483    9.5991  -22.3026 H   0  0  0  0  0  0  0  0  0  0  0  0
    8.3727    8.7359  -19.9848 H   0  0  0  0  0  0  0  0  0  0  0  0
    4.0693    9.0485  -19.8757 H   0  0  0  0  0  0  0  0  0  0  0  0
    6.9992    2.3800  -21.6083 H   0  0  0  0  0  0  0  0  0  0  0  0
    4.2721   -0.5332  -19.9688 H   0  0  0  0  0  0  0  0  0  0  0  0
    8.0093   -1.8070  -21.6974 H   0  0  0  0  0  0  0  0  0  0  0  0
    6.5295   -0.9387  -17.3504 H   0  0  0  0  0  0  0  0  0  0  0  0
    8.0869   -0.2983  -17.9757 H   0  0  0  0  0  0  0  0  0  0  0  0
    4.8198    7.3223  -16.0473 H   0  0  0  0  0  0  0  0  0  0  0  0
    3.6683    8.0194  -17.2368 H   0  0  0  0  0  0  0  0  0  0  0  0
    9.1999    1.5176  -16.1825 H   0  0  0  0  0  0  0  0  0  0  0  0
    5.3304    4.4638  -16.9250 H   0  0  0  0  0  0  0  0  0  0  0  0
    6.2228    0.8840  -15.8756 H   0  0  0  0  0  0  0  0  0  0  0  0
    7.5864    4.2469  -14.0850 H   0  0  0  0  0  0  0  0  0  0  0  0
    8.5680    3.9563  -15.5610 H   0  0  0  0  0  0  0  0  0  0  0  0
    6.8271    3.5142  -15.5386 H   0  0  0  0  0  0  0  0  0  0  0  0
    4.4634   -4.3332  -15.9405 H   0  0  0  0  0  0  0  0  0  0  0  0
    5.0605   -3.7384  -17.5267 H   0  0  0  0  0  0  0  0  0  0  0  0
    5.6777   -5.2872  -16.8581 H   0  0  0  0  0  0  0  0  0  0  0  0
    4.3712    2.7788  -21.2093 H   0  0  0  0  0  0  0  0  0  0  0  0
    3.6731    1.7185  -19.9384 H   0  0  0  0  0  0  0  0  0  0  0  0
    7.2747    8.3923  -17.9580 H   0  0  0  0  0  0  0  0  0  0  0  0
    5.7787    9.3600  -17.7295 H   0  0  0  0  0  0  0  0  0  0  0  0
    7.2853    1.7981  -13.7958 H   0  0  0  0  0  0  0  0  0  0  0  0
    9.0262    2.2401  -13.8182 H   0  0  0  0  0  0  0  0  0  0  0  0
    6.1211   -2.5039  -15.6460 H   0  0  0  0  0  0  0  0  0  0  0  0
    6.7383   -4.0526  -14.9774 H   0  0  0  0  0  0  0  0  0  0  0  0
    8.1455   -4.4226  -16.9401 H   0  0  0  0  0  0  0  0  0  0  0  0
    7.3952   -3.0383  -17.8047 H   0  0  0  0  0  0  0  0  0  0  0  0
    9.0872   -2.8739  -15.2467 H   0  0  0  0  0  0  0  0  0  0  0  0
    9.6151   -2.4045  -16.8983 H   0  0  0  0  0  0  0  0  0  0  0  0
    3.4088    3.6216  -18.3465 H   0  0  0  0  0  0  0  0  0  0  0  0
    6.1687    3.4934  -19.6614 H   0  0  0  0  0  0  0  0  0  0  0  0
    4.8868    1.6804  -17.6292 H   0  0  0  0  0  0  0  0  0  0  0  0
    3.4528    5.5644  -16.3837 H   0  0  0  0  0  0  0  0  0  0  0  0
    3.0673    5.9595  -17.9205 H   0  0  0  0  0  0  0  0  0  0  0  0
    3.4777    4.3131  -20.5797 H   0  0  0  0  0  0  0  0  0  0  0  0
  1  2  2  0
  1  3  1  0
  2  4  1  0
  3  5  2  0
  4  9  2  0
  5  9  1  0
  6 10  2  0
  6 11  1  0
  7 10  1  0
  7 12  2  0
  8 11  2  0
  8 12  1  0
  9 24  1  0
 10 23  1  0
 11 39  1  0
 12 40  1  0
 13 18  1  0
 13 31  1  0
 13 35  2  0
 14 19  1  0
 14 32  1  0
 14 36  2  0
 15 20  1  0
 15 33  1  0
 15 37  2  0
 16 20  1  0
 16 31  1  0
 17 32  1  0
 17 34  1  0
 18 20  1  0
 18 25  1  0
 19 29  1  0
 19 34  1  0
 21 25  1  0
 22 26  1  0
 23 30  1  0
 24 32  1  0
 26 27  1  0
 27 28  1  0
 28 31  1  0
 29 30  1  0
 29 38  1  0
 30 33  1  0
  1 41  1  0
  2 42  1  0
  3 43  1  0
  4 44  1  0
  5 45  1  0
  6 46  1  0
  7 47  1  0
  8 48  1  0
 16 49  1  0
 16 50  1  0
 17 51  1  0
 17 52  1  0
 18 53  1  6
 19 54  1  1
 20 55  1  1
 21 56  1  0
 21 57  1  0
 21 58  1  0
 22 59  1  0
 22 60  1  0
 22 61  1  0
 23 62  1  0
 23 63  1  0
 24 64  1  0
 24 65  1  0
 25 66  1  0
 25 67  1  0
 26 68  1  0
 26 69  1  0
 27 70  1  0
 27 71  1  0
 28 72  1  0
 28 73  1  0
 29 74  1  1
 30 75  1  6
 33 76  1  0
 34 77  1  0
 34 78  1  0
 38 79  1  0
M  CHG  1  34   1
M  END
>  <OMEGA_C>  (69) 
21nGQML9F0EdF7TBsYPtQBATFEEp2K7BUIufQGm1FkEHYa7BWfDtQOXlDkEy4aPBT+yfQHKsEUEH
ZqPB8hbYQEssrT+wEKvBMJKmQC5QmL5yq6PBgE/qQHIYgr9ueavBayvHQM/LDUF5IJ7Btf2wQOtq
hT8xA6bBF8n0QP4tpj4Xwa3BOCrDQATRqb8Ac6bBeR4KQQgvb75TxHDBS1e+QKy8wEBdgZLB32fd
QPgC/z/24YzBporuQEJt0L6eqIjBCyuNQI5D50Cwg4jBlI4FQYZdlj8KP3nByZacQAW8oUBc843B
dUjkQDDZcz8U6IPBSOf3QNiRZEDyAm/BosyqQHO0iMBD2ITBhUqTQLe5CUA5r6LBCo7HQGqGCEE6
VpLB6b8BQRPpCkDMwGbBZ+HOQC4hYcDoYX7Bh4z2QGv/WsDhkYbBbhMMQVpoHsBmu4HBggCJQGm0
g0DtY5bBRYaoQEdTQUBI+JnBMeECQSQOkb+fJoDB9VWvQCPL6UCyaZDB4gi0QL61CkBlwZDBJL9z
QIw1vUDkAYrBdGsSQTORA78wj1/BlqfeQEZlt0BwjpfB4K37QJ1bJ0DGqJDB59B2QEhtnEBFZ5/B
nzQNQTRHID9HgrLBJzy5QI4iJ8BZMKTBtRXGQN/6G0Enf7zB5poFQWILFUHOPLPBjouBQLuVGUGx
a7LBj/YFQTnGC0H04J/BwDeCQHrGEEFyAZ/BKfnfQLNSGEDW3azBc7WIQJp+CL8mwJ/BCSYAQZhL
579PlK3BmvHQQA9PcL+vzYrBB2QBQU27mL4/zo/BzjuaQOVP6kDxYIDBOsZqQKZPAEHm5InBnjIT
QfBBwj/MdYHBUJKqQK/XjkBWZofBjSHHQItQYj+UAn7BLcTyQJnmh0BIXGHBXBYJQWYzfUDw+XjB
N3faQNPoYEAcnnjBgNSOQKypisBrDH/Buu+hQHJBb8DCNozBiK+1QGYwqcB13YbB4+CLQPvXMUCf
rKnBZhRrQBX32z/ugZ/BHcroQNFGBkERqo/BH+u4QKbCFUEB1o3B3yDpQKkm5j+3u1zBMGsQQedd
D0CLF13BHuDDQCI/IMAlVnrB7Z/XQD6vgcCMo2/BylMCQROGjcBnhYfBw6XsQNxyQsDvb47BBWUR
QSjuN8Ca8nPBZNcZQcbjGcCxL4fBFypaQDLIZ0CwxZLBFGbFQGWTX0CmSp3BuGCcQJ8Y1z+0CI3B
XvtcQKAPskDHEYPBjU5EQIO0vkA9XY/BQpNeQOUEikBRo6TBFby/QAZ0GUHWu7PBeRroQHW0FUHi
D6/BnEqaQEi0F0G2ga3BiBjrQOs0EEFRKaTBqzudQO5OEkGIl6LB9ObaQE2/pD8lh6vBYLSjQCu/
X76VsaTBXIPmQN0EkL/atKvBua/FQE2MDkFF5p3B5w+yQEYtiz8+/6bB6RH1QOgkOT6L5K3BZ+q9
QDlnqb/IDqfBP3ADQUZJV79qv3fBB0/AQDITwUBchJLBi37aQF+f9j/bM43BqaziQBnmFb+ANYzB
R5ONQDMk50Aju4jBkDkDQR8cJz9ukn3BYYyeQBGOoUAvO47Bg5PeQLPgNT9+yoXBXn0UQS3Bvz/2
slrBYVONQJEufcBzBoXBVYuWQFKcEUAcIKTBztnIQGvBCEHrMJLBSfMBQT8d0z8sr2rB3I+5QAGD
YsAl6YDBLYLaQKfYasB9FYrBmBcCQaKtOsBqqIfB5/OKQGHrhECk+pbBWGuqQMRCRECOwZrBI5D7
QKfKv7/GSoXBdmqxQNLb6UDbKJDBo8OyQBIJCUDN2ZHB8nt3QOk7vEC5/YnB/50HQcgPsL+Om2bB
KnLgQLxtuEB0tpfBIzr5QOGbKUA9KI/Bdhl7QN3gnkAjyJ/BQSQOQWbxvj6cMbLBf1qwQFWrJMBW
t6TBUn69QH+rHUEDGLzB2GACQfUMF0GF2LPB17x2QP5/GkFWGrHBzQIFQdNCDUHdmKDBipGAQDcL
EUGSzp3BURPmQJ9uEkAfLq3BM56EQP9uvb5SHqHB4Hv6QF+4/L9RmK3BXeTCQKz/gL8m6Y3BU6zz
QAqDzr6XxpPBXLiYQKTt60BPeIDBx65qQI5v/0A0sYrBzGYRQSGwYj9AqIPBYZOsQCOWjUCi44fB
/fzBQKuxJj/ArYDB+KESQYXeDkDluU3BylUUQa/Q9j7F9FPBfMUjQYDu1T9u+mLBF4NrQKBfd8As
D33B1/WDQAddU8C9tIvBioKOQLL6n8DUy4fBeMKTQELcO0BIIavBxR9tQAX19T9Px6HBoqzqQO2K
BkEcBZDBUAy7QB+3FUHBVo3BED0CQSgGK0BtJnHBvZrlQPzRvT/EIGLBGm64QPW4H8BBSXzBzfrC
QKkohsBwd3TB3/HhQNp/l8BmRYvBLWjMQGqNUMBVcpHBmesJQTJKWMAQs4DBg74MQWvjPsCxpI7B
6MhdQD6GaUASh5PBa13IQO57YkC0bJ3BOOyZQJxZ0D/X7I7BCbBjQIzusEB57YLBslJGQFzCvECV
HI/BmOpiQDg6jUBMLqXBsn+9QPs0FkGtI7XBdJHlQMadFEEMBLDB1HyXQPaAE0GOOK/BhLLnQH9u
EEGV9aTBgIuZQJdVD0FNKqTBasvfQL7pmz9EHqrBqE6nQGKbib4+rqPBmljqQEBMmb9HV6rBbLDB
QA7gDUGLAp/BZoy2QIrtgz8W0qXBvp/5QLjC1D17aKzBADbBQDr0sL/08qXBCPX8QImjcr8KGXPB
UM6/QFK4wkC795LBED7gQGKJ8T85qozBZDDVQL09EL80JYnBdyCOQMVq5kDUeIjB96QEQVgj4j41
inzBngmhQEjeoUAP+43BYirgQBPRRz8UOYTBgbUfQeQGpD9ufmDBdi0RQfcUXMB3qIvBTDubQFBg
DkBpMKPBOMrDQFGiCUHKIZPBIhYKQVOMwz9xoWvBHo3+QESRjMAA+4fB6FnRQIvScMDse4jBdgnI
QM2bMsAbUH7BBvuNQKXLgkDkM5bBVgmvQA0cQ0C5AJrBGLjdQDocv7/5Y4DBaqKuQJ686kBMwJDB
uFi4QL/cCUA3CJHB6M56QOweu0AMpInB/l0EQSyyt7/hGWLBdk7fQGBeu0CphZjBar7/QNJAJUBA
hI7BbSh6QBRjmkBUC5/BvYoQQRJRkj5xlrDBUqGyQGUrKMBl3KPBm+27QG6AGUGcnL3BkVMBQe2b
FkE4k7TB36JxQEahFEHaKbPBlTIDQWUuD0E6CqHBBON4QCRADUF2n5/BqojrQILNDUAspqvBfc6H
QLoV0b5+TqDBgSz+QJ1vA8CmH6zBcWWzQKcsGr/KlovBabLpQEcfR7/AFpDB2mCcQGe+6kCgf4DB
1QVpQFwY/kCjponBOAESQYkeqT6+7YPBFGmxQFPyj0Cmm4fBn3bHQP31gj8FhnzBya0iQSQSBUD9
vlTBBVMfQTU1nj7lRljB0ZIsQavToz8+gWzBBrcgQb/WfMA9F4vBqkoOQcHPSMCB/5PB1E4RQU35
IsAvg4bBtHCYQM8dN0D2VKrB3392QHeR8D9Nw6DBgXTlQN3MCEGHmJDBgpmzQMGmFkHszo7BpqkK
QR5oIEBwpXPBttP6QN+JxD8Xa1/BkPz+QAsLqcAFJ43BcoICQdEflsBnVX/Be1zOQDFyTcA2DpDB
qoi5QMhQksDtRIjBE1GlQEN3J8CYhX3BQurSQIhTUMBGUG/BeopnQFGrYkCrRZLB8TLMQICSY0Ck
zJzBFV2fQEn61z9ctY3B8HRoQECGr0DVi4LBMyVJQKLQukCvr47BNJNiQKUeh0BeIaTB

>  <OMEGA_E>  (69) 
ss0SP8rnDj9M2Qc/

>  <OMEGA_NBR>  (69) 
     23226

$$$$
50214107
     RDKit          3D

 71 73  0  0  1  0  0  0  0  0999 V2000
    8.5855    7.4884  -18.4897 C   0  0  0  0  0  0  0  0  0  0  0  0
    8.1563    8.1843  -19.6301 C   0  0  0  0  0  0  0  0  0  0  0  0
    7.6404    6.9803  -17.5777 C   0  0  0  0  0  0  0  0  0  0  0  0
    5.8366    7.8443  -18.9586 C   0  0  0  0  0  0  0  0  0  0  0  0
    6.3687    0.7294  -21.5122 C   0  0  0  0  0  0  0  0  0  0  0  0
    4.6097   -0.7368  -20.6590 C   0  0  0  0  0  0  0  0  0  0  0  0
    6.6742   -1.6886  -21.5429 C   0  0  0  0  0  0  0  0  0  0  0  0
    6.7799    8.3360  -19.8685 C   0  0  0  0  0  0  0  0  0  0  0  0
    6.2497    7.2020  -17.7772 C   0  0  0  0  0  0  0  0  0  0  0  0
    5.0961    0.5582  -20.9239 C   0  0  0  0  0  0  0  0  0  0  0  0
    7.1620   -0.3933  -21.8081 C   0  0  0  0  0  0  0  0  0  0  0  0
    5.3942   -1.8588  -20.9774 C   0  0  0  0  0  0  0  0  0  0  0  0
    5.7009    8.0061  -21.9997 C   0  0  0  0  0  0  0  0  0  0  0  0
    6.3183    8.8811  -21.1295 C   0  0  0  0  0  0  0  0  0  0  0  0
    6.8504    1.5079  -18.0266 C   0  0  0  0  0  0  0  0  0  0  0  0
    5.3574    8.2684  -14.2743 C   0  0  0  0  0  0  0  0  0  0  0  0
    4.8306    8.8955  -15.5752 C   0  0  0  0  0  0  0  0  0  0  0  0
    6.3449    7.1237  -14.5587 C   0  0  0  0  0  0  0  0  0  0  0  0
    4.1661    7.8212  -16.4412 C   0  0  0  0  0  0  0  0  0  0  0  0
    5.7234    6.0614  -15.4957 C   0  0  0  0  0  0  0  0  0  0  0  0
    5.1620    6.6873  -16.8097 C   0  0  0  0  0  0  0  0  0  0  0  0
    5.3282    8.3564  -23.4169 C   0  0  0  0  0  0  0  0  0  0  0  0
    6.5431   10.3550  -21.4181 C   0  0  0  0  0  0  0  0  0  0  0  0
    7.1682    0.4880  -16.9376 C   0  0  0  0  0  0  0  0  0  0  0  0
    4.2861    1.7602  -20.5070 C   0  0  0  0  0  0  0  0  0  0  0  0
    5.0956    4.5240  -17.9733 C   0  0  0  0  0  0  0  0  0  0  0  0
    5.0800    2.5876  -19.4793 C   0  0  1  0  0  0  0  0  0  0  0  0
    4.2247    3.7165  -18.9209 C   0  0  2  0  0  0  0  0  0  0  0  0
    5.5193    1.7266  -18.3628 N   0  0  0  0  0  0  0  0  0  0  0  0
    4.3443    5.6906  -17.5174 N   0  0  0  0  0  0  0  0  0  0  0  0
    7.7656    1.9963  -18.6811 O   0  0  0  0  0  0  0  0  0  0  0  0
    3.7710    4.5504  -19.9878 O   0  0  0  0  0  0  0  0  0  0  0  0
    8.3933   -0.2271  -22.3412 F   0  0  0  0  0  0  0  0  0  0  0  0
    4.9194   -3.0999  -20.7323 F   0  0  0  0  0  0  0  0  0  0  0  0
    9.6406    7.3425  -18.3114 H   0  0  0  0  0  0  0  0  0  0  0  0
    8.8775    8.5996  -20.3185 H   0  0  0  0  0  0  0  0  0  0  0  0
    7.9746    6.4171  -16.7189 H   0  0  0  0  0  0  0  0  0  0  0  0
    4.7828    7.9591  -19.1654 H   0  0  0  0  0  0  0  0  0  0  0  0
    6.7322    1.7217  -21.7346 H   0  0  0  0  0  0  0  0  0  0  0  0
    3.6353   -0.8674  -20.2118 H   0  0  0  0  0  0  0  0  0  0  0  0
    7.2816   -2.5515  -21.7730 H   0  0  0  0  0  0  0  0  0  0  0  0
    5.4714    7.0124  -21.6442 H   0  0  0  0  0  0  0  0  0  0  0  0
    5.8693    9.0438  -13.6856 H   0  0  0  0  0  0  0  0  0  0  0  0
    4.5076    7.8724  -13.6989 H   0  0  0  0  0  0  0  0  0  0  0  0
    4.0935    9.6749  -15.3318 H   0  0  0  0  0  0  0  0  0  0  0  0
    5.6686    9.3436  -16.1293 H   0  0  0  0  0  0  0  0  0  0  0  0
    7.2455    7.5381  -15.0352 H   0  0  0  0  0  0  0  0  0  0  0  0
    6.6207    6.6445  -13.6077 H   0  0  0  0  0  0  0  0  0  0  0  0
    3.3210    7.3877  -15.8863 H   0  0  0  0  0  0  0  0  0  0  0  0
    3.7968    8.2868  -17.3668 H   0  0  0  0  0  0  0  0  0  0  0  0
    6.4970    5.3244  -15.7572 H   0  0  0  0  0  0  0  0  0  0  0  0
    4.9021    5.5582  -14.9644 H   0  0  0  0  0  0  0  0  0  0  0  0
    4.8507    7.4890  -23.8962 H   0  0  0  0  0  0  0  0  0  0  0  0
    4.6277    9.2046  -23.4128 H   0  0  0  0  0  0  0  0  0  0  0  0
    6.2341    8.6318  -23.9768 H   0  0  0  0  0  0  0  0  0  0  0  0
    6.1355   10.6014  -22.4097 H   0  0  0  0  0  0  0  0  0  0  0  0
    6.0354   10.9601  -20.6525 H   0  0  0  0  0  0  0  0  0  0  0  0
    7.6215   10.5716  -21.4010 H   0  0  0  0  0  0  0  0  0  0  0  0
    8.2552    0.3252  -16.8929 H   0  0  0  0  0  0  0  0  0  0  0  0
    6.8139    0.8656  -15.9671 H   0  0  0  0  0  0  0  0  0  0  0  0
    6.6644   -0.4625  -17.1674 H   0  0  0  0  0  0  0  0  0  0  0  0
    4.0716    2.3809  -21.3894 H   0  0  0  0  0  0  0  0  0  0  0  0
    3.3405    1.4256  -20.0554 H   0  0  0  0  0  0  0  0  0  0  0  0
    5.3744    3.9035  -17.1089 H   0  0  0  0  0  0  0  0  0  0  0  0
    6.0053    4.8525  -18.4974 H   0  0  0  0  0  0  0  0  0  0  0  0
    5.9597    3.0199  -19.9785 H   0  0  0  0  0  0  0  0  0  0  0  0
    3.3740    3.2927  -18.3671 H   0  0  0  0  0  0  0  0  0  0  0  0
    4.8162    1.2731  -17.8151 H   0  0  0  0  0  0  0  0  0  0  0  0
    3.6232    5.3786  -16.8988 H   0  0  0  0  0  0  0  0  0  0  0  0
    3.9319    6.1308  -18.3150 H   0  0  0  0  0  0  0  0  0  0  0  0
    3.2269    4.0424  -20.5780 H   0  0  0  0  0  0  0  0  0  0  0  0
  1  2  2  0
  1  3  1  0
  2  8  1  0
  3  9  2  0
  4  8  2  0
  4  9  1  0
  5 10  2  0
  5 11  1  0
  6 10  1  0
  6 12  2  0
  7 11  2  0
  7 12  1  0
  8 14  1  0
  9 21  1  0
 10 25  1  0
 11 33  1  0
 12 34  1  0
 13 14  2  0
 13 22  1  0
 14 23  1  0
 15 24  1  0
 15 29  1  0
 15 31  2  0
 16 17  1  0
 16 18  1  0
 17 19  1  0
 18 20  1  0
 19 21  1  0
 20 21  1  0
 21 30  1  0
 25 27  1  0
 26 28  1  0
 26 30  1  0
 27 28  1  0
 27 29  1  0
 28 32  1  0
  1 35  1  0
  2 36  1  0
  3 37  1  0
  4 38  1  0
  5 39  1  0
  6 40  1  0
  7 41  1  0
 13 42  1  0
 16 43  1  0
 16 44  1  0
 17 45  1  0
 17 46  1  0
 18 47  1  0
 18 48  1  0
 19 49  1  0
 19 50  1  0
 20 51  1  0
 20 52  1  0
 22 53  1  0
 22 54  1  0
 22 55  1  0
 23 56  1  0
 23 57  1  0
 23 58  1  0
 24 59  1  0
 24 60  1  0
 24 61  1  0
 25 62  1  0
 25 63  1  0
 26 64  1  0
 26 65  1  0
 27 66  1  6
 28 67  1  1
 29 68  1  0
 30 69  1  0
 30 70  1  0
 32 71  1  0
M  CHG  1  30   1
M  END
>  <OMEGA_C>  (70) 
Ol4JQfag70D96pPBXYACQczyAkGICp3B/n30QFde30Akn4zBasW6QKUE+0BHq5fBMMzLQDa3Oj//
GKzBSoKTQC6cPL+eRaXBZpPVQLEk2L/TV6zBJvXYQBhgBUG18p7Bav3HQAJ35kC9N47B5BKjQPji
Dj80ZKfBRC/lQFFeyb7sdq7BJJ2sQCXu7b/G0afBiG22QAIZAEFU/6/BpC/KQCEZDkFNCanB0Dbb
QNUCwT+FNpDB0m+rQDtLBEFbY2TBXpSaQBBUDkEWNHnBRgnLQPr040BP8GjB9FCFQCBH+kCMh4PB
UCa3QET3wUAw7nfBKi+lQHL+1UBPeobBlICqQOezBUHnVbvBNGHRQESuJUFZWKvB8mHlQP3Z+T5N
gIfB6CeJQKdN4T9QDqTBZg+jQH/EkEBdyY/BUI+iQOWaJUCy1ZvBsDCHQH7bbUDzXZfBLJ6wQFYB
3T8Y55LBegSLQJYZtkCmI4zBIoD4QOiG/z/TcpXBl1dxQDqdkUDt5p/B6UoGQa6NaL6yurLBqGud
QCllRsDZ26XBEUAaQZf16kDQfZLBRgoOQdmXCUFNjKLB/C//QH1YzUBiwIXBtAyZQKyw/kCwUpnB
1m3XQNxh3D994K3B2qhoQPMQXr/OsaHBlwLpQAZMI8AuL67BxhWvQNxl4EBPJ63BqtG7QIezEEEI
+FrBUT6QQADr+0B/LlvBIv6CQHbMGkEcT3XBHGW1QER/FUHdCIHBOdvnQFQ48UAukHDB79zTQJuf
1EA2uVnBqYtUQP9n7EBYLn7BBP9yQKuWBEFF74rBLufPQGNhqkBjHXzBHd6cQLLcsUBUbm/BEDmb
QCGm70BUK7/BUxaUQNdFE0FmTbvBIn7HQPwbCkFr0L/BAVbEQFCfKUEIR7PBOCLBQGBcL0FMOKXB
9eLzQDslKUFDNavBMhUEQe+Apj61JIfBcAvaQPOXXT9seX/Bm0LVQODJ7L7BVonB2UqCQAthGECG
HavBIctVQMZ5tj+McaDBt/qrQN/SeUDv3ojBISvAQE1Hm0C1+pPB6rW+QGFGQUAI1J/BEfBXQAW7
UkC775LBnB6aQKX1oj9GhY7BMOJnQE4drEDVMIfBMKR7QK8vxEAehZLB24VOQDBbgUC8n6TBHH4N
QQ284UD9b5DBSIwKQdvq+EDy65nBMLj3QP+M1kDrHYrB7DXIQEeI+EAq+ZbBkcfJQMCLMD/AkqzB
fGySQBL/O79HxqTBoDXSQPD83b+Ir6zBmGjrQBZdAkHwU53B9+PNQGgX40CmKY3BPxKiQDWMDD/3
T6fBH/HhQCjk5r4vL6/BQleqQGAB8L+SiKfBTy4DQfiQFkHiKq3BxQTkQP/RD0ESBKfBtjzaQDrh
wz8c8I/Bsl2oQDagBkG0VGXBUqyeQL9eEEF5ZXvBQjPEQMPO5ECsNmfB69aIQNtO/0CY14TBCSmw
QJnEw0C3vHbBuOOlQBh710Cbi4bBSlABQcYZJ0Hg57XBHxW2QBpQFkEv8anBeRrjQAUwBz/EAofB
SBGJQNEE4z8BCqTBpHSjQHkxkkCO9o/BVRujQPD2JkBw/ZvBaHeIQFzvcUAK4pfBaP+vQNzs4T/s
3JLB8h2MQIHruEDPyYzBhjP4QLIQ/z/WFZXB5rt5QMnWk0DAp6DBLhsEQXReoL72GbTBYhabQJS+
RsB9MKXBcGgdQdV32EAZ/43BKkIYQebvAEERrp7B1G78QOZDxEBv4YLBIjSoQFrH/0C4rpnB3ZnV
QL8X1j+ol67B3TZoQDV/V79tt6DB6rXkQPAPJ8A3uK7Bd7MSQcefD0G8n6vBDmq5QLuJEkHpklvB
owCKQOJmAkEzfl3BUVmJQFY8HkHScHnBNMK8QFGNFUHsdYHBTAfkQKLn7UCgMm3BHGTHQFMe1kCP
TFfB5pVVQGEY9UDrCIHBW8uBQBHqBkGjqYzBncXGQC0jqUBD5HjBwUuSQMiht0AUq2/BjBcRQZOt
KUHhlbnBmvrrQLtzIUGLBbzBoPv2QBg8NkEDfLLB0IC2QDsgIEEgP7HBhceiQEzcB0E2VavBFQ6o
QKmZH0E7V6PBZOECQZZGsz7obIbB/D3XQNkrbj+HwH7B/7DSQKap1r5yyojBVDyCQN+GGEB5KavB
UpRVQB8suz8nTqDBJtKpQETYfEC+24jB2PPBQIs6m0CJu5PBHMC/QIwBQED/CKDBaZNXQE5KWUC0
0JPBluyYQFnzqj9jg47B3eNlQBQnsECdXIjBu+aBQI+px0DfaZPBVgZYQDAHhEDOl6XBXz4HQWSU
80DzrJTB7YX9QJyPBUGERp3BVwHzQKV44UB+94zBram1QN65+kAtDpfBTHjJQDDcOj+BOa3Bj4KT
QJTDMb/I1aTB+1fTQEMa2L+ZwazBHMjQQETFB0E6VZ7ByfzFQCAP5kCP9o3BZBqiQMgAFj9j0KfB
vxniQCdv0L63qq/BRwGsQFhV6r+9W6fBY5KZQJDsIUFsVKPBk0y+QNnGFkEfKqbBJjXbQDeiwT+9
nJDBG8+sQC27AUGcK2LBjJ+aQMV5DEEcT3bBgUDNQAFO4EDmBGjB0zGFQPAy90AAPILB5865QDP8
vkCBgXfBvGSlQBAA1EDZ2YXBwvSIQEc+NUGlPKnBOBTWQOAAG0EAkrDBghXlQKs1Cz/lgofBMBGJ
QIte5z98haTBkIijQCgzkEBKwo/B1eCiQKcPJ0C0O5zBCcSHQCEpb0B3mJfBI7ewQBGZ3D8McJPB
lgaLQBoetECxdYvBpVf4QH0CCkB3s5TBY8FzQHNok0C+95/BovEDQXOaib67z7TBk9KdQMK1Q8CR
iqTBbFYYQV5d70AG+pPBR1QJQdHhDEF8DKPBph4AQcYL0EBwR4bBSJOTQOOb+kCaepjBR6vUQBEa
2z+lfK/BphZrQEx3Tb9enqDBMTHmQBrxI8DPqa7BhMeHQDBnHEHVdJzB1Nq8QMjkDUFATFjBuWGS
QGkV9UCzCFnBW+GCQDmZGEEQonHBnby0QIYwFEGmPX/B3C7pQEQ570CZtG/BWGzXQCLsz0CCS1nB
GThWQM8F6EDMaHvB4ABwQMx/A0F+X4nBdUfTQJwDqUDpsHzBUe2gQLHfrEBz9m7BngpXQKv9OkE2
XKXB4D+hQN/5QUF+FanBAPuBQLPcMEFelLHBGuPDQMyBJkGQb7XBcOT1QA+iIUFPyK7BjKrZQHXs
C0G6BLXBHcwDQXP9Dz/hyIXB8DLTQPT7Vz9VUoDBiZHbQCx38r553YnBmvyCQH3gG0ColavB789U
QHajvz+/+6DBW1KtQJHidUB/L4nBTCLAQDRNnEDV5pPBJBq/QMbDQkDPMKDBI2BYQFC6U0DrVZPB
lh+aQCJhnz9UQo/B7btqQC2kqEAaUYbBZBd4QLmowkDMhZHBawhRQO3jg0CH2qTBfXEMQX7K6EBs
HJHBI3IIQYPe/0DHh5rBHtP2QI372kDAoorBPkrEQOTE+kA5EJfBMHPHQBCxRz+j7KzBcy6VQLag
SL9EtKTBe6nUQKQyz7+C5q3BfXLmQC8kBEHWsp3BjPrLQPwm5UCzVY3BlJqhQDr4CT/HE6fBVSLh
QOr9l77gO7DBgZOuQP9L7r+KL6jBmhu2QJ0zD0E8LKzB+UjdQNxzEUGPMafBWSzcQNzgxj+PBpDB
ESOnQB84A0Gc0mLB9F+cQO+MDkHI/HfBMu7EQEoV4ECDlGbB5H+HQOOQ/UA81YPBOeexQKnHwEAk
LnfBVmulQIYe10B+XIbBU4aeQBUZIkHswrDBKFL8QMA4I0EBVKrBRXXnQCkuCz+kUYfBsSeHQH2a
2T9NHKPBc5qiQHEGkkCWx4/B5umhQGzuJECafZvBuviGQEAhb0DFRZfBhz+xQF1G4T8ccJLBaXeL
QLD4uEDBrYzBGMv4QI8LA0DMdJXB2pByQEeKkUD6BaDBbOkCQaY/d70lorXBz5WiQItYSMCI+KXB
srYcQXeY4UDS0o7BsqAVQZCWBUFUWZ/BCV79QEJvyEAGiIPB9LyjQKuPAEENfpnBXK7QQPNs5T9W
267BbnhwQNMleL81OaDBC0zoQOuQHMACfrDB5gGoQLfy/kDsyqzByQe3QKmkDkEwDFjB9lCJQEEW
+0AmZFvBlh2GQEjPG0HFz3TB6fa5QDjjFEHdG3/BEffjQFPO60C2dmzBspnJQAQOz0DIWlfBBWNT
QCxj8UDrRoDBeSOAQK49B0HbU4vBQsDJQIvNp0C2lnrBYg6VQC8FskA+TnDBkDiAQEmsHEHIUrTB
r82XQC2yLUH2W6rBJVOyQLy8KUE39LbBKHLwQHpkK0HpiLHBlun+QO3MLkGCu6PBOf8NQRdJHEG4
+avBSygFQSajyD6HJofB1LTcQDGRbD/5BX/BPXrXQOmL075NBInBkkp5QOeKE0D1+KnBYvhVQEmQ
qD+20J7BRhWqQJFVfkCUlojBl4DAQEnamkCu3ZPBLmu9QK7bPkCG7J/BCKVWQOurVUBa2pLBNl6b
QKLaqT8pvY3Bg/5jQEN9sEAKU4jBpLiBQJHZx0BHVJPBav5PQIsAgUB3tqTBvqvPQMbqB0EEH6DB
Cvb7QGV+CEEQH57BZs2zQKc7/UBfj5jBCnLwQBQP6kCXdI3BHnLMQELLPj8raqzBlIiSQMLrJr8z
g6XBjZnSQCWE179q/qzBSjcGQRmK/kDZopTBdA3EQACP6kDqBY/B0NKjQHxbHz86l6fB1ufjQBHN
0L4/Dq/BksepQHHt5r9TSqjBqB4mQTDE6UCTIorBN1kcQfZmA0G9AJHBHGTYQJE3rj8xw4/B9bys
QGXZ/0ASL2HBkzmdQD+ODEEIzXTBQjrNQG2z3UAd4GfBGtqGQCH++kBsXILBkOe6QIfvv0CoXHnB
gGilQImh10BigIbBkfw4QSJN9EBx94LBeUomQQsKGUHHrZPBLC/eQPN5nj75BofBhYGLQOtH7T8O
S6TBXaajQDoekkCYkI/BvpikQMUIKECvrZvBL5iJQL+vckATpJfBBQivQHsG3j90m5LBFAyLQEyh
t0BiBozBHKP3QMf03j8e3JTBSuJ9QIf6lEArVKDB8HMFQXUClL7vobPBxtGYQH2nQcD6dKbBMQbD
QJCWDkH7b6fBoacIQWDyD0F9zaPBzr+RQKEu/UDLCJrBMHb9QL+a2UDzlobBfn/ZQPGb3D9uE67B
sPVmQP5uPr/byqHBGaDkQIl2JMDQBK/BpNwfQUiRyUAZ44nBtOe7QNX9CkHEylXBqi+RQDk+8EAd
f1nB94+GQBv7GEFom2/Bq9S4QK4fFEEurHzBTwzqQJua7UBUHG7BTr/VQCleykBQzFnB++1WQGPG
60A8s3zBbsV2QKTwBkEbNonBAjzVQMkVrEBdhX/BGZyiQA5Gq0D+6XHBTZA9QUWy10AfwXzB1JRG
QfrA/kAs6IfBR380QWwNB0H81XrB+6o2QeO5GUFaeZDB9LwmQbEgG0HuaZzBHaIcQVLfJUGGFJDB
3A4AQVl/wTx7h4bBh8fTQLVcOT/Bmn7BIdLKQFayE79O9IjB5NGGQN4TIEBrT6vBaFpYQOtvxz+E
DaHBN7+qQKUbe0CHpYjBscnBQAqynEBnQ5PBGkPCQJQSQUDnO5/BwP1YQEjFWUCbypPB+cyWQIFJ
sD+uO47BNSNoQGjMrUB0B4fBCnF7QNNaxUAhcJLBjhJdQD2mhUDRc6XB

>  <OMEGA_E>  (70) 
0LiFPszfhT6kWoI+KOymPuA16j4=

>  <OMEGA_NBR>  (70) 
      5881

$$$$
50167944
     RDKit          3D

 67 69  0  0  1  0  0  0  0  0999 V2000
    7.4558    7.3190  -17.9430 C   0  0  0  0  0  0  0  0  0  0  0  0
    7.8999    8.0114  -19.1693 C   0  0  0  0  0  0  0  0  0  0  0  0
    4.5986   -0.6170  -20.8223 C   0  0  0  0  0  0  0  0  0  0  0  0
    6.4189    0.8285  -21.5765 C   0  0  0  0  0  0  0  0  0  0  0  0
    6.6659   -1.5947  -21.6704 C   0  0  0  0  0  0  0  0  0  0  0  0
    5.1230    0.6723  -21.0374 C   0  0  0  0  0  0  0  0  0  0  0  0
    5.3667   -1.7489  -21.1454 C   0  0  0  0  0  0  0  0  0  0  0  0
    7.1933   -0.3049  -21.8816 C   0  0  0  0  0  0  0  0  0  0  0  0
    6.0794    7.2934  -17.8306 C   0  0  0  0  0  0  0  0  0  0  0  0
    6.8373    8.4436  -19.9299 C   0  0  0  0  0  0  0  0  0  0  0  0
    6.7866    1.5000  -18.0020 C   0  0  0  0  0  0  0  0  0  0  0  0
    5.5261    8.1345  -14.1832 C   0  0  0  0  0  0  0  0  0  0  0  0
    4.8452    8.7939  -15.3919 C   0  0  0  0  0  0  0  0  0  0  0  0
    6.5780    7.1041  -14.6342 C   0  0  0  0  0  0  0  0  0  0  0  0
    4.1693    7.7193  -16.2460 C   0  0  0  0  0  0  0  0  0  0  0  0
    5.9711    6.0391  -15.5692 C   0  0  0  0  0  0  0  0  0  0  0  0
    5.1894    6.6710  -16.7577 C   0  0  0  0  0  0  0  0  0  0  0  0
    7.0388    0.4102  -16.9653 C   0  0  0  0  0  0  0  0  0  0  0  0
    5.9523   10.4136  -21.1745 C   0  0  0  0  0  0  0  0  0  0  0  0
    6.3934    8.2329  -22.3578 C   0  0  0  0  0  0  0  0  0  0  0  0
    4.3319    1.8818  -20.6066 C   0  0  0  0  0  0  0  0  0  0  0  0
    5.1258    4.5222  -17.9417 C   0  0  0  0  0  0  0  0  0  0  0  0
    6.8813    9.1793  -21.2440 C   0  0  0  0  0  0  0  0  0  0  0  0
    5.1085    2.6423  -19.5161 C   0  0  1  0  0  0  0  0  0  0  0  0
    4.2625    3.7677  -18.9373 C   0  0  2  0  0  0  0  0  0  0  0  0
    5.4812    1.7188  -18.4262 N   0  0  0  0  0  0  0  0  0  0  0  0
    4.3625    5.6502  -17.4149 N   0  0  0  0  0  0  0  0  0  0  0  0
    7.7391    2.0510  -18.5439 O   0  0  0  0  0  0  0  0  0  0  0  0
    3.8511    4.6515  -19.9808 O   0  0  0  0  0  0  0  0  0  0  0  0
    4.8608   -2.9842  -20.9355 F   0  0  0  0  0  0  0  0  0  0  0  0
    8.4463   -0.1547  -22.3670 F   0  0  0  0  0  0  0  0  0  0  0  0
    5.3309    8.0217  -19.2088 S   0  0  0  0  0  0  0  0  0  0  0  0
    8.1284    6.8837  -17.2188 H   0  0  0  0  0  0  0  0  0  0  0  0
    8.9354    8.1609  -19.4375 H   0  0  0  0  0  0  0  0  0  0  0  0
    3.6076   -0.7358  -20.4096 H   0  0  0  0  0  0  0  0  0  0  0  0
    6.8148    1.8175  -21.7543 H   0  0  0  0  0  0  0  0  0  0  0  0
    7.2576   -2.4656  -21.9109 H   0  0  0  0  0  0  0  0  0  0  0  0
    6.0193    8.9114  -13.5806 H   0  0  0  0  0  0  0  0  0  0  0  0
    4.7638    7.6268  -13.5741 H   0  0  0  0  0  0  0  0  0  0  0  0
    4.0895    9.5118  -15.0404 H   0  0  0  0  0  0  0  0  0  0  0  0
    5.5991    9.3210  -15.9950 H   0  0  0  0  0  0  0  0  0  0  0  0
    7.3845    7.6286  -15.1676 H   0  0  0  0  0  0  0  0  0  0  0  0
    6.9908    6.6043  -13.7455 H   0  0  0  0  0  0  0  0  0  0  0  0
    3.4068    7.2087  -15.6394 H   0  0  0  0  0  0  0  0  0  0  0  0
    3.6883    8.2007  -17.1103 H   0  0  0  0  0  0  0  0  0  0  0  0
    6.7843    5.4173  -15.9717 H   0  0  0  0  0  0  0  0  0  0  0  0
    5.2817    5.4095  -14.9875 H   0  0  0  0  0  0  0  0  0  0  0  0
    8.1221    0.2634  -16.8429 H   0  0  0  0  0  0  0  0  0  0  0  0
    6.5986    0.7107  -16.0031 H   0  0  0  0  0  0  0  0  0  0  0  0
    6.5773   -0.5299  -17.3020 H   0  0  0  0  0  0  0  0  0  0  0  0
    5.9839   10.9513  -22.1336 H   0  0  0  0  0  0  0  0  0  0  0  0
    4.9220   10.0859  -20.9717 H   0  0  0  0  0  0  0  0  0  0  0  0
    6.2900   11.0816  -20.3685 H   0  0  0  0  0  0  0  0  0  0  0  0
    6.4204    8.7581  -23.3239 H   0  0  0  0  0  0  0  0  0  0  0  0
    7.0485    7.3503  -22.4019 H   0  0  0  0  0  0  0  0  0  0  0  0
    5.3628    7.9142  -22.1426 H   0  0  0  0  0  0  0  0  0  0  0  0
    4.1726    2.5426  -21.4714 H   0  0  0  0  0  0  0  0  0  0  0  0
    3.3590    1.5600  -20.2068 H   0  0  0  0  0  0  0  0  0  0  0  0
    5.4110    3.8519  -17.1175 H   0  0  0  0  0  0  0  0  0  0  0  0
    6.0320    4.8917  -18.4441 H   0  0  0  0  0  0  0  0  0  0  0  0
    7.9096    9.5046  -21.4603 H   0  0  0  0  0  0  0  0  0  0  0  0
    6.0174    3.0714  -19.9631 H   0  0  0  0  0  0  0  0  0  0  0  0
    3.3906    3.3419  -18.4192 H   0  0  0  0  0  0  0  0  0  0  0  0
    4.7484    1.2193  -17.9640 H   0  0  0  0  0  0  0  0  0  0  0  0
    3.7038    5.3011  -16.7484 H   0  0  0  0  0  0  0  0  0  0  0  0
    3.8732    6.0811  -18.1731 H   0  0  0  0  0  0  0  0  0  0  0  0
    3.3112    4.1781  -20.6028 H   0  0  0  0  0  0  0  0  0  0  0  0
  1  2  1  0
  1  9  2  0
  2 10  2  0
  3  6  2  0
  3  7  1  0
  4  6  1  0
  4  8  2  0
  5  7  2  0
  5  8  1  0
  6 21  1  0
  7 30  1  0
  8 31  1  0
  9 17  1  0
  9 32  1  0
 10 23  1  0
 10 32  1  0
 11 18  1  0
 11 26  1  0
 11 28  2  0
 12 13  1  0
 12 14  1  0
 13 15  1  0
 14 16  1  0
 15 17  1  0
 16 17  1  0
 17 27  1  0
 19 23  1  0
 20 23  1  0
 21 24  1  0
 22 25  1  0
 22 27  1  0
 24 25  1  0
 24 26  1  0
 25 29  1  0
  1 33  1  0
  2 34  1  0
  3 35  1  0
  4 36  1  0
  5 37  1  0
 12 38  1  0
 12 39  1  0
 13 40  1  0
 13 41  1  0
 14 42  1  0
 14 43  1  0
 15 44  1  0
 15 45  1  0
 16 46  1  0
 16 47  1  0
 18 48  1  0
 18 49  1  0
 18 50  1  0
 19 51  1  0
 19 52  1  0
 19 53  1  0
 20 54  1  0
 20 55  1  0
 20 56  1  0
 21 57  1  0
 21 58  1  0
 22 59  1  0
 22 60  1  0
 23 61  1  0
 24 62  1  6
 25 63  1  1
 26 64  1  0
 27 65  1  0
 27 66  1  0
 29 67  1  0
M  CHG  1  27   1
M  END
>  <OMEGA_C>  (71) 
/pXuQKQ16kBQi4/BXsz8QK0uAEG3WpnBWSeTQGTzHb8ElKbBp2fNQC0YVD/BnKzBNU/VQIAezL/z
XK3BYu+jQEgeLD+eTKjB8LurQCXc37/LKanBjy/mQA8dnL6YDa/BVorCQM1j6UADpY7BccvaQM4Y
B0FwcJ/BryvZQAYAwD8rBJDBttWwQAsnAkGB7mLBiAubQOuzDEFIRXbBOX/SQApV40B7JWrB42qF
QK4E90DA94HBUBO/QE9AwUBfG3nBQg+mQDt51UDCD4bB0T3hQOgC0j7ouIfBg3m+QBKeJkFyZanB
mpbMQPK5A0G33LLBJJ+KQMje8D9S2qTB5QakQL21kECtiI/BkDPcQIjeEkHC86nBwHijQFYbKUD6
IJzBWWaIQMshcUCLf5fB62WvQJEB3D/HaJPB7JmLQBrOtEDEUYvBxKb3QFdEA0AAWpTBEnl2QMLY
lECb2J/BeYubQCD9PsD6e6fB2SMHQdJ1Hr6L77LBsZaqQO9YAEGGq5nBCA4CQQdH3EAywInBVvcO
QQiTAkHxf5vB7eJmQG9cPL/bRqPB2hLaQISi6D/hCK7BKD7oQE/MHcB7Sa/BHZ7AQCqVDkEJSlnB
yXCYQK0O9EBpL1nB69yCQHYwGEGWpXDB9iuzQOYiFUGK63/BrU3sQB8d9ECrrnLB2bTfQGdW00Bq
7VvBpwlaQOit5kDoOnrB1A1sQPg1A0HM4YjBYBnZQKZarUAbjH/BxwOpQNwarUC9zG/BAvQBQcXh
hj4+vobBrCfTQL3xNT9ABoDBSnnSQAelB79raorBwHu/QLY4L0GiEbHBUoGdQAVgIUETxqfBBkjJ
QD9OMUGp8qLBN3TNQCYhDEFil7rBEY3hQO8160AIN7PBCZyrQAdB/UD2I7HBt4WFQCG6IkB/xavB
cPlWQOKuxz+Rp6HB5SatQDWFdkCg8IjBJAbBQK+InEB5jZPBZhv9QAcTGEGnrqvBWo7AQOSRREBj
tJ/BHP9YQOHgVUCBWpPB6vKXQDgTnD9Zto/ByQptQMiiqUDK/IXByuF3QGiYwkB1YpHBHepTQCWz
hUBy0qTBesPrQIk27UBylJDBffb2QK7lAEG715rBE2bNQMp1Sj8TnKzBZS6TQL/FIr/fRabBqFnV
QIIy0b9t2KzBLOujQDLeJT9/R6jBkS7mQIxRs75y0a7BWcmrQEJG4796nKjBmkfAQAu95kDZoI/B
kIPTQH5dBEGgNKHBdVrZQD2Ntz+ZcZDBecSxQGcXA0Hib2TBhHqcQNg8DUHYGXjB2FPTQFfV5EBO
PmvBI/iFQJif90DtjYLB5iHAQFMZwkC95HnBGrKlQI7J1ECwbYbBPmThQPod2z5Af4fBO6b5QPe5
G0Hpu67BVvyqQNVQIEH0RKvBQ8mKQF3/7j8s+qTBZHOiQIBpjkBAFY/B5hTQQGDsD0FL2KvB4EKj
QIytJ0DQJJzBU7eHQKKkbkDab5fBqF+vQMgy2D/hfZPBe2OKQIoBs0Cx9YrBnXT3QLgsBEAqNZTB
IhV3QMBclEB3tp/BRiEHQQLhWb4QvbLB1aSbQEBXQMA+qabB/fWlQLcQ9UADRpvBxWwBQfFO5EBL
jIrBg5YLQYg2BUEEHJ3B+BPaQOE14z9MOa7BmPZmQAKBPr8t8aLB7k/oQEiyIMBHlK7BHYPBQMyu
D0F9/VrBDSaZQF9y9kBEn1rBaeWEQAc3GUHz4HLBuPq0QLwEFUFzB4HBRD/tQPs29UAf43PBmV3g
QKRs1UAV01zBv71aQMJ86EBmDHvBgWltQMU1A0GBkYnBB3LaQKzFrkCBPIDB/AarQGWWrUD/PHDB
uNoBQZ4z0j4li4XBDgTPQDhVOD9GXYDB3jzXQCOVEr/1IIrB5bb1QPHYI0GgerbBS3YAQXWhJ0FD
g6jBVgkKQTEmEEGzRq/Bjk6oQPnCKEH39bLB39aMQDfjF0FpkqnBlHSxQBrxK0Ea3aTBA3qGQL/N
IUCa7avBCpRWQM1hxz8+7aHBct+pQCK2cEAJe4jBzGjAQPStmUC6vpLBROXIQD03BEFIKrLBc0DA
QCEiREAvpZ/BZatWQEt9UkD0mZPBYvSXQGRMmz+vlo/BcCltQEOfqEDnPIXBv6ZyQMaNv0Dn9JDB
FbRVQL+vhUD45aTBWL7rQExu7UCKeZDByjn3QCjwAEHTuZrBrMaSQKZsIb+4TqbBj27NQK53ST9Q
hazBrifVQFLE0b8SpqzBhcGjQFl1Jj9dS6jBLV2rQLAI478qiqjBkDjmQAjxtr6dm67BuDjAQJIU
50Ask4/BnPLTQIBjBEFkJaHBZm/ZQMw0wD9FGpDBfGWwQAafA0FJkmTBNNCaQPloDUG/VXjBG6bS
QIBy5kBhNmvBciiFQEpb90C4ooLBmifAQDoLw0BIuHnBEpilQGj71EC3Z4bBefLhQDXZ3T5LqYfB
Gtj6QLFmG0FZr67BKVasQOWeIEHCM6vBr7uKQMSx7z8MBqXBYC2jQJDLjkAdN4/B3+TQQOTvD0Ht
yavBQ1yjQLD1J0DaNZzB/P2HQDrmbkBpcpfB2J+vQLHO2D/9kJPBwMGKQAjJskBR6orBGLD3QPEW
BEDpcZTBLVp2QDpOlEAitJ/BRv2aQC0GQMAWl6bBQEUHQUJrZr70YbLBEy6mQPZH9UAnRJvBb1YB
QdqD5EBAaIrBnMALQWg5BUGV8pzBe81lQMfrO7+bEqPBekDaQENx4j/sJa7BqBvoQKMoIcDuS67B
nZi/QE5vEEFVM1vBcgqYQFcs90AyulrBFK+CQI0pGUEzOnPBXQuzQFNkFUEnJoHBmD/sQOwv90A3
7HPBU/jfQIaR10AhuFzB43ZZQATp50A2OXvBH5BrQPjTAkHMsonBDtXaQCUFsEBYE4DBiU6rQMph
rkBaAXDBfVUCQXsnnz6VmIbBHmrTQIlBPT99B4DBlePTQPFlBb+MRIrBlSz3QMiHI0GWb7bBOD8B
QXpDJ0HIeKjBlXIKQeucD0G1N6/BHuKpQEIVKUHQ5LLBTe+NQGFvGEEkfqnBuDazQF8yLEHozKTB
WXqGQIAJIkDP/KvBq2tWQG6lyD8T9qHB+6GrQOR3cUAlsYjBupDAQJ21mkDvCJPB1E/JQMFHBEGE
GrLBfEzAQBhlREDAvZ/BKtBXQKWyUkChe5PBi26YQIDAlT96/I/B1gJvQFfQp0C+JIXBDS5yQA81
v0CN0ZDBu3FUQP95hUDFzqTBcs7oQFVD7ECHwZDBNlfzQDY/AkHih5rBT0CSQJbyIr/uPabBh8vL
QISjTj9zt6zBzwHUQNXEzr9CQa3B78GiQLjrJj+bKKjBx8GqQJRu4r9i26jB/YPkQGr4pr6jLa/B
oVO9QOBB60DC247BgDrPQNnUCUGxnZ/BT1baQK8UwT/MQpDB5lizQGPyAUGZ+GLBYhaaQIIaDEH7
cHXBXtzUQJbe40BOXmvBh5qDQI3l9ECVGIHBnLzAQKh5wUBV6HnBgVqkQDEq1UDY8oXBxaPjQIJy
0z4FFojBkL29QFuwBkFIxrLB8BT1QEDIIUFF6KzBIrqJQLmJ7j+dqaTBJOajQI+SkEBzgY/BuErL
QJBXFkFS46nBM1ijQBWAKEBuIJzB/3GIQAmgcECLdpfB2TSwQLh+2z9ucJPBIYqKQMuLs0BQAovB
sTL4QOa0BUDonZTBF8B2QMywlEAvzJ/BUL2aQABEQMCSEqfBeRAGQYz5M76DWrPBd3WhQB3RAkEr
4ZjBQCoAQWcb3UCIr4vBg8YJQVzfBEGwX53BhqhlQGASQb8exaLBMC7YQFbV5T9qT67BWvnmQPAi
H8DhJq/B/sHDQGWlDkFI9lnBDPmcQEL+8kDfVFjBvBeCQM85F0GT827BbySwQOveFEGl/X/B3Snt
QFt69UDPkHTB2CTkQA//00CwpF3BQslbQGhR40DOe3fBYxJiQPPLAUFlm4fBl4/aQNvKrkAesIDB
p82sQFw7rEAtB3DBxzkDQXvBlT5cNYfBqaLVQGLwMD9DU4DBKYfVQKnaCL9z1IrBcpy6QGxlD0HM
YbrBSxjWQHov9EDwnLPBvtSeQCHG/kBkrbDBrIPwQLeiKkE5bbTBD/r9QHQDLUHhgabB+VgHQfTj
FUHI8q3BXwOEQJ8YIUBnmKvBH8VVQC67xT8cRqHBdiauQH3HdUCHEInB/jnAQHCinUA1lZPBaACy
QLpvIkHs8KjBsQnAQKjzQ0Bn5Z/ByPlYQMd5VUDNVJPBoDKZQOH/mj8enI/BC39tQIxip0C5gYXB
+9tyQPjGwECq55DBqVRUQIOZhUCTzKTBbIXpQNhq7EBouZDBvFT0QCJdAkEYeJrBg9/MQOFPUj8C
sKzBT9CSQFviIL88m6bBYtLUQDLvzL9MiK3B8omjQF2dKT++TKjBiKblQFTJnr4+L6/BG1GrQG8Y
4b+uTKnBrvW9QDsz60BM7o7BuFPQQFHKCUHUqJ/BKAjaQNuSuD8Uk5DBPRWzQCeDAkENVGPBL8mZ
QL5qDEEU7HXBZuDUQE8c5UDwjGvBf7aDQBIv9UCCTIHBJuzAQFg1wkBl3XnBvbSkQOlh1UDuBIbB
MnDiQAe72T4SuIfBgN6+QKezBkEW07LBioj2QDWfIUF+8azBA06KQJRx7z9cxaTBnhKkQPOZkEB4
go/BR5fMQFRQFkGi7qnBHHejQKCaKEAyHJzBl2aIQABacEAGaJfB7OqvQK8l2z/4bJPBfNeKQIya
s0AAAYvBKwv4QJtLBEAQcpTB8YR1QP5tlECOtZ/BBdYGQVcbIb4sG7PBqgKbQPe1P8BCxqfBE16i
QFGZAkHWDJnBSnUAQeVa3UCBmYvBcFAKQcAfBUF+N53BdHHZQCPc5z/EH67BbG5mQLP5P7+NPqPB
4LznQHwbHsDBgq/BOkHDQMxYD0FMZ1rB/MWcQF0j9EA2pljBj4uBQFN6F0Gfjm/BNcWvQC81FUGQ
PoDBDf/sQMSy9kCT4HTB+FfkQL2y1UD2vl3B4dBbQAe240DX5HfBZJRiQKTHAUFD4YfBRNPaQPdT
r0C1kYDBFuysQHQ+rUDr3m/BFXICQcuYyj5p7oXBNLTQQKV2Nz/Ze4DBHsXXQF3gEb8sW4rBoOG7
QHNrD0G7brrBYhDXQBYO9EBUqLPBstufQKr//kAovLDB9hnyQCx9KkG2drTBmoz/QE3TLEGxiqbB
9/8HQVCmFUGo+q3BRdaEQIf/IUBprKvBPbBWQPrqxT9GfKHBGoOuQB0KdkDxEInB4kfAQMaenUCU
pZPBRHOzQN58IkHG/ajBs1HAQOVaREBbxJ/B+HRZQNvGVEADM5PB9p+YQCZ6oD+OWI/B3nNuQBCA
p0BYdIXBeRZzQJ21wEAO4pDBN99SQAkzhUDVqKTBc2LuQPXp6kAInI/B4z38QLShAEEycJnBRXvM
QHiJUD9gjKzBGmiSQP2NIb9waabBAWbUQC7ezb/vTa3BiCOjQEGJKD+oKKjB6DjlQMASo74XBa/B
Oe6qQAKk4b/tCanBnV3CQFeg6UBhrI7BzgXaQDR0B0Gqep/BVELZQATSvT/oDpDBfcmvQEinAUE5
m2LBh4maQJ9sDEHI9XXBqs3RQAi14kCy02nBPT+FQBC/9kAZ84HBKBu/QF34wECSMHnBaxOmQKFy
1UB+FIbB0MjhQDIwxz7e04fBzFm8QLjGJkFvWqnBACDMQMs4BEFb87LBDvOJQNwW7z/9qKTBtKCj
QGEPkEDIRo/BwPvaQABhE0HK9qnBxSmjQCVOKEALApzBsGWIQEbxcEB+bpfBCU2vQHzk2j88R5PB
15KLQCXstEDRXovBKYb3QKwDAkCsgZTB1DB5QOEklUAf05/B/ZwGQRfdK74n9bLBi86aQMzkP8AH
VafBWQ+qQHNvAEG2qpnB+hACQZUy3UAX1onBLqYOQbglA0Fmn5vBVxXZQJXc5j9pAa7BCJFlQAcH
QL8oD6PBoEnnQP+pHsBVQq/BBCm/QA75DUE9qVjBbyuXQBer8kCCK1nBMT6CQB/fF0GZYHDB3uyy
QGzvFEHaX3/BAMfrQIzi80BKCHLB6KjeQIlZ0kBWoVvBFHhZQA8h5kCsYnrBuRNsQME3A0FN2YjB
FYbZQLSvrUDysX/BLTCpQOgsrECtKHDBbD8CQdPPcz4HAYfBE0bUQCkpMD/YD4DB/7jSQAteDL+b
eorB+wK9QJx+L0H1/rDB1Z6bQKYiIUE1w6fBBKDGQC9/MUEy3aLBBbTMQAPEDEGPpLrB77PhQMWt
7EB5WbPB7lurQBl4/UAORrHB8Y2EQGHEIUBGkqvBRehVQFXrxT++YKHBejarQGE0dUA0kIjBUH7B
QEzvmkDnDpPBSKj7QFX8GEF9p6vB/DPAQFJIQ0DNqZ/BKLlXQNCAVkCPepPB/PGXQHpYnD82dI/B
JHhrQGOKqkByIYbBbqN5QHyYwkCSl5HBUB9XQIFnhkCg7aTBcSPqQF3M7UCJZ5HBOof4QNqSBkHZ
eJnBwvqLQC4GWL8yP6jBL4TKQBT+Fz8FXKrB5bLMQNjV2b+P0LDB4EqgQFNczT7MiabBLx+iQFUQ
8r+vZ63But3gQHWn6r5fQa/B0mfAQOOO9ECCKo7BK/zYQLMDFUGNJZzBPjLaQHIEvj86D47B6SG1
QNo//kCHPGDB2nqZQBnzCkFa4XDB1ULXQGo14kCqPWvBH4uEQBC+9UBiO4DBZsXCQBiJwkDUO3vB
6EmmQB+Y2UDXLIbBktjiQLiiUT9AP4PBBT7lQODtHkE5aK/B9ZD/QIg+N0GyiKDBvAyHQC7axj+y
qqHBi6OnQIQZl0BRWJHBbFHcQB9tJ0EECaTBuhWjQOsBIEBHq5rBQoiKQPpVckCwzZfBaQ+wQIl5
5T97yJDBmpGNQOFzuUDsb4zBGHT4QHCV6j81qZPBv597QLAKj0CKV6HBVHeOQPTrRMD8I6/BN8sE
QcQxhr6ykrLBDkuqQCPvD0EiGJXBfBP+QAZU1ECHXI7BtiAMQea0BkGs5ZzBBN9WQMZofr8XmaXB
iKTZQCSGxz9Pf6nB69PdQMioIMC7nrTBcy7FQHT1CkFK+VXBy2KgQI7D6UAXYFbBREaAQKv9E0H7
j2jBOsqtQEURFkEG/nnBcL7tQEsH90AL53PBFLDoQJv+z0Dw9F7BIR9eQPKn4EBWV3fBIc1jQAbT
A0GCNIbBbm3cQAwMsUAgw4HBALyuQFPKq0BJSXLBScoCQQ0jPj8H9YHBooDUQEIttj/rp3nBRKnU
QG5RQL7vLoPBSo7nQEJ0LEEoArXBZMQBQQ33FUH3ba/BLwDLQK1NFEFZ5LHB2sMAQfpzREExVKbB
08z3QIeuPUHDk5jBtj8PQeLeLkGUMqDBNKJxQEchCUDsMKjBbuhaQNNtkT/loZzBW9W3QL/AhEAD
BYvBpLG/QGZipUB+r5bBypq9QIEFMEGTJqTB78W/QPCLMUDYRZ/BUdNcQEeLYUCm8ZLBuvuYQPIe
wj9Qs4vBH5JwQAfNq0C6iIfBJkh8QNvXyEClS5LBnHNXQIsDekCodqXB

>  <OMEGA_E>  (71) 
4EQBPgCFQz6wwUY++KxgPrgWYz6ARvk9xEUEPw==

>  <OMEGA_NBR>  (71) 
     13614

$$$$
50167943
     RDKit          3D

 67 69  0  0  1  0  0  0  0  0999 V2000
    5.8462    7.9730  -19.0402 C   0  0  0  0  0  0  0  0  0  0  0  0
    4.6146   -0.6402  -20.7816 C   0  0  0  0  0  0  0  0  0  0  0  0
    6.3908    0.8301  -21.5917 C   0  0  0  0  0  0  0  0  0  0  0  0
    6.6849   -1.5888  -21.6549 C   0  0  0  0  0  0  0  0  0  0  0  0
    7.6549    7.1997  -17.7381 C   0  0  0  0  0  0  0  0  0  0  0  0
    6.2789    7.2886  -17.8123 C   0  0  0  0  0  0  0  0  0  0  0  0
    5.1096    0.6559  -21.0231 C   0  0  0  0  0  0  0  0  0  0  0  0
    5.3985   -1.7611  -21.1048 C   0  0  0  0  0  0  0  0  0  0  0  0
    7.1814   -0.2922  -21.8968 C   0  0  0  0  0  0  0  0  0  0  0  0
    6.8877    8.4326  -19.8046 C   0  0  0  0  0  0  0  0  0  0  0  0
    6.7949    1.4352  -18.0524 C   0  0  0  0  0  0  0  0  0  0  0  0
    5.3765    8.1138  -14.1892 C   0  0  0  0  0  0  0  0  0  0  0  0
    4.8459    8.8284  -15.4415 C   0  0  0  0  0  0  0  0  0  0  0  0
    6.4335    7.0619  -14.5657 C   0  0  0  0  0  0  0  0  0  0  0  0
    4.2272    7.8108  -16.4023 C   0  0  0  0  0  0  0  0  0  0  0  0
    5.8732    6.0388  -15.5715 C   0  0  0  0  0  0  0  0  0  0  0  0
    5.2421    6.7170  -16.8276 C   0  0  0  0  0  0  0  0  0  0  0  0
    7.0663    0.4318  -16.9349 C   0  0  0  0  0  0  0  0  0  0  0  0
    5.6431   10.2963  -20.9575 C   0  0  0  0  0  0  0  0  0  0  0  0
    6.2467    8.1888  -22.1987 C   0  0  0  0  0  0  0  0  0  0  0  0
    4.3081    1.8543  -20.5830 C   0  0  0  0  0  0  0  0  0  0  0  0
    5.1342    4.5376  -17.9665 C   0  0  0  0  0  0  0  0  0  0  0  0
    6.7020    9.1798  -21.1106 C   0  0  0  0  0  0  0  0  0  0  0  0
    5.0896    2.6202  -19.4989 C   0  0  1  0  0  0  0  0  0  0  0  0
    4.2508    3.7530  -18.9229 C   0  0  2  0  0  0  0  0  0  0  0  0
    5.4771    1.7034  -18.4066 N   0  0  0  0  0  0  0  0  0  0  0  0
    4.4135    5.7347  -17.5410 N   0  0  0  0  0  0  0  0  0  0  0  0
    7.7301    2.0561  -18.5467 O   0  0  0  0  0  0  0  0  0  0  0  0
    3.8090    4.6098  -19.9769 O   0  0  0  0  0  0  0  0  0  0  0  0
    4.9189   -3.0031  -20.8741 F   0  0  0  0  0  0  0  0  0  0  0  0
    8.4170   -0.1251  -22.4197 F   0  0  0  0  0  0  0  0  0  0  0  0
    8.4216    7.9907  -19.0978 S   0  0  0  0  0  0  0  0  0  0  0  0
    4.8092    8.1012  -19.3132 H   0  0  0  0  0  0  0  0  0  0  0  0
    3.6341   -0.7726  -20.3487 H   0  0  0  0  0  0  0  0  0  0  0  0
    6.7628    1.8240  -21.7920 H   0  0  0  0  0  0  0  0  0  0  0  0
    7.2906   -2.4512  -21.8912 H   0  0  0  0  0  0  0  0  0  0  0  0
    8.1903    6.7045  -16.9416 H   0  0  0  0  0  0  0  0  0  0  0  0
    5.8304    8.8558  -13.5159 H   0  0  0  0  0  0  0  0  0  0  0  0
    4.5400    7.6166  -13.6764 H   0  0  0  0  0  0  0  0  0  0  0  0
    4.0813    9.5619  -15.1459 H   0  0  0  0  0  0  0  0  0  0  0  0
    5.6759    9.3464  -15.9444 H   0  0  0  0  0  0  0  0  0  0  0  0
    7.2993    7.5694  -15.0160 H   0  0  0  0  0  0  0  0  0  0  0  0
    6.7515    6.5321  -13.6557 H   0  0  0  0  0  0  0  0  0  0  0  0
    3.3729    7.3279  -15.9054 H   0  0  0  0  0  0  0  0  0  0  0  0
    3.8777    8.3391  -17.3015 H   0  0  0  0  0  0  0  0  0  0  0  0
    6.6924    5.3821  -15.8997 H   0  0  0  0  0  0  0  0  0  0  0  0
    5.1003    5.4381  -15.0697 H   0  0  0  0  0  0  0  0  0  0  0  0
    8.1441    0.4079  -16.7167 H   0  0  0  0  0  0  0  0  0  0  0  0
    6.5159    0.7321  -16.0311 H   0  0  0  0  0  0  0  0  0  0  0  0
    6.7341   -0.5679  -17.2513 H   0  0  0  0  0  0  0  0  0  0  0  0
    5.5250   10.8242  -21.9153 H   0  0  0  0  0  0  0  0  0  0  0  0
    4.6812    9.8513  -20.6631 H   0  0  0  0  0  0  0  0  0  0  0  0
    5.9698   11.0077  -20.1847 H   0  0  0  0  0  0  0  0  0  0  0  0
    6.1100    8.7247  -23.1495 H   0  0  0  0  0  0  0  0  0  0  0  0
    7.0101    7.4069  -22.3251 H   0  0  0  0  0  0  0  0  0  0  0  0
    5.2947    7.7266  -21.8984 H   0  0  0  0  0  0  0  0  0  0  0  0
    4.1320    2.5150  -21.4447 H   0  0  0  0  0  0  0  0  0  0  0  0
    3.3433    1.5206  -20.1736 H   0  0  0  0  0  0  0  0  0  0  0  0
    5.3731    3.9177  -17.0898 H   0  0  0  0  0  0  0  0  0  0  0  0
    6.0654    4.8271  -18.4755 H   0  0  0  0  0  0  0  0  0  0  0  0
    7.6584    9.6315  -21.4127 H   0  0  0  0  0  0  0  0  0  0  0  0
    5.9949    3.0468  -19.9556 H   0  0  0  0  0  0  0  0  0  0  0  0
    3.3948    3.3340  -18.3737 H   0  0  0  0  0  0  0  0  0  0  0  0
    4.7494    1.2495  -17.8923 H   0  0  0  0  0  0  0  0  0  0  0  0
    3.6693    5.4535  -16.9351 H   0  0  0  0  0  0  0  0  0  0  0  0
    4.0330    6.1767  -18.3533 H   0  0  0  0  0  0  0  0  0  0  0  0
    3.2569    4.1189  -20.5743 H   0  0  0  0  0  0  0  0  0  0  0  0
  1  6  1  0
  1 10  2  0
  2  7  2  0
  2  8  1  0
  3  7  1  0
  3  9  2  0
  4  8  2  0
  4  9  1  0
  5  6  2  0
  5 32  1  0
  6 17  1  0
  7 21  1  0
  8 30  1  0
  9 31  1  0
 10 23  1  0
 10 32  1  0
 11 18  1  0
 11 26  1  0
 11 28  2  0
 12 13  1  0
 12 14  1  0
 13 15  1  0
 14 16  1  0
 15 17  1  0
 16 17  1  0
 17 27  1  0
 19 23  1  0
 20 23  1  0
 21 24  1  0
 22 25  1  0
 22 27  1  0
 24 25  1  0
 24 26  1  0
 25 29  1  0
  1 33  1  0
  2 34  1  0
  3 35  1  0
  4 36  1  0
  5 37  1  0
 12 38  1  0
 12 39  1  0
 13 40  1  0
 13 41  1  0
 14 42  1  0
 14 43  1  0
 15 44  1  0
 15 45  1  0
 16 46  1  0
 16 47  1  0
 18 48  1  0
 18 49  1  0
 18 50  1  0
 19 51  1  0
 19 52  1  0
 19 53  1  0
 20 54  1  0
 20 55  1  0
 20 56  1  0
 21 57  1  0
 21 58  1  0
 22 59  1  0
 22 60  1  0
 23 61  1  0
 24 62  1  6
 25 63  1  1
 26 64  1  0
 27 65  1  0
 27 66  1  0
 29 67  1  0
M  CHG  1  27   1
M  END
>  <OMEGA_C>  (72) 
DBS7QC8j/0BPUpjB7qqTQO3hI7/DQKbBOoHMQDKAVD/iu6zB7+rVQEVdy79PPa3BK/X0QLxj5kCk
543Ba+zIQHg86UB/f47BM4KjQBfmJz9jL6jBWsCsQP5q4b+n1qjBDc7lQLKclb6wLK/BI2jcQOzr
BkG5b57BFnDZQAu0tz88a5DBXgysQPLRAUEhB2PB5hGbQFJBDUFlEHfBT9/NQLn64UA3DWnBgEWH
QBHy+UDYN4PB9vC7QNM9wUD1JHnBer+nQHPx1kDznobB9h7iQOAY3T6meofBjpS0QJ29JEHrqKfB
zeTHQCwFA0HzlrHBTtyJQGlZ7T/9qaTBvkukQNszkUB2u4/B9HbWQEngEkGT4qjBHd6iQCSxJ0DU
/ZvBpAaIQKgxcEARYpfBUUSvQK8J2j/OQJPBajuNQGaCt0DxU4zB11z3QIqWA0CPX5TBVMZzQHeD
k0DH0J/BoGedQI4yQMA//qbB6qsGQdIiAL6CW7PB1L4GQbez/0BFyJjBmuSZQFGeAUFugZrB25Ro
QFHIRb8hyqLBlmjYQJ156T/+Va7BbEzpQFDgHMBFIa/BpAsDQeWK1kBPiIfBnpK6QEuxDUEmQVjB
cEeRQMi680Ca0lrBQZqCQJj9GEFrVXLBm6C1QPOKFUFgHH/BCpTpQMM48kCCQXDBagzYQOMG0UCV
fVrBpt1XQAt+6kBdfH7Bmyt4QBRtBUGGaYrB2SfWQF86rEAhZX7B3zWjQMsErkBUHXHBcE4CQV3U
0D65u4XBRoLQQHZrOz+YP4DBXX3XQJ5jEb+lAorBfsywQL4vLUGCUq/BZsyVQOqeHUEDTqXBjwi/
QLgfMEFYeqHBNIXDQHKYC0E+MrnBqFLgQLkF7UDFmbLBj26pQCdA90DVL6/BlDmEQCz1IEC2jqvB
2vdVQE2jwj9zY6HBEvCrQCu7ekDit4jBIxjCQO53mkDGzZPBgBH1QNAaGkE7TavB99W/QHr+QkAM
pZ/BXkRZQEtgVUA9/ZLBaPuXQM/wnz+AI4/BEdZqQF6DrkAAe4fBnQ6BQHCnxUCS05LBonFQQEnO
g0AZmKTBvoK7QADY/0DfKZjBLcPMQOBCTT9sdKzB3CiTQDUhKL99PKbBWsDVQDAxz7+n5azB/5L1
QFej50DVv43BQoDJQGbB6UDsZ47B3GWjQFjYIj+wF6jBGxHmQFuXpr6+va7BwzasQCUu5L8Xs6jB
8JzcQJrUB0GpKZ7Bgz3ZQPt8vz8p/o/BPferQKB5AUHrAGPBUBybQL4LDUH5/HbBy7vNQNc44UB1
CmnBaXCHQC+v+UCjPIPB9/27QHbKwECYV3nBpRmoQPfo1kDIr4bBnATiQCiI5T59ZYfBvAayQBKT
JEGdg6fBABzKQDyIA0FnYbHBdcWJQKdz6z8hqKTBQ6CkQPtkkUCX64/BdRnWQL+/E0FlmKjBGcmi
QFI3J0DxBpzBDQSIQPzNb0AgbJfBMjqvQLEa2j8mQJPBEL+NQBTct0Brk4zBK1/3QGldAkD6jZTB
7ZpyQCbmkkD33p/B9hEHQU3SKb7LnLLBg4qcQLZfQcAO5KbBUfAGQQ0bAUGcfJjBI06aQH6lAUHr
ZZrBZPDYQEKF5T84CK7BLf5mQN90SL+e7KLBMBbpQN0JH8B9s67ByWsDQQik10BdbIfBzIK6QHdG
DUF1KFjBtRyRQM4K80DK3VrB5ZmCQN6+GEFOOXLBX7W1QMRjFUFk8X7BXZ/pQKV48UD6D3DBTJnX
QET+z0DlgVrBr0tYQFcE6kBxln7BJmx4QMVeBUGgZ4rBxUHWQM7bq0BjnH7BmSSjQONurUCPfHHB
dmICQcc6oz4idIbBLxbUQJiHRz/ahX/BU4TTQE9JAr84xonBz+ytQK/9LEGkLK/Bv/GTQGiGHEGW
WaXBmo+6QB0rMEEcP6HBTkvFQKIADEH0/7jB5g/kQJ2P70DySLLB6misQKl09kDxIK/B6DGEQAqU
H0AamKvBT7tVQDhWwT9AXqHBu42sQAjPe0CO3YjBdkHCQJFwmkAvGZTBi/vzQKniG0E62arBObm/
QApqQkARtZ/BnNtZQJ8UVUAq55LB/wmYQAmpmj+ba4/B6ORqQOcCr0Aj3YfBe0GCQPBHxkA6HZPB
EuJOQDDsgkAfjKTBSyyzQJYeAUEosJfBrruTQAVuI7/nOKbBNHjMQEQyVT/evqzBrKDVQDcKy7+8
bK3B7hrxQHyM6ECq+o7BBgDFQODK6kCXho7B2qCjQNpxKD8pH6jBGJasQPwu4b8286jBY5vlQE0A
lL5hSq/Ba6fRQABOCUENXJ7BcfTZQE4Huz8rMpDBOQWvQNv6AEGqXWLBnpCaQARHDEENpnXBxv3Q
QL5l4UCwpmnBxNCFQF1l90DDLILBCkG+QPiJwECrb3nB1M6mQKE71kAFT4bBYb/iQE3yrD44PIjB
Zci6QNpxBEFTObHBZcjoQL4qJEGgNKzBayGKQNCh7T8VjKTBRSukQNjakEDeio/B5xPFQKH/FEF8
eqjBPz6jQATjJ0Dy5pvBoh2IQI6fb0ByOpfBbtivQCwl2j+QNZPBQ4CMQNFntkD56YvBowz4QJZx
AUAfnZTBtGNzQHNmk0A/mJ/BFSmdQGEdQMCBKqfBYJgGQZRD9r3zcLPBZIECQWHvAUFwJZrBpT+R
QLMSA0FmBJnBkAJpQFViRb8hraLBG2PYQDff6T9lU67B1dboQDm0HMCxbK/BwGICQQcR2EABMYnB
bUS+QNUCDUHiBljBTvWVQNgf8UBFUVnBwgyCQM2RF0Hj/W/BvluzQCcMFUHVi37BDFTrQPCj8kDG
hnHBhFbdQChe0EAFilvBi0dZQO185kAlanvB4gpvQBv8A0EoEYnBAHrYQOavrEAqtX/B+UunQHAl
rEDz1HDBLb0CQeb0OD5ijIfB2KLVQBJtHD/TXYDBRXXTQJ6mFr+lDIvBYZaxQAnHDEFcoLjB5jHX
QNYD9UCLvbLBhjWgQDds9EAGjq7Bta3eQA9oLEFXj7PBeTrvQGYOMEGZ66XBDwIDQQPmGkGaza3B
Z1uEQLUkIUDkbavBzaNWQNvkwj8GPKHBMXmsQOpTeUC5o4jBWp7BQEsAm0AwpJPBpR+oQGN+HkFg
5abBPwzAQFi3Q0Drkp/BWrRZQB8QVEAu25LBxaKYQPYJnT+3PY/BCtNqQL6mrEDG8IbB4ah+QJN3
xEApTZLBmEdQQJ61g0D0ZqTBJnSzQFEHAUGdvJfBZaHMQKPwVj9o1azBn9mTQEAUIr/WXKbBnvzV
QNojyr8jca3BtxnxQNPc50DX/47BrQPFQK1+6kAcj47BtqyjQCP3KT+DRajB1uPlQFIykL6lU6/B
VeKsQDRr4L/fAanB0CbSQF81CUGwWp7Bp+DZQJ5MvD8DPZDBOwyvQEeyAUGNtWLBtGWaQAOmDEFn
I3bBHwfRQE+n4kA9ymnBDLGFQD2Z90DOR4LB+DG+QAc1wUAORHnBubymQK5A1kAxTobBMMriQNrp
tD6qO4jBCGO7QOtlBEEuO7HB2PPpQGfnI0EuPazBmhyKQPJX7j/IsaTBqYikQNoDkUBgp4/BxevF
QM/vFEHmfqjBgzOjQBvrJ0BpApzB1DCIQMWFb0DiP5fBvM+vQJxM2T+4XZPB9n+MQOUAtkDSyovB
9uv3QAbUAkCOlJTBZGNyQOFEk0CRkJ/BXL8GQdwt5b0rdrPBupedQCDAP8BCKqfB8awCQdatAUHn
F5rBP5KRQIYGA0GgHZnB0IrYQJnG6j8NaK7B8A1pQIZSRL8936LBO03pQNA2HMByZa/Bt0gCQcYA
10DWPInBFlS+QO/pDUGOmljBNReWQLLQ8kCceFnBiNKBQH76F0Gyn3DBvRKzQBJUFUFSNH/BO0Pr
QEGt80AV3nHBpIfdQKcg0kAgkFvBgzRZQBLn5kB4d3vBDZVuQBrZA0GoOonBbF/YQIIYrUAbYH/B
XzynQCEprUA2dnDBicYCQR0WWD7CcYfBsjPVQNl6Hz8uaIDB/wfUQDl5FL82E4vB+3CyQNe+DEEO
prjB7JzXQG2f9EC7t7LBFpSgQDGf9EDRka7BOgngQFInLEFBm7PBNaDwQG/LL0Ej+KXByH8DQS16
GkGg0a3Bz3CEQLetIUCHkKvBw4BWQPmPwz+1aaHB39WtQJVneUB92ojB42jBQJzcm0Cv5JPBDCWp
QJ+VHkH/8KbBrwPAQJrfQ0B9qZ/BuHNaQKHEU0AmyJLBIqWYQAbumT/VhY/BclZsQImiq0CfrobB
i7J8QH/1w0DrD5LBt/FOQAJ9g0CqUKTBaTTwQJOQ+UB7SI7BUpaOQB94WL+m46fBel3LQARiJD8z
uarB0MDPQHMQ17/CZ7DBnbquQPwYBUFLypbBaf7AQIUK9UAUPo7BxumhQBgy1z47hqbBC1ClQHyv
8b9G86zB7tniQDky1L7bM6/Bntz+QN2XCUG1dZbBzXjVQD3ehT8OsI7Bv0qxQE9+/0B3x1/BrFCY
QO3VC0GeQXHBuHbUQJVd40DRtGnBmj2EQIMC+EC1q4DB7w3CQD1AxEA9rnrBY1umQDLo2kDKJ4bB
OG/dQIfP1z5/tIPBnVwkQRWt9kBVR5rBqIgfQW3eHEFRHI/BKKyIQHiSxz+aeaHBsKGoQASZl0B9
DpHBiKEWQbWVD0EciZjB8LikQHp1H0ARS5rB/COMQD2jckAYnJfBDFCwQOL75T/yPJDBQ/2NQDf7
uUB5TIzBeIXxQGaneD91hJXBmd1/QIoJj0BDN6HBonCSQNLGRcAwfK7B8s8FQXNCUL6KbLLBEeHU
QHJJEkHQg57Bv3YCQepc6kC9gYjBNslcQBb7gb+GDqXBswrZQNkV0T9ceqrB3ZPhQMNuH8A4+LPB
eteMQJAvBUFxfJjBBx7AQKZoC0EW4VTBZQSbQIoS60DgwFbBlH99QE5NFUEzuWnB9UuuQCSWFkGZ
0nnBnWLsQEsj+EBVYHHBZ9fjQMmd0EDZ8lzBu4paQCOO40A+yHjBFrtmQDUsBUHR4obBq+rcQIng
s0C/SYHBV+OtQDGKrEBwdnLBWHT9QOkpD73Li4PBVGzbQCuxmT84B3vBiiXFQNx7s74MJoLBXxE1
QWoCAEEDxJvBMZQjQXdb4kB8GpPBPjceQSPM5EBMNaHB4VAwQbQYIUEStpDBHAcWQYaRK0E1M47B
wZceQc9mE0EHtYfBBOx0QFKHCkAR6KfBhh5eQOd5kD9fhJzBUHu4QIF6hUDpoorBVfrAQDfopUBQ
T5bBaGgXQfNoGUGN05/BY/TBQA02MEDMuZ7B81tfQEUwYkB525LBkfmbQE1/7z8fF4rBu7ZxQEVj
rEBPWIfBCMt8QGnFyEDdOZLBz31cQMi0eUB0Z6XB

>  <OMEGA_E>  (72) 
wIJiPQCoZz0A29Y94MLcPYgLIT8=

>  <OMEGA_NBR>  (72) 
     19239

$$$$
50167942
     RDKit          3D

 67 69  0  0  1  0  0  0  0  0999 V2000
    8.6813    7.4205  -17.9799 C   0  0  0  0  0  0  0  0  0  0  0  0
    7.6305    7.0880  -17.1029 C   0  0  0  0  0  0  0  0  0  0  0  0
    8.3983    7.8111  -19.3017 C   0  0  0  0  0  0  0  0  0  0  0  0
    6.0156    7.6036  -18.8490 C   0  0  0  0  0  0  0  0  0  0  0  0
    6.4981    0.8188  -21.6051 C   0  0  0  0  0  0  0  0  0  0  0  0
    4.6754   -0.6229  -20.8530 C   0  0  0  0  0  0  0  0  0  0  0  0
    6.7456   -1.6083  -21.6899 C   0  0  0  0  0  0  0  0  0  0  0  0
    6.2909    7.2098  -17.5343 C   0  0  0  0  0  0  0  0  0  0  0  0
    7.0624    7.8374  -19.7486 C   0  0  0  0  0  0  0  0  0  0  0  0
    5.2009    0.6704  -21.0645 C   0  0  0  0  0  0  0  0  0  0  0  0
    7.2718   -0.3196  -21.9078 C   0  0  0  0  0  0  0  0  0  0  0  0
    5.4453   -1.7595  -21.1690 C   0  0  0  0  0  0  0  0  0  0  0  0
    6.8085    1.3778  -18.1286 C   0  0  0  0  0  0  0  0  0  0  0  0
    4.4358    7.7867  -15.8268 C   0  0  0  0  0  0  0  0  0  0  0  0
    5.2490    6.6522  -15.1717 C   0  0  0  0  0  0  0  0  0  0  0  0
    5.1291    6.7415  -16.6974 C   0  0  0  0  0  0  0  0  0  0  0  0
    7.0455    0.3232  -17.0527 C   0  0  0  0  0  0  0  0  0  0  0  0
    7.3581   10.1567  -21.9406 C   0  0  0  0  0  0  0  0  0  0  0  0
    5.0476    9.7501  -20.9916 C   0  0  0  0  0  0  0  0  0  0  0  0
    5.6743    8.7732  -23.2159 C   0  0  0  0  0  0  0  0  0  0  0  0
    6.7530    7.8133  -21.2209 C   0  0  0  0  0  0  0  0  0  0  0  0
    4.4026    1.8925  -20.6388 C   0  0  0  0  0  0  0  0  0  0  0  0
    5.0212    4.5516  -17.8449 C   0  0  0  0  0  0  0  0  0  0  0  0
    5.1277    2.6666  -19.5067 C   0  0  1  0  0  0  0  0  0  0  0  0
    4.2303    3.7674  -18.9082 C   0  0  2  0  0  0  0  0  0  0  0  0
    6.2090    9.1315  -21.8132 C   0  0  0  0  0  0  0  0  0  0  0  0
    5.4998    1.7293  -18.4341 N   0  0  0  0  0  0  0  0  0  0  0  0
    4.2747    5.7512  -17.3963 N   0  0  0  0  0  0  0  0  0  0  0  0
    7.7648    1.9624  -18.6270 O   0  0  0  0  0  0  0  0  0  0  0  0
    3.8201    4.6479  -19.9530 O   0  0  0  0  0  0  0  0  0  0  0  0
    8.5259   -0.1763  -22.3931 F   0  0  0  0  0  0  0  0  0  0  0  0
    4.9434   -2.9966  -20.9537 F   0  0  0  0  0  0  0  0  0  0  0  0
    9.7046    7.3756  -17.6377 H   0  0  0  0  0  0  0  0  0  0  0  0
    7.8482    6.7410  -16.1036 H   0  0  0  0  0  0  0  0  0  0  0  0
    9.2002    8.0891  -19.9696 H   0  0  0  0  0  0  0  0  0  0  0  0
    4.9920    7.7275  -19.1705 H   0  0  0  0  0  0  0  0  0  0  0  0
    6.8971    1.8059  -21.7864 H   0  0  0  0  0  0  0  0  0  0  0  0
    3.6812   -0.7410  -20.4481 H   0  0  0  0  0  0  0  0  0  0  0  0
    7.3390   -2.4802  -21.9221 H   0  0  0  0  0  0  0  0  0  0  0  0
    3.3388    7.7951  -15.7455 H   0  0  0  0  0  0  0  0  0  0  0  0
    4.8132    8.8196  -15.8014 H   0  0  0  0  0  0  0  0  0  0  0  0
    6.2078    6.8740  -14.6801 H   0  0  0  0  0  0  0  0  0  0  0  0
    4.7334    5.8494  -14.6242 H   0  0  0  0  0  0  0  0  0  0  0  0
    8.1248    0.2295  -16.8618 H   0  0  0  0  0  0  0  0  0  0  0  0
    6.5341    0.6233  -16.1263 H   0  0  0  0  0  0  0  0  0  0  0  0
    6.6484   -0.6442  -17.3939 H   0  0  0  0  0  0  0  0  0  0  0  0
    8.1804    9.7160  -22.5234 H   0  0  0  0  0  0  0  0  0  0  0  0
    6.9895   11.0588  -22.4509 H   0  0  0  0  0  0  0  0  0  0  0  0
    7.7224   10.4255  -20.9381 H   0  0  0  0  0  0  0  0  0  0  0  0
    4.2309    9.0187  -20.9021 H   0  0  0  0  0  0  0  0  0  0  0  0
    5.4107   10.0187  -19.9886 H   0  0  0  0  0  0  0  0  0  0  0  0
    4.6778   10.6520  -21.5013 H   0  0  0  0  0  0  0  0  0  0  0  0
    4.8566    8.0434  -23.1219 H   0  0  0  0  0  0  0  0  0  0  0  0
    5.2992    9.6824  -23.7085 H   0  0  0  0  0  0  0  0  0  0  0  0
    6.4861    8.3385  -23.8176 H   0  0  0  0  0  0  0  0  0  0  0  0
    7.6795    7.5592  -21.7567 H   0  0  0  0  0  0  0  0  0  0  0  0
    6.0016    7.0291  -21.3954 H   0  0  0  0  0  0  0  0  0  0  0  0
    4.2756    2.5583  -21.5051 H   0  0  0  0  0  0  0  0  0  0  0  0
    3.4154    1.5686  -20.2774 H   0  0  0  0  0  0  0  0  0  0  0  0
    5.2033    3.8981  -16.9790 H   0  0  0  0  0  0  0  0  0  0  0  0
    5.9833    4.8678  -18.2744 H   0  0  0  0  0  0  0  0  0  0  0  0
    6.0327    3.1336  -19.9225 H   0  0  0  0  0  0  0  0  0  0  0  0
    3.3569    3.2982  -18.4319 H   0  0  0  0  0  0  0  0  0  0  0  0
    4.7654    1.3205  -17.8923 H   0  0  0  0  0  0  0  0  0  0  0  0
    3.5498    5.4598  -16.7722 H   0  0  0  0  0  0  0  0  0  0  0  0
    3.8683    6.1909  -18.1972 H   0  0  0  0  0  0  0  0  0  0  0  0
    3.3328    4.1595  -20.6061 H   0  0  0  0  0  0  0  0  0  0  0  0
  1  2  2  0
  1  3  1  0
  2  8  1  0
  3  9  2  0
  4  8  2  0
  4  9  1  0
  5 10  2  0
  5 11  1  0
  6 10  1  0
  6 12  2  0
  7 11  2  0
  7 12  1  0
  8 16  1  0
  9 21  1  0
 10 22  1  0
 11 31  1  0
 12 32  1  0
 13 17  1  0
 13 27  1  0
 13 29  2  0
 14 15  1  0
 14 16  1  0
 15 16  1  0
 16 28  1  0
 18 26  1  0
 19 26  1  0
 20 26  1  0
 21 26  1  0
 22 24  1  0
 23 25  1  0
 23 28  1  0
 24 25  1  0
 24 27  1  0
 25 30  1  0
  1 33  1  0
  2 34  1  0
  3 35  1  0
  4 36  1  0
  5 37  1  0
  6 38  1  0
  7 39  1  0
 14 40  1  0
 14 41  1  0
 15 42  1  0
 15 43  1  0
 17 44  1  0
 17 45  1  0
 17 46  1  0
 18 47  1  0
 18 48  1  0
 18 49  1  0
 19 50  1  0
 19 51  1  0
 19 52  1  0
 20 53  1  0
 20 54  1  0
 20 55  1  0
 21 56  1  0
 21 57  1  0
 22 58  1  0
 22 59  1  0
 23 60  1  0
 23 61  1  0
 24 62  1  6
 25 63  1  1
 27 64  1  0
 28 65  1  0
 28 66  1  0
 30 67  1  0
M  CHG  1  28   1
M  END
>  <OMEGA_C>  (73) 
geYKQeB07UDT1o/Bvyz0QMbQ4kC40ojBTF8GQdn0+UDcaZrBlX/AQJ1Q80DOypbBhvDPQByeUT8t
16zBO52VQKl2H7/t0qbBs9vXQFnbzb/UhK3BZE/JQF225kBZRozByf7hQALM+kAj/Z3BIm6mQMWh
Kz8xhKjBYbLoQMaco744Q6/BJkCuQJY34b8JWqnBL9/ZQMZbsD9xB5HB6vGNQOAs+UBgOn3B//en
QK3e1EAxv3LBwSGkQCa610A0lIXBE3XhQF50pT4EbIjBZ3XrQL6BIkFihq/BG4ahQGcAHEHJ7qfB
4JO1QNdeDEE2urnBZRjYQM8G+kBhxKnBFeKMQP878j89HKXBEq6gQBenkUBMwo7BQBakQK6pKkCv
DZzB7V6HQModcUAGRJfBxq/GQHsaEkFega7Bjf6vQHtY3T8jeZPBtsqIQDoKuECcK4vBE3n4QFMw
+z8fBJXBtnt0QEu7lEC9n5/B/GkIQU6PNL4WJbPBMzCeQLfHP8A9oafBLkYbQU8F7EDuGY3BuST7
QAK210Az1IDB3zMTQRNtAUG0wZ/BZ76fQKhH90AhXZnBXbXcQCsn5z+LSq7B25hrQHyzPb+1laPB
L9nqQJO7HsB8YK/BLK9VQE5x+UCc7XvBxAWaQEAdDUGc0nzBB6bGQLj320DY4WrB2XeXQIYuu0DY
/GnBJv8BQRj/aj4M5YbBkBfRQJOQHz+VAoHBT7/UQE3sJL/FJovBvOICQcJ0G0H+L7TBTarfQM/w
MEFkm7PBnR33QKfOJkE2gafBKWOHQMBMEEGNN6fBIyStQGlMIEGS6J/B07CVQJFuKkHAAqzBhmmb
QLKxAEGQ+bjBX5OpQA7rGkH/qr3BUo7PQG9qBUFvir7BPr71QGDl8UCjDa7Beg3AQEzu4EDVKavB
pdGIQKq7I0BuCqzBM5ZaQAnJyD8UOKLBuIGmQAF6eUAN1YfBVHe/QDXFm0DiMZLBAQzBQFaMSEBU
YZ/Bq9ZWQAwWU0CUdJPBK36YQNoGqT+EI4/B9S9jQPW2rkBlLYbBx5F3QNobxkDpk5HBG0xVQOoa
hUBf2aTBVC0LQcVc9kDEbI3BU6LzQFqE6EBuK4fBYw4IQYXPAEGgNJjBT1XEQPJN8UBKe5bB3NjK
QBNJOz/tMq3BkB6UQNvXNr+1Y6XBLevTQKCL2L8gfK3BazvKQBWc5kDHqYvBnRrnQDtY/kCD0ZzB
KlejQFQDFD+u2qfBHyvjQL4Jzr639q/BxTisQCZ37L88SajBBODaQPCvtT8J6ZDBj12NQCWh9UAX
LHzB2mOmQH3ez0AChXLBxCGkQJ/s1UCNc4XBfQrkQKGF1D7KA4jBlqm8QLA2DEF/K7nBR6vhQCiI
J0Fmnq3BjCycQEThFkF0r6fBySbiQIf2/0Bs2KjBRRKKQAgz5j9QaaTBaNihQMS2kUCUS4/BDlGj
QL6nJ0AaCpzB7MSHQNa2cECsiJfBoh/HQKGwEkFjiq3BOI2wQMwF3j9pNZPBX3+JQOFdt0AEiovB
86/4QIZKAECMP5XBknR2QKzjk0C2F6DBp3sEQV1Kgr5PF7XBLhydQKR2RcAgI6bBgfUaQS5c+EAQ
8YnBP6D4QLVY30Dk3X3BqWAVQdpjBkEB85zBmMCkQJF770AQ9pnBRmrWQG0L3D/MKq/B7+1rQG+O
Vb9mR6HBSKnmQM/lI8D0ka/BumdUQGIO9kCNZHvBx6iZQDA4C0Eoe3rBKJvEQAuk1UAN92nBPSaV
QA9CtUBy4GrBFGIDQSuNtT58qIbB/RrUQCqbPT/1nIDBvdnXQIcOE79oW4rBmL+pQJe9+kD0KLnB
EC2qQMwLGUEYCL3BLp3aQDWdCUE7m73BbTbpQCE4LEFRWaXBcJL/QIDlJEEEErLBUiLPQBZUNEHg
frHBIJeiQI6KG0FEWp/BFMuKQG7WI0H6wavBSqqIQGE7CEFyy6fBejQBQesTAUH5UqzBaQfTQCXV
4UBlYKvB3b6DQNF1G0AvcqvBeBFXQPWqvD8i46DBDSOpQPndeUAkbojBU+G/QMqEnEBMAZPBp8S/
QAkrQ0A66p/BY/BWQKZNVUAVlJPBP7WZQA4nqz+PmI7BX2BjQD5IrUB004bBTJd6QE12xkA85pHB
oy1WQPYUhECnLaXBtVEIQaYv7kClLpLB+hXyQJHt3EBUH4vByMUBQSEVBUF2ZprB2kq5QL6BAEET
ApXBgGDLQPYvRz+eLa3B8CaVQIaOLr8wUaXBKkHVQN030r8HZK3BFnHGQKH35kA4jIzB16vXQLH3
CUFGtZvBt+ijQD86HT/t1KfBuR3kQLjcsr6m46/BFKWtQGV1579oLKjBIYTbQPlwwD+2zpDBQv2O
QOkD9UDYe3vBs3esQMlU0UCLvHLB1makQIuA1UB8YoXBzQrlQGm69D5mF4jBA+mpQHq4IEG5y7XB
nZ2+QPc89kAz7rDBWbb3QOxPF0G9DLTB6UDIQHZuGkH6qKPBnDuKQAbU6T82aKTB6GihQB+1kUCi
Jo/BiUWjQOIRKkAuE5zBLW6HQD6AckB3i5fBPHbKQHAUE0H+fK/BBwaxQPyH5D9dM5PBreqIQGQv
tkBg3orB9e74QO21+D8ZRZbBfu52QGZxlUDRBaDBUQkFQaJjRL617LTBsR+fQFgvQ8Dg56XBUwQZ
QewC5kAVTpHBGvj7QMotyEBzq4TBeYENQRQRDEECsp/B9p2XQNBEA0G8X5bBLJfWQG9W4j80MK/B
xBhuQIRPT7/YMqHBKzvoQM9qIMC3ea/Bi4BYQCpx80DcwHjBh4CZQFFMC0FdBnvBK//LQPR32UBL
DWzB6r6eQH1QtkDKx2nBRMgDQa8ihz6+8ofBQR3bQG4qYT+kSIDBiU7TQKL25b5VwYnBQsqxQAnG
MUGN3rTBXDqrQAJeHEHjUL7B3YGJQO28HUHHsrLBFn/VQF9B4kAnfKzBSB2eQKyg8EAp263Bx9W/
QNXi7UBGebnBK6YHQe6wDUFkoa/B0Xr4QJ7eEkEJkLzBCIf/QItjKEGPM7PB0cWmQNlUHkHKxKHB
5xrcQPDbKEFByKLB5aKDQJD9HECac6vBD6xXQGwpvz8u3KDBK4SpQHHFd0DTjIjBbwC/QEitnUAb
3JLBuH6/QDU2RkDl+5/BD9NVQI68VkB3upPBtl+aQMuJrz8jn47BhoFmQN8oq0BvqoXBhO1zQIDP
xEBT7JDBXrlWQKIdhkDONKXBiK7RQBQTCEEoGqDBDtS0QDOe+0CtEZnBodf8QNGHCkHZB53Baifw
QAiI50CUjo3BnvzHQF+WMT97/KzBlcCOQJhZKL8xMKXBLAfNQFOB3r+XI63B7DTEQM876EC6kY/B
0nQFQS98AUHnQ5PBES6gQHDqGT/yuqfBE4DeQAv1876Qoq/BO/ikQCvd6b88/6fB18TZQNSHrj9V
WJDBe4uSQOeJ8ECu+XzB8nSzQI2czUCaTHfBG9ulQBH21EC5X4fBDnPhQGqztz7XW4fB7GAiQabM
JEEXMHzBoAT7QAHFFUGT2XnBUzYGQZamMEGrOIvBkKIXQTBGC0E09IzBEE+JQGe07D8bUaTBkFGj
QA7ojkBbA4/BuimkQEgXJkD255vBJwuKQBqCcEBOnpfB+zMPQeE3HUGy64TBOtivQObW1z8IDpPB
C9eKQIuMtECD54vBxVz4QCKV9z9xdpTBI3GBQElplUBJKqDBsloCQU9rxr4KprTBdrCTQAc3QsDL
y6XBqcvGQO/6DUGTwKfBORiTQDy0+kDe7prBDXIJQWQ2E0GYEqLBakL9QO380UAPpofBsCLVQOuh
1D95+K7BpctgQPNOOb98F6HBVFjeQFzTKMDwKq/BuIhhQIJz7EDmdnjBNV2bQM1BCUGmqHvB88nT
QN2c1kAD/nHBGzGpQMSMsEBEzG7B6vsBQXTpkT5yvYXBMcTQQEaTMT9zFoDBxiPVQG9wIL/3xInB
21cvQT89KkEzY4PBpk4dQWYWMkE50nHB5CEoQX13F0FIPnLBt+HeQPcwEEHcaoHBYrkDQfufCEHE
7m/BSMzxQOQ+I0G1gm/BbBPxQPF6K0ESH5DBffQAQdwOPUF+j4XB7sYSQcsvN0EKcpDBoqcfQS0/
/UBTVYjBZB0jQXGKEkFEjJLBXWmEQGj5H0DGTqvB1TZUQHd8yj+V2aDBOLWnQBxRc0BlFYjBiMjC
QGmMmEDTIpLBoFHBQDTlPkBmvZ/B3f1XQDEXWEDXMpTBpTWYQNqzoz/hwY7BmstpQFz+q0ABfYbB
qXJ4QM50wEBdXpLBlhdjQJk4h0DzlaXBVRTTQMMWCUHEi5/BYay0QD5XAkHC6ZfB69P+QGJbBEFN
/53BB53tQBzO5EAETo3BXALNQDOeND8Pr6zBgoCSQPutJ78ApaXBGX/RQGBR3b/fU63BE2XCQOEE
7kBHv47B4hIGQVCN8kC+ppTBEZekQLqRHD9DtKfBy4jjQPm67b5Pba/BT9OoQKBk6b+GhKjBPcfZ
QDiYpD8rTZDBaqSPQA0L+EBTy3zBk16wQK2I1UAXN3bBOEWjQEEL20Bg6IbBpzffQDhQXz6Dr4fB
2qdAQYft+0DBaYvBKtAmQaibGkGyGZHBzAw4QaUKAkFI8p7Bbt4cQath5EB6aZLBSCKNQNeq7j+h
T6TBxcOjQMJqk0CJ/I7BRUOmQA/FKEBvmJvBMQaLQJFgc0B1X5fBDqAuQWFyA0E+hZPBqLawQKk3
3j+KoZLBjpyJQCuXuEC1n4vBqa/4QIqnzj+mv5XBAVGAQMQ2lUAKFaDBszEFQbUkv74KILTBvyiX
QKxJQsCErKbBEO3IQP/XEUGVjKbBHyKTQJnPBUEQEZnBQRALQfYnCUEH6aPBTZn3QMa20kAYYYbB
jKfaQOdZ1j+yY67BDAlnQBJlOr+73KHBStniQJETKMDgZ6/BzoFbQHdj9EBkZnjBlYCYQMMKDUGr
IXzBtpvQQDvl3kAZ7HDBCNylQCwzuUDSMG3Bkk4AQZFvBL6umIfBsQ3XQDXMJD8Aqn/BFeXJQPVG
Ib99aonBNoRGQSNL20Au7YzBrOdNQXRlCUHMWYzB+E86QXnx/UBSOIPBCgEaQfz1HkG0upbB7akg
QatmG0FS3YjBoUE0QWLTJUHM/pHBJYgrQTDfBUEJ1KTBgE1FQT2DDUFDvp/BmQU+QbV640AGZKDB
82YdQQIx2EAuKYrB6K8gQYVQykBUApjBweyIQHkLIUBVUqvBsS5bQDHUyj95HKHBRHuqQF8MfkBX
A4jByRbCQHK7nkAQcpLBotjDQNZgQkBUIZ/BWq5bQHNmWUAYrZPBO8KYQIDztj+57Y3BQXVoQAq8
rkC+NIbBRJZ0QCUdxECeB5LBIeFhQLh/hUCqVKXBelHWQMq9A0FCWaHBzCq8QAI370BUbJrBKjn0
QEQtEkHwBp3BKIPYQFrNCkHcJovBefjLQO6iLD+CcqzBkPmOQKqIIL9mA6bBC7XNQMha4b8fPq3B
PDu+QHAq9UB0J4/BWqH1QH9NFUFq1JHBxduiQPrMHT9i0afByH7hQHrSA7+vFa/BmEOkQHg/6L/9
zqjB/nDXQJpTnT+z0I/BHP6TQELJ7EC79XnBwIe5QOSKzUAsVHjBHyOmQK5U2EBNOofBEv/aQKbb
LT5SE4fBqHkyQZQdGkE2WoXB6KAdQYi+80Ccr4vBIuETQTQDDUFSoHTBfGwNQVV9IEF2jYzBqq2M
QKXc8D/teaTBLc2mQLjskUAqYo/BpmymQKdgJkBGpJvB83aMQFuhcUBUdJfB4tsbQRI3EEFiDIbB
8fuuQBd11z8Ap5LBv8yMQAB+tkBUAozBdGD3QFHDxT977ZTBWCaBQEL8k0DOLaDBH4EEQdiC674w
dbPBod2QQAVhQMB5O6fBXWPTQG70AUE96anBDVqmQFXf10CZt53BVPAEQbrHGkErNaLBK1HWQChF
D0Hc0oLBvuDaQJqo0D9R9q3BT+ReQCEDK793faLB50/eQIEsK8DzOq/B62NoQCJP40BFFXTBmhSZ
QHyGB0Fd1XbBVJLZQCld2UArEXTBsK+0QFOfrUATUXHBIz/8QLdDPr6ak4bBEoHRQK8rGz8xtX7B
U8rFQFvCLL84/ojBb4kxQSHTKUGFaYHBivY8QXN+D0GrsIDBdAc5QVESHEHydY3BeqYNQdco5UBC
QIzBQkYkQRDw90BKxJPBWDUoQVXI3kAC/4bBAMEDQZb2BUFN0HTBkeMeQVM+AkFjG2zBdGETQdqT
HEEcbWzBED8XQSwzKEEDwZLB0zsHQUO6LEGLCYfBG6+JQBgLI0DmcKvBkkNZQPdy0T8OaaHBz3Gu
QDlKe0D7cojBzqXEQBMrnUBfG5PBV7nEQEbbPUBtBp/BXwRfQGMyWUCzfZPB3Q2WQCIgrz/1UI7B
HppuQFBqrEBMpYbBWD17QLJFwkAHaJLBZmJhQNRHhEBtOKXB

>  <OMEGA_E>  (73) 
aNagPuiAnz7AHrg+BIMPP4CYEj8UwTM/

>  <OMEGA_NBR>  (73) 
     25918

$$$$
50167945
     RDKit          3D

 58 60  0  0  1  0  0  0  0  0999 V2000
    6.8429    8.5824  -19.8618 C   0  0  0  0  0  0  0  0  0  0  0  0
    5.7662    8.0461  -19.0112 C   0  0  0  0  0  0  0  0  0  0  0  0
    6.4420    0.8005  -21.5154 C   0  0  0  0  0  0  0  0  0  0  0  0
    4.5826   -0.6335  -20.8383 C   0  0  0  0  0  0  0  0  0  0  0  0
    6.6604   -1.6226  -21.6466 C   0  0  0  0  0  0  0  0  0  0  0  0
    8.0911    8.2871  -19.3735 C   0  0  0  0  0  0  0  0  0  0  0  0
    5.1310    0.6513  -21.0129 C   0  0  0  0  0  0  0  0  0  0  0  0
    7.2095   -0.3364  -21.8206 C   0  0  0  0  0  0  0  0  0  0  0  0
    5.3447   -1.7691  -21.1616 C   0  0  0  0  0  0  0  0  0  0  0  0
    6.2288    7.3846  -17.8889 C   0  0  0  0  0  0  0  0  0  0  0  0
    6.6820    1.3718  -17.9143 C   0  0  0  0  0  0  0  0  0  0  0  0
    5.4282    7.8182  -14.0735 C   0  0  0  0  0  0  0  0  0  0  0  0
    4.8804    8.6589  -15.2352 C   0  0  0  0  0  0  0  0  0  0  0  0
    6.5354    6.8811  -14.5769 C   0  0  0  0  0  0  0  0  0  0  0  0
    4.2671    7.7436  -16.2965 C   0  0  0  0  0  0  0  0  0  0  0  0
    6.0232    5.9591  -15.6933 C   0  0  0  0  0  0  0  0  0  0  0  0
    5.2880    6.7176  -16.8564 C   0  0  0  0  0  0  0  0  0  0  0  0
    6.8544    0.2199  -16.9275 C   0  0  0  0  0  0  0  0  0  0  0  0
    4.3442    1.8623  -20.5885 C   0  0  0  0  0  0  0  0  0  0  0  0
    5.1446    4.5354  -17.9774 C   0  0  0  0  0  0  0  0  0  0  0  0
    5.1033    2.6025  -19.4726 C   0  0  1  0  0  0  0  0  0  0  0  0
    4.2721    3.7624  -18.9429 C   0  0  2  0  0  0  0  0  0  0  0  0
    5.4004    1.6713  -18.3643 N   0  0  0  0  0  0  0  0  0  0  0  0
    4.4434    5.7518  -17.5738 N   0  0  0  0  0  0  0  0  0  0  0  0
    7.6746    1.9055  -18.3985 O   0  0  0  0  0  0  0  0  0  0  0  0
    3.8849    4.6192  -20.0174 O   0  0  0  0  0  0  0  0  0  0  0  0
    8.4742   -0.1925  -22.2760 F   0  0  0  0  0  0  0  0  0  0  0  0
    4.8159   -3.0009  -20.9922 F   0  0  0  0  0  0  0  0  0  0  0  0
    7.9865    7.3757  -17.8824 S   0  0  0  0  0  0  0  0  0  0  0  0
    6.6695    9.1446  -20.7675 H   0  0  0  0  0  0  0  0  0  0  0  0
    4.7172    8.1587  -19.2420 H   0  0  0  0  0  0  0  0  0  0  0  0
    6.8546    1.7874  -21.6649 H   0  0  0  0  0  0  0  0  0  0  0  0
    3.5785   -0.7462  -20.4566 H   0  0  0  0  0  0  0  0  0  0  0  0
    7.2480   -2.4968  -21.8850 H   0  0  0  0  0  0  0  0  0  0  0  0
    9.0168    8.5788  -19.8471 H   0  0  0  0  0  0  0  0  0  0  0  0
    5.8398    8.4868  -13.3031 H   0  0  0  0  0  0  0  0  0  0  0  0
    4.6129    7.2192  -13.6417 H   0  0  0  0  0  0  0  0  0  0  0  0
    4.1094    9.3459  -14.8564 H   0  0  0  0  0  0  0  0  0  0  0  0
    5.7002    9.2392  -15.6838 H   0  0  0  0  0  0  0  0  0  0  0  0
    7.3674    7.4863  -14.9659 H   0  0  0  0  0  0  0  0  0  0  0  0
    6.8912    6.2645  -13.7383 H   0  0  0  0  0  0  0  0  0  0  0  0
    3.4263    7.1953  -15.8465 H   0  0  0  0  0  0  0  0  0  0  0  0
    3.8981    8.3636  -17.1268 H   0  0  0  0  0  0  0  0  0  0  0  0
    6.8824    5.4204  -16.1194 H   0  0  0  0  0  0  0  0  0  0  0  0
    5.3204    5.2373  -15.2515 H   0  0  0  0  0  0  0  0  0  0  0  0
    7.9259    0.0188  -16.7813 H   0  0  0  0  0  0  0  0  0  0  0  0
    6.3976    0.4911  -15.9642 H   0  0  0  0  0  0  0  0  0  0  0  0
    6.3635   -0.6804  -17.3255 H   0  0  0  0  0  0  0  0  0  0  0  0
    4.2119    2.5339  -21.4496 H   0  0  0  0  0  0  0  0  0  0  0  0
    3.3589    1.5469  -20.2147 H   0  0  0  0  0  0  0  0  0  0  0  0
    5.3517    3.9176  -17.0912 H   0  0  0  0  0  0  0  0  0  0  0  0
    6.0923    4.8015  -18.4685 H   0  0  0  0  0  0  0  0  0  0  0  0
    6.0440    2.9958  -19.8855 H   0  0  0  0  0  0  0  0  0  0  0  0
    3.3899    3.3723  -18.4141 H   0  0  0  0  0  0  0  0  0  0  0  0
    4.6294    1.2273  -17.9079 H   0  0  0  0  0  0  0  0  0  0  0  0
    3.6839    5.4937  -16.9768 H   0  0  0  0  0  0  0  0  0  0  0  0
    4.0857    6.1960  -18.3952 H   0  0  0  0  0  0  0  0  0  0  0  0
    3.3369    4.1373  -20.6257 H   0  0  0  0  0  0  0  0  0  0  0  0
  1  2  1  0
  1  6  2  0
  2 10  2  0
  3  7  2  0
  3  8  1  0
  4  7  1  0
  4  9  2  0
  5  8  2  0
  5  9  1  0
  6 29  1  0
  7 19  1  0
  8 27  1  0
  9 28  1  0
 10 17  1  0
 10 29  1  0
 11 18  1  0
 11 23  1  0
 11 25  2  0
 12 13  1  0
 12 14  1  0
 13 15  1  0
 14 16  1  0
 15 17  1  0
 16 17  1  0
 17 24  1  0
 19 21  1  0
 20 22  1  0
 20 24  1  0
 21 22  1  0
 21 23  1  0
 22 26  1  0
  1 30  1  0
  2 31  1  0
  3 32  1  0
  4 33  1  0
  5 34  1  0
  6 35  1  0
 12 36  1  0
 12 37  1  0
 13 38  1  0
 13 39  1  0
 14 40  1  0
 14 41  1  0
 15 42  1  0
 15 43  1  0
 16 44  1  0
 16 45  1  0
 18 46  1  0
 18 47  1  0
 18 48  1  0
 19 49  1  0
 19 50  1  0
 20 51  1  0
 20 52  1  0
 21 53  1  6
 22 54  1  1
 23 55  1  0
 24 56  1  0
 24 57  1  0
 26 58  1  0
M  CHG  1  24   1
M  END
>  <OMEGA_C>  (74) 
qPjaQIpRCUH85J7B3oS4QLC8AEH2FpjBMCXOQHfuTD+AH6zBgKSSQKgvIr++tKbBISLVQBixz79N
LK3BIXUBQeiXBEHm/JrBKDGkQPu4Jj+AGqjBdrTmQEA+rL6qkK7BhwerQIBy4r/ySqnBolLHQFpO
7EB6HI/BFNPVQPyWrz+IUI/BHrStQL4u+kA6LWHBXyycQLCKCkGTw3PBxSHRQKsx3EDROmnBs4uI
QGTL90AuX4LB673AQJWwvkCfF3vBATepQKj21kD72YbBLFfbQMQyYT5ta4fBgQOLQEJh7j8vtaTB
wKCkQFgikUDH0Y/BhE6jQPSOJkDTx5vBrLSIQOrKcED2ipfBJNCsQIzt1T8t6pLBgjCOQNYOuEAw
l4zBGpb1QJ7o8z8yMJPBnKJ4QKzQk0CwI6DBepYHQQwkRb4rNbLB3RuaQHIOQMD376fBLJH/QMQF
7EA3D4/BRGzVQDxQEkHbI6bBXfOWQC6KAkGx75nBrFjbQObH5D/MUa3B3wZlQI4FP782p6PBp+/n
QCfMH8CPFK/B3EQQQcVCCUH0xp7Byd+6QLzJB0FR2VTBC52TQLMD50CRRFrBE4CDQLqIFUHls23B
AWi2QJTTE0Hv8HrB6cHrQBmQ70A9dG/B9YTcQId2yEAX0FvB6UdbQPc/5kBHi33BP3p5QDvRBUG2
A4nBqjzcQCR0rUCZ9IDBnkCqQMiXp0BXBnTBSKH9QEFOmjwoQIbBgbnMQEpt+z5bbX/Be6HLQLIs
Lr+xmorBjceGQDgrIkC/mKvBIvhWQB4Bxj+pt6HBz0CrQC25ekDYuojBL/TCQNylmUBnv5PBK2jB
QFC7P0B8FZ/BofNYQB3TV0AgUJPB1SOUQPoXnT9ZQ4/BnsRrQFPMr0Bw0IfBtr2CQGtFxkBzKZPB
RZBVQK5khEBXAaXBtxXaQPL8CUGQ+Z7Br/i3QObJAUG18JfBa3SSQID3Hr8rNKfBNR3PQEv4TD9H
/avBS/nUQMyYz789iK3BDRYBQSKBBEH5bZvBh8OkQIu5KD/4NKjBl3SqQM404b9/7KnBMVLnQOxf
rr7Uiq7BNSXHQJZQ7UAqKY/Bh3XVQMp8rD8JNo/BYtGsQF6A+kA6EWHB0BmbQKefCkHdqHPBC7/Q
QAYW3UBfG2nBwRaIQAbE90AyXYLBaALBQFJ/v0BHGXvB8U+pQHGE10BX4IbBOfHaQAzRQT5fYIfB
q6aLQP5v7z8ywqTBbdmkQAETkUCvr4/Bh3ejQHgUJkCjqZvB1OOIQNFWcEBqZpfBGoesQPpm0z8+
2ZLBu4iOQKVbuEAGoozBU0f1QCy08D+FD5PBKv54QG2Kk0BqAaDBq7OYQDIVP8C2+qjBRR0IQSwn
U75M5bHBN1//QERZ60Csjo/BjTLUQNlDE0ExHabBMlSWQBE9BEEofpnBTQhkQGhPOr8wWaTBBOLc
QIZn5D9O66zBeX/nQAfvH8AQhq/B/8oPQWLFCEHObp/BlZG5QBMACEHhrFTBdvGSQJHq5kC4P1rB
XQuCQOtqFUGfom3BwSK1QHUeFEGrvXrB1CjrQMvl8EAyNW/BG0TcQAdjyUDjtFvBCuZaQCi25UDK
mH3BTAR4QKDDBUGM/YjBVtrcQLS/rkAN74DBvcyqQJP+p0BGJXTBgjn9QO25d7w6O4bBQ2XMQI0w
6T5kTX/BrSXLQE8ZNb90mYrBR/CHQGtxI0DBl6vBispXQKslxz/O6qHBCBerQKc5e0CChYjB+13D
QHcnmUAnlJPBXsjBQANSP0AD1Z7BtV1ZQKJkV0CdKJPBnreTQBgpmj/sR4/BhNJrQMJysEDs64fB
D4uDQA9TxkAeSZPBaexVQDMXhECz3aTBbm7/QPkoA0EsCJrBIr3wQKYs70CoXJDBvq2RQA8XGb82
SqfBDJTPQJOfSD/j0qvBcBPUQO5C0r8OPK3B4D3eQO/oCkG5GqDBnNmkQOF/Kz9AQqjB0DGpQIpQ
4L/t1anBHEvnQOQXv76XMq7BVLrEQIJH7kBkao/BvmzUQALSqD88G4/BuhiuQKiZ+EBylGDB8pKb
QGf6CUG6vHLBcGPSQJth3EAtPWnBejeIQJb09kCQ9YHBrs/CQIBev0BUfnvBnFmpQKF110A7zobB
GHfYQIzUMT7CF4fB7FeMQPLm8j8j7qTBMDulQOYUkUApoo/BOgWkQOetJkC8uJvBKLmJQFedcUAj
jJfB3vGrQIih0z9345LBcIqOQKX9t0CFbYzBtOP0QDIu6T+m4JLBeVJ9QG2ulEA9KaDBMKaWQHXo
PcBM5qjBBkkIQXKgh77rUbHByi6tQCh7BEE1XZrBSF0QQWxHBUHWFpzBdxcDQQ+N4EBGqIrByulh
QNvsLr9JmKTB/gPeQL4U4T+duazBaTXmQMMLIsD5Ga/B4hTiQNnLE0Gwc6fB2q+6QLHTBkEx9VPB
zryUQIEn5EAW6VnBsJCCQByOFEEGS2zBJTm1QN21E0FB2XnBTjPsQMAP8UAUQ2/B4LLeQExEyEA6
LFzBQCBcQH1S5EDatXzB2Ml2QAKQBUFza4jBoefeQGMBsEDaZoHBOcWtQMO2pkA3oXTB/n76QLXQ
Vr2PwYXBoYnJQE3R7j5W837BEUPIQHPmN7+TRYrBYqCJQJJWJUADx6vBFVVYQCByzT/nPKLBXUOr
QPAHekD2j4jBVN/DQHGmmUDdZZPBub7CQMj8PkCIwZ7BisZZQFltWUCZgZPBh56SQJSXnD+waY/B
o/NsQJ2lr0C8lYfBRryCQDXaxUCyAZPBq8VaQEuyhUAjK6XBX8z+QBxPA0FkJZrBx4fwQLRx70C8
b5DB377PQPvvST9j+6vB/ymSQIxvF78iKKfBN4rUQCTk0b8MEq3BB1jdQHHlCkE8LqDBoB2lQCFH
LT8YWajBH47nQJ53vb4uPK7BacWpQDLF37/glanBao/EQGox7kAabo/BufXTQCgFqT9LFo/Bp1av
QMwN+EA8hGDBHvOcQMLXCUE+mnLBFxPTQMpN20AJTWnBQM6IQILv9kC41YHBc/fCQDK8vkAtnHvB
73GpQHBA10A1yobBd4zXQFxQMj41EofBX6eMQHg19D+YFqXB7h+lQDcpkUBjuY/BJRukQIsCJ0A3
0pvB2auJQDTHcUAZpJfB/6+rQJyp0z+UAZPBn2uOQID2t0DUaozBEZ70QOz+6T/btZLB+up8QOHF
lEBfPKDB014IQVTphr7RbrHBtWuXQH2rPcD7d6jB+YqsQJhQBEE0W5rBXwEQQU2NBUF0QZzBCh0D
QZcQ4UCuwIrB6wneQF224T9pB63BQxdjQELoLL+3YaTBAb/mQJHyIcBn2a7BON7gQKPAE0EOjKfB
jGy8QIx1BkEi8VPBUceVQCD840DZwFnBqGmEQFGiFEGSD2zBbMm2QBBaE0E/2HnB0DTtQA6b70AV
TW/BvBnfQJ/ZxkDkTFzBpGRdQDF/5EBITHzB1Zl3QIKgBUFBPojBadLeQG06r0AUiYHBgs6tQJYr
pkDDwXTBpID5QJZOR72wlYXBkwvIQFZ77T5TCX/BT6zHQGsNOL9KVYrB9lKKQG0GJkDk8KvBLaVY
QGZozz8keqLBxlurQB7peUBesIjBe6rDQBDvmUCKgpPBTe3CQFxkP0DLyJ7B/8pZQDxWWUC/mJPB
+TeSQN7rmz8zpI/B/f9sQK94r0C4i4fBIWuCQEj/xUBq85LBi2taQEzChUBRPqXBpt4GQTZaAUGK
N5PBZvDzQKwn7kDWy4rByhKPQM4mgr8qmqTBcn7AQBdtHj9OI6zBPmXHQHNf3b997LDB0lL1QOWQ
CEHgmpvBQCyeQGy8oD5gLaXBLlyjQAgdAsDllKrBFh3WQK7Uzb5vn7HBCpnIQE0E70B19IzBMpTm
QAdCqD8O75HBgLyfQGpYBEFNjWHByhiTQHDSD0HKbnbBZv/BQKpU5kBbyWXB0HmCQM0v/0CRioPB
6m+zQIsNxkDVIXfBWB2kQN/j20CvLobBMpf8QNAXVj/vtofBBkOHQGP0tT9BFp/BCAGoQPValkAp
JZDB7GOmQNQJH0AcQ5rB2oKMQPydbkCWvZbBkFK+QFfq9D9QI5HBqnWNQNSUu0C434zBvFP6QMFo
oj8MZ5rB0297QLVYjUD+FKDBJFCUQGZBU8C3PKrBeMn4QB7Ayb3ooLfBajm/QKGDA0G5bZnBIQ0Y
QeMGA0FZ1ZLBYL0AQTvs30AOsIPB8v9nQD3LoL/MlZ/BmSXKQLnF0j+8Pa3BO67XQAvvIMBIPbXB
pwEBQRlbEEF0oqLBmYKsQE8rEEHXL1bBEzeDQJVc+UApplrBuZhzQB6QG0Fx+3LBCEKvQB0eGEFB
93zBYI3fQOAc9kDhLmvBrUXIQN3d1EC61FbBIQZLQITB70DqW4DBKwl1QNQ5CEGO8orBrHzOQCvS
sEBn5HrBQtOYQCgCs0ACpnDBqZsOQTHn/j6Am4nB6Rj+QPYA1T997oHBdk3qQDhnKjsqPoTBnmhi
QKoT9z9Em6TByNtpQPN1dz/Mg5jBPx+0QDXlhUAR+4jBex/DQICCoUBoA5XBCA29QGWHMkA5iqDB
2nliQKB7WUAu2JHBbsGwQBe4+j/P5onBbOpoQE2asEDls4jBlwWDQOQqykDGf5PB3z1ZQC0wdUBD
RKTB

>  <OMEGA_E>  (74) 
yNqDPiB6iD7oCps+mC6dPkZsCz8=

>  <OMEGA_NBR>  (74) 
     30967

$$$$
50167984
     RDKit          3D

 73 75  0  0  1  0  0  0  0  0999 V2000
    8.5845    7.5541  -18.4923 C   0  0  0  0  0  0  0  0  0  0  0  0
    7.6565    7.0419  -17.5711 C   0  0  0  0  0  0  0  0  0  0  0  0
    8.1446    8.2389  -19.6368 C   0  0  0  0  0  0  0  0  0  0  0  0
    5.8378    7.8605  -18.9638 C   0  0  0  0  0  0  0  0  0  0  0  0
    6.4016    0.8075  -21.5715 C   0  0  0  0  0  0  0  0  0  0  0  0
    4.6115   -0.6557  -20.7802 C   0  0  0  0  0  0  0  0  0  0  0  0
    6.6834   -1.6128  -21.6418 C   0  0  0  0  0  0  0  0  0  0  0  0
    6.2658    7.2177  -17.7804 C   0  0  0  0  0  0  0  0  0  0  0  0
    6.7599    8.4193  -19.8773 C   0  0  0  0  0  0  0  0  0  0  0  0
    5.1138    0.6394  -21.0166 C   0  0  0  0  0  0  0  0  0  0  0  0
    7.1898   -0.3181  -21.8713 C   0  0  0  0  0  0  0  0  0  0  0  0
    5.3918   -1.7803  -21.1030 C   0  0  0  0  0  0  0  0  0  0  0  0
    6.7848    1.4483  -18.0508 C   0  0  0  0  0  0  0  0  0  0  0  0
    5.3773    8.1415  -14.1789 C   0  0  0  0  0  0  0  0  0  0  0  0
    4.8843    8.8375  -15.4571 C   0  0  0  0  0  0  0  0  0  0  0  0
    6.3735    7.0199  -14.5101 C   0  0  0  0  0  0  0  0  0  0  0  0
    4.2160    7.8172  -16.3838 C   0  0  0  0  0  0  0  0  0  0  0  0
    5.7694    6.0059  -15.5074 C   0  0  0  0  0  0  0  0  0  0  0  0
    5.1953    6.6841  -16.7962 C   0  0  0  0  0  0  0  0  0  0  0  0
    7.0526    0.4467  -16.9319 C   0  0  0  0  0  0  0  0  0  0  0  0
    5.8682    8.0356  -22.1892 C   0  0  0  0  0  0  0  0  0  0  0  0
    7.3135   10.0604  -21.7729 C   0  0  0  0  0  0  0  0  0  0  0  0
    4.9942    9.9896  -20.8468 C   0  0  0  0  0  0  0  0  0  0  0  0
    4.3101    1.8441  -20.5911 C   0  0  0  0  0  0  0  0  0  0  0  0
    5.0728    4.5020  -17.9239 C   0  0  0  0  0  0  0  0  0  0  0  0
    5.0802    2.6205  -19.5061 C   0  0  1  0  0  0  0  0  0  0  0  0
    4.2265    3.7469  -18.9364 C   0  0  2  0  0  0  0  0  0  0  0  0
    6.2458    9.1183  -21.1530 C   0  0  0  0  0  0  0  0  0  0  0  0
    5.4679    1.7084  -18.4119 N   0  0  0  0  0  0  0  0  0  0  0  0
    4.3571    5.7081  -17.5097 N   0  0  0  0  0  0  0  0  0  0  0  0
    7.7201    2.0726  -18.5407 O   0  0  0  0  0  0  0  0  0  0  0  0
    3.8376    4.6294  -19.9898 O   0  0  0  0  0  0  0  0  0  0  0  0
    8.4344   -0.1557  -22.3737 F   0  0  0  0  0  0  0  0  0  0  0  0
    4.9014   -3.0216  -20.8914 F   0  0  0  0  0  0  0  0  0  0  0  0
    9.6423    7.4207  -18.3197 H   0  0  0  0  0  0  0  0  0  0  0  0
    8.0047    6.5106  -16.6976 H   0  0  0  0  0  0  0  0  0  0  0  0
    8.8664    8.6306  -20.3383 H   0  0  0  0  0  0  0  0  0  0  0  0
    4.7807    7.9263  -19.1752 H   0  0  0  0  0  0  0  0  0  0  0  0
    6.7810    1.7999  -21.7655 H   0  0  0  0  0  0  0  0  0  0  0  0
    3.6286   -0.7846  -20.3517 H   0  0  0  0  0  0  0  0  0  0  0  0
    7.2854   -2.4775  -21.8790 H   0  0  0  0  0  0  0  0  0  0  0  0
    5.8719    8.8827  -13.5340 H   0  0  0  0  0  0  0  0  0  0  0  0
    4.5150    7.7113  -13.6484 H   0  0  0  0  0  0  0  0  0  0  0  0
    4.1569    9.6181  -15.1896 H   0  0  0  0  0  0  0  0  0  0  0  0
    5.7395    9.2955  -15.9756 H   0  0  0  0  0  0  0  0  0  0  0  0
    7.2771    7.4633  -14.9537 H   0  0  0  0  0  0  0  0  0  0  0  0
    6.6410    6.4933  -13.5822 H   0  0  0  0  0  0  0  0  0  0  0  0
    3.3560    7.3721  -15.8620 H   0  0  0  0  0  0  0  0  0  0  0  0
    3.8676    8.3340  -17.2901 H   0  0  0  0  0  0  0  0  0  0  0  0
    6.5554    5.2962  -15.8051 H   0  0  0  0  0  0  0  0  0  0  0  0
    4.9557    5.4623  -15.0050 H   0  0  0  0  0  0  0  0  0  0  0  0
    8.1293    0.4262  -16.7073 H   0  0  0  0  0  0  0  0  0  0  0  0
    6.4960    0.7455  -16.0314 H   0  0  0  0  0  0  0  0  0  0  0  0
    6.7255   -0.5543  -17.2499 H   0  0  0  0  0  0  0  0  0  0  0  0
    5.4991    8.5179  -23.1063 H   0  0  0  0  0  0  0  0  0  0  0  0
    6.7551    7.4292  -22.4254 H   0  0  0  0  0  0  0  0  0  0  0  0
    5.0819    7.3886  -21.7733 H   0  0  0  0  0  0  0  0  0  0  0  0
    6.9040   10.5350  -22.6768 H   0  0  0  0  0  0  0  0  0  0  0  0
    7.5857   10.8367  -21.0426 H   0  0  0  0  0  0  0  0  0  0  0  0
    8.2075    9.4769  -22.0382 H   0  0  0  0  0  0  0  0  0  0  0  0
    4.6496   10.4750  -21.7718 H   0  0  0  0  0  0  0  0  0  0  0  0
    4.1923    9.3515  -20.4471 H   0  0  0  0  0  0  0  0  0  0  0  0
    5.2554   10.7584  -20.1047 H   0  0  0  0  0  0  0  0  0  0  0  0
    4.1421    2.4978  -21.4597 H   0  0  0  0  0  0  0  0  0  0  0  0
    3.3414    1.5143  -20.1877 H   0  0  0  0  0  0  0  0  0  0  0  0
    5.2568    3.8632  -17.0476 H   0  0  0  0  0  0  0  0  0  0  0  0
    6.0330    4.7820  -18.3817 H   0  0  0  0  0  0  0  0  0  0  0  0
    5.9839    3.0543  -19.9592 H   0  0  0  0  0  0  0  0  0  0  0  0
    3.3444    3.3219  -18.4351 H   0  0  0  0  0  0  0  0  0  0  0  0
    4.7404    1.2508  -17.9006 H   0  0  0  0  0  0  0  0  0  0  0  0
    3.6068    5.4373  -16.9066 H   0  0  0  0  0  0  0  0  0  0  0  0
    3.9856    6.1497  -18.3263 H   0  0  0  0  0  0  0  0  0  0  0  0
    3.3090    4.1558  -20.6213 H   0  0  0  0  0  0  0  0  0  0  0  0
  1  2  2  0
  1  3  1  0
  2  8  1  0
  3  9  2  0
  4  8  2  0
  4  9  1  0
  5 10  2  0
  5 11  1  0
  6 10  1  0
  6 12  2  0
  7 11  2  0
  7 12  1  0
  8 19  1  0
  9 28  1  0
 10 24  1  0
 11 33  1  0
 12 34  1  0
 13 20  1  0
 13 29  1  0
 13 31  2  0
 14 15  1  0
 14 16  1  0
 15 17  1  0
 16 18  1  0
 17 19  1  0
 18 19  1  0
 19 30  1  0
 21 28  1  0
 22 28  1  0
 23 28  1  0
 24 26  1  0
 25 27  1  0
 25 30  1  0
 26 27  1  0
 26 29  1  0
 27 32  1  0
  1 35  1  0
  2 36  1  0
  3 37  1  0
  4 38  1  0
  5 39  1  0
  6 40  1  0
  7 41  1  0
 14 42  1  0
 14 43  1  0
 15 44  1  0
 15 45  1  0
 16 46  1  0
 16 47  1  0
 17 48  1  0
 17 49  1  0
 18 50  1  0
 18 51  1  0
 20 52  1  0
 20 53  1  0
 20 54  1  0
 21 55  1  0
 21 56  1  0
 21 57  1  0
 22 58  1  0
 22 59  1  0
 22 60  1  0
 23 61  1  0
 23 62  1  0
 23 63  1  0
 24 64  1  0
 24 65  1  0
 25 66  1  0
 25 67  1  0
 26 68  1  6
 27 69  1  1
 29 70  1  0
 30 71  1  0
 30 72  1  0
 32 73  1  0
M  CHG  1  30   1
M  END
>  <OMEGA_C>  (75) 
NFoJQWi78UBB8JPB+QH1QORW4UCDkYzBZFACQbjSA0FDGJ3BSs+6QGKJ+0DxtZfBI9rMQN+4Tj9q
kqzByZGTQMfdJ7/pPabBkd7VQMpwzr93Iq3BY4HIQBD35kAzPo7BXlHYQJm1BkGiBJ/BQ6SjQKGw
Iz8LIqjB4xLmQELbor5d+K7B74msQHHh47/k0qjBMh3ZQLBguT8JaJDBlBKsQMRDAkG13GLBGEyc
QI5mDUEpUHfBYPPLQAqj4EB9KWjBe+mGQEQm+kAIEoPBDp+4QFYwwEA9HnjBuj+mQBrk1UCuXobB
Oq/hQJSx5D6LdIfBpMi7QNmRAEF0g7HBLAjqQHb3IEHgLq7Bc9CfQDbVH0FQxqbBOuyJQPkM7D+g
uqTBE1SiQL4QkEA/ZI/B75CiQMa2J0B1DJzBtT+HQPbMb0CnfZfBUt3HQHzkEUFTOanBtfiuQCus
2j+iS5PBn22LQKiotkDOE4zB/wr3QIylBEBIU5TBfZp1QAAklEAj65/BKfMGQe5wH75b/bLB3tec
QKJiQcCYIafBrkYaQXx27UC0jpLBbhMAQfxW0ECylIXB7dwNQfEWCkHHtKLB1/uYQFek/UDnZpnB
8v3YQBBj5j/AH67B9jpoQHvaSL9Z0KLBLSLpQMWPHsBJCK/B9Oa7QLsfDkEii1jBl3qQQF/D9kAI
YFrB/wSFQMfjGUF/CHPB2qm3QGG6FEE0nH/BOt7oQDPT7kCOQm/BcIPUQAfJz0CjUFnBb8hWQOHn
60Dnyn3BsYZ3QDpYBUE6UorBhMXRQHx6qUCS4XzBz5SeQGzLrkCqFHDBhBECQQM62j6bqIXBLd/P
QPjZPj9lQIDBETfXQNbjDb/D/4nBovivQHJJCEG02bjByynYQF+87UBBZ7PBhZ6iQFBv7EC8L67B
tO3cQGSPKEEfarXB7L3yQAJjLUE4V6jByVEDQYehF0EoTrDBScmUQL2ZJ0GfLK7BPieGQLWfFUGQ
k6PBSSyoQDoiLEF+1qDBRoyEQI3cH0CIravBvdhVQM3VwT9VgKHBzjeoQIE+d0B6YYjBOg7BQGYG
mUDQDZPBvHu/QNV4Q0BerJ/BjgpWQESaVEAce5PBnrGXQE4aoD9mNI/B0NVmQDz+rUDDQIfBgxR/
QKzKxEBRnJLB4cVTQFf8hEBz+KTBaVUJQT9V8kDv5ZPBdOf0QKYB4kClh4zBx1YCQVE/BEF+B53B
oNS6QFGd/EBcpZfBUlKTQFJSKL8/KKbBr13MQHimTz8GjKzBSHzVQN/Qzb8lMK3BO2vIQKjZ50B1
Mo7BEmbYQC1FB0Hr7p7B+1ijQEFxIz9HBKjB5UCsQBfE479A0qjBJpDlQMF+n76wBq/Bn0bZQMhR
uz9MEpDB/piqQPaeAkE38WLBwoyaQNuXDUFKbnfBEw3LQJbM4UBTKGjBXgCGQIIm+kAhKoPBLUK4
QD7/wECOE3jBEw6mQGdo1kClZYbBhOrhQBpOuT6D6YfBw6u9QPr+AEFCj7HBg7DpQHQJIkGv6a3B
KAOfQJO0H0H34abBZcaJQEp46z8VhaTBYRSjQMp/kEBaao/BDtKiQFVNJ0AJ5pvBUcGHQPu+b0A4
XpfBDxHIQMhjEkE6K6nBzDWvQKX22T8sJJPB38yLQFPrtkB2KIzBfnT3QOcDAUDQhpTB0t11QPmt
k0AQ2p/Bsq+cQLFjQcBrGqfByqMGQbitE750GbPBVD8aQRzS7UDyiJLBIfz/QADm0EB0jYXBRukN
QR6ACkHkoaLBBgSZQKXX/kBdV5nBV+NnQCP8Sb8fsaLB9F/YQOkG5z8/G67BSsToQKkiHsBVIK/B
CAa6QOWfDkFDo1jBEi+PQBIZ90D3dlrBFLaCQPrUGUEYM3PBN6+1QIA2FUGMp3/BJsfnQMtg8EA5
QG/B8s/TQOsp0UBKR1nBCDBVQBxy60CmFn7BvZ11QCk9BUHrcIrBeKrRQO9yqkBGsHzBaj2eQGp3
r0CPGHDBjlECQVtrVj6OIofBbIzUQLWIJz9vHYDBnMjSQH2aEr+vmYrBB/SxQJCeCEEy7rjBN8Pa
QLd/70ARV7PB0eWkQFh17ECaYa7BN6vcQL6OKUEtLLXB5j/xQOh6LkG4+6fBG30DQScoGUH58K/B
VSiUQDhsJ0G6T67BlLKFQPwTFUF626PBniWmQPMHLEEM3KDBRwuEQIiwH0CQcKvBeuNVQLb+wD+g
NKHBt4KpQGnMeEBUX4jBsonBQMShmUCTMJPBTr2/QDaYQkDCk5/BVWNXQF7tVEAXP5PBJ+2XQMVI
nT+5LI/BE1xnQP8QrkC0Y4fBWQuAQIfuxEDuuJLBobZTQJ0/hEAg0aTB

>  <OMEGA_E>  (75) 
wPGvPACRtDw=

>  <OMEGA_NBR>  (75) 
     33598

$$$$
50167948
     RDKit          3D

 76 78  0  0  1  0  0  0  0  0999 V2000
    8.6759    7.4690  -18.2683 C   0  0  0  0  0  0  0  0  0  0  0  0
    7.6974    7.0583  -17.3428 C   0  0  0  0  0  0  0  0  0  0  0  0
    8.2964    7.8615  -19.5613 C   0  0  0  0  0  0  0  0  0  0  0  0
    5.9564    7.5531  -18.9617 C   0  0  0  0  0  0  0  0  0  0  0  0
    6.4065    0.7855  -21.5693 C   0  0  0  0  0  0  0  0  0  0  0  0
    4.6018   -0.6624  -20.7831 C   0  0  0  0  0  0  0  0  0  0  0  0
    6.6732   -1.6376  -21.6250 C   0  0  0  0  0  0  0  0  0  0  0  0
    6.3165    7.1377  -17.6697 C   0  0  0  0  0  0  0  0  0  0  0  0
    6.9358    7.8346  -19.9189 C   0  0  0  0  0  0  0  0  0  0  0  0
    5.1155    0.6286  -21.0178 C   0  0  0  0  0  0  0  0  0  0  0  0
    7.1889   -0.3473  -21.8595 C   0  0  0  0  0  0  0  0  0  0  0  0
    5.3766   -1.7937  -21.0947 C   0  0  0  0  0  0  0  0  0  0  0  0
    6.7936    1.4247  -18.0515 C   0  0  0  0  0  0  0  0  0  0  0  0
    5.2205    8.2149  -14.1749 C   0  0  0  0  0  0  0  0  0  0  0  0
    4.8432    8.8786  -15.5080 C   0  0  0  0  0  0  0  0  0  0  0  0
    6.2099    7.0598  -14.3856 C   0  0  0  0  0  0  0  0  0  0  0  0
    4.2137    7.8443  -16.4435 C   0  0  0  0  0  0  0  0  0  0  0  0
    5.6738    6.0247  -15.4033 C   0  0  0  0  0  0  0  0  0  0  0  0
    5.1837    6.6702  -16.7356 C   0  0  0  0  0  0  0  0  0  0  0  0
    7.0618    0.4206  -16.9348 C   0  0  0  0  0  0  0  0  0  0  0  0
    5.5678    9.3365  -23.1732 C   0  0  0  0  0  0  0  0  0  0  0  0
    7.4227   10.2984  -21.7576 C   0  0  0  0  0  0  0  0  0  0  0  0
    5.0858   10.0421  -20.8086 C   0  0  0  0  0  0  0  0  0  0  0  0
    6.5119    7.9717  -21.3522 C   0  0  0  0  0  0  0  0  0  0  0  0
    4.3205    1.8395  -20.5901 C   0  0  0  0  0  0  0  0  0  0  0  0
    5.0807    4.4852  -17.8942 C   0  0  0  0  0  0  0  0  0  0  0  0
    5.0904    2.6089  -19.4977 C   0  0  1  0  0  0  0  0  0  0  0  0
    4.2379    3.7346  -18.9202 C   0  0  2  0  0  0  0  0  0  0  0  0
    6.1511    9.4162  -21.7487 C   0  0  0  0  0  0  0  0  0  0  0  0
    5.4765    1.6900  -18.4087 N   0  0  0  0  0  0  0  0  0  0  0  0
    4.3550    5.6831  -17.4618 N   0  0  0  0  0  0  0  0  0  0  0  0
    7.7292    2.0484  -18.5415 O   0  0  0  0  0  0  0  0  0  0  0  0
    3.8493    4.6210  -19.9713 O   0  0  0  0  0  0  0  0  0  0  0  0
    8.4394   -0.1963  -22.3511 F   0  0  0  0  0  0  0  0  0  0  0  0
    4.8793   -3.0301  -20.8704 F   0  0  0  0  0  0  0  0  0  0  0  0
    9.7175    7.4820  -17.9834 H   0  0  0  0  0  0  0  0  0  0  0  0
    7.9985    6.6799  -16.3770 H   0  0  0  0  0  0  0  0  0  0  0  0
    9.0414    8.1811  -20.2749 H   0  0  0  0  0  0  0  0  0  0  0  0
    4.9125    7.6561  -19.2186 H   0  0  0  0  0  0  0  0  0  0  0  0
    6.7926    1.7744  -21.7682 H   0  0  0  0  0  0  0  0  0  0  0  0
    3.6137   -0.7828  -20.3641 H   0  0  0  0  0  0  0  0  0  0  0  0
    7.2718   -2.5074  -21.8518 H   0  0  0  0  0  0  0  0  0  0  0  0
    5.6827    8.9670  -13.5186 H   0  0  0  0  0  0  0  0  0  0  0  0
    4.3092    7.8235  -13.6991 H   0  0  0  0  0  0  0  0  0  0  0  0
    4.1224    9.6883  -15.3214 H   0  0  0  0  0  0  0  0  0  0  0  0
    5.7471    9.2934  -15.9780 H   0  0  0  0  0  0  0  0  0  0  0  0
    7.1602    7.4684  -14.7598 H   0  0  0  0  0  0  0  0  0  0  0  0
    6.3810    6.5569  -13.4223 H   0  0  0  0  0  0  0  0  0  0  0  0
    3.3029    7.4456  -15.9730 H   0  0  0  0  0  0  0  0  0  0  0  0
    3.9516    8.3347  -17.3926 H   0  0  0  0  0  0  0  0  0  0  0  0
    6.4796    5.3128  -15.6354 H   0  0  0  0  0  0  0  0  0  0  0  0
    4.8308    5.4873  -14.9444 H   0  0  0  0  0  0  0  0  0  0  0  0
    8.1387    0.3983  -16.7119 H   0  0  0  0  0  0  0  0  0  0  0  0
    6.5070    0.7186  -16.0329 H   0  0  0  0  0  0  0  0  0  0  0  0
    6.7327   -0.5793  -17.2541 H   0  0  0  0  0  0  0  0  0  0  0  0
    4.6642    8.7093  -23.1654 H   0  0  0  0  0  0  0  0  0  0  0  0
    5.3091   10.3477  -23.5204 H   0  0  0  0  0  0  0  0  0  0  0  0
    6.3140    8.8959  -23.8507 H   0  0  0  0  0  0  0  0  0  0  0  0
    7.8379   10.3543  -20.7405 H   0  0  0  0  0  0  0  0  0  0  0  0
    8.1695    9.8581  -22.4346 H   0  0  0  0  0  0  0  0  0  0  0  0
    7.1646   11.3099  -22.1043 H   0  0  0  0  0  0  0  0  0  0  0  0
    5.4892   10.1051  -19.7871 H   0  0  0  0  0  0  0  0  0  0  0  0
    4.8303   11.0510  -21.1646 H   0  0  0  0  0  0  0  0  0  0  0  0
    4.1829    9.4138  -20.8080 H   0  0  0  0  0  0  0  0  0  0  0  0
    7.3373    7.6300  -21.9941 H   0  0  0  0  0  0  0  0  0  0  0  0
    5.6307    7.3344  -21.5176 H   0  0  0  0  0  0  0  0  0  0  0  0
    4.1616    2.4973  -21.4574 H   0  0  0  0  0  0  0  0  0  0  0  0
    3.3473    1.5159  -20.1923 H   0  0  0  0  0  0  0  0  0  0  0  0
    5.2697    3.8358  -17.0267 H   0  0  0  0  0  0  0  0  0  0  0  0
    6.0387    4.7787  -18.3482 H   0  0  0  0  0  0  0  0  0  0  0  0
    5.9950    3.0444  -19.9472 H   0  0  0  0  0  0  0  0  0  0  0  0
    3.3543    3.3063  -18.4244 H   0  0  0  0  0  0  0  0  0  0  0  0
    4.7486    1.2319  -17.8984 H   0  0  0  0  0  0  0  0  0  0  0  0
    3.6097    5.3970  -16.8596 H   0  0  0  0  0  0  0  0  0  0  0  0
    3.9760    6.1290  -18.2727 H   0  0  0  0  0  0  0  0  0  0  0  0
    3.3250    4.1484  -20.6071 H   0  0  0  0  0  0  0  0  0  0  0  0
  1  2  2  0
  1  3  1  0
  2  8  1  0
  3  9  2  0
  4  8  2  0
  4  9  1  0
  5 10  2  0
  5 11  1  0
  6 10  1  0
  6 12  2  0
  7 11  2  0
  7 12  1  0
  8 19  1  0
  9 24  1  0
 10 25  1  0
 11 34  1  0
 12 35  1  0
 13 20  1  0
 13 30  1  0
 13 32  2  0
 14 15  1  0
 14 16  1  0
 15 17  1  0
 16 18  1  0
 17 19  1  0
 18 19  1  0
 19 31  1  0
 21 29  1  0
 22 29  1  0
 23 29  1  0
 24 29  1  0
 25 27  1  0
 26 28  1  0
 26 31  1  0
 27 28  1  0
 27 30  1  0
 28 33  1  0
  1 36  1  0
  2 37  1  0
  3 38  1  0
  4 39  1  0
  5 40  1  0
  6 41  1  0
  7 42  1  0
 14 43  1  0
 14 44  1  0
 15 45  1  0
 15 46  1  0
 16 47  1  0
 16 48  1  0
 17 49  1  0
 17 50  1  0
 18 51  1  0
 18 52  1  0
 20 53  1  0
 20 54  1  0
 20 55  1  0
 21 56  1  0
 21 57  1  0
 21 58  1  0
 22 59  1  0
 22 60  1  0
 22 61  1  0
 23 62  1  0
 23 63  1  0
 23 64  1  0
 24 65  1  0
 24 66  1  0
 25 67  1  0
 25 68  1  0
 26 69  1  0
 26 70  1  0
 27 71  1  6
 28 72  1  1
 30 73  1  0
 31 74  1  0
 31 75  1  0
 33 76  1  0
M  CHG  1  31   1
M  END
>  <OMEGA_C>  (76) 
WtAKQegB70BqJZLBHFH2QDfd4UD3vYrB370EQXKR+0CWfZzBl5q+QMWy8UCQsZfBxgHNQHsZST8G
jqzBLEKTQGyRKb/CQ6bBhorVQAac0b8DAK3BmSDKQCBo5ECEW43BIPLdQBW1+kDuWZ/BgrKjQO3p
ID9jJKjBwQvmQBnNsb434K7BwQysQDuX5b//wajBMmXZQKFbtj98aZDBnA6nQA5wA0E0zGLBQ/ua
QKkODkHhIHjBiLfGQBjq4UA3K2bBtNaGQGsE+0BGjIPBsI+1QBDKwEADdHbBPeGlQKNy1UBv4oXB
M/rhQP5c1z53eofBbyuyQGliFUGlYrnBkYbtQCPGJEGCD67BOb+iQHWsIEH/d6bBe2HQQJEY/0Bd
0arBX0GKQIR16z+auKTB0pSiQPyGj0BdJ4/ByuSiQBX4JkBW+5vBzpyHQJ8Db0ChXJfBv9XEQJKo
FkFc/a3BWj+vQGxQ2D/uRJPBZlyLQKzbtUDFsYvB6lX3QDoZA0DwVJTBlFt2QB/fk0A8xZ/BqgcH
QeIHSb4nz7LBGCOcQKLsQcCs9qbBEnsbQVxs70AP3o/B9vP/QBLC1UAwBIPBu6kQQa/lAkHmMqLB
zjKdQNz+9EDEv5nBulzZQI4e4z9QJa7BD0dnQC1nSL+/6aLBUrLoQK55IMBv0K7Bjti1QNB4D0EU
TFjBKuWJQMZZ+kCYL1vB7eqDQHADG0GbJHXBbOi3QJSxFEG5pX/BWiDlQNP87kAAKGzBAzHMQGTS
0UDJwVbB+mFTQFxC7kBIkX/Bk+Z8QCJbBUH4I4vBQVnPQKACqkC5KnrB/JWaQA+Yr0ApHG/BUTgC
QRnryz4QsoXBIjnQQKv3Nz9tQ4DBfnLXQEdKFL9XCIrBHkGVQDNZC0G+UrnBBOSpQEiQJUGyKbzB
agzKQM9VDkE+zr7Bu8/6QFSrJUF87KXBXbYCQeC6HUEderPBVETlQFn1NEGR1bDBTKevQIeuIUES
TJ7Bi5GaQP3QMEErUanBl9qFQPaeFkHddqbB7srqQJMo9EDR86/BzS60QMCz6kAQJKzBMyyFQBjU
H0CtqKvB8DpWQD4Kwj/BiaHBR6GoQOV9dUDCNojBxTzBQB7rmEAiyZLBL9e/QIXXQkDok5/B8KxW
QC2aU0A3ZZPBSPSXQNeunT//L4/BAAVnQNyzrECM4IbBq3Z+QH0gxEBtLpLBW8xUQLS/hEBK26TB
aWgLQZyc3EDxZpLBbmf0QFA30EAC4YvBxqcIQQ32/EAJA5rBcjvGQI+tAUEX7ZTBFWnJQEKrNz+s
vqzBV4eTQGkGP78GxKTBXITTQPKM2b/+7azBeY/LQFbD40AV9IzBOVvpQBiXCEHkDpvBIx2iQHkP
DD9rWqfBEjHiQGWBz77ceK/BOwmsQIE677/vpKfBmTjbQBIZwj9cBpDBvdOrQP+mA0FHVWPBgSmc
QH0VDkGTPnjBhsTIQIlW4EBrqWfB5B2GQNnD+kB7R4PBEE2yQBn+v0CGknbBH9ikQLI/1UCVFYbB
D4vlQI/d7z4UiIfBdNScQMNDJ0FYZ6jBhi6+QJ4pBUH7ea/Bml7dQG7aKEGFarTBWZXmQHbQHEHV
mKHBpaCIQFcs4D+y6KPBUsOiQMOykEDmvY/BdZqiQGjvJECozJvB2GCHQCn8bUATa5fBrY/HQNsf
HEGzU6vBGauwQLwm2z8J45LBETSLQHz8tkBnZYzBeoT4QFFSBECs15TBcpVzQOfRkUDTBKDBh/QD
QQj2db7gmLTBUZGdQHkHR8AsWqXBOcUaQXQqzUA5i5HBFwn5QL94t0Ca9YXBH9kVQXYwA0EpEp/B
0PimQP1+CEHSUpbBgm/UQC3E2j8Pxq7BeShrQBr2X782lKDBaIjmQHz8I8A8CK/BcgK+QBSOD0EH
F1rBpuGPQCnQ/EBxAVrBqESFQKHjGkFLZ3TBjLG3QAbnFEGyaoDBEZLmQEtE60B9RG/BYkrQQHON
0EAZY1jBRCNUQJTn7UCiFn7BcGh3QCMqBUEJu4rB01nIQKpjpUA67nnB8Y2VQHWfs0Dqg27B5jgE
Qfassj5K54bBHZ7YQOAUSz8Win/BUP/WQLEO/L5MzInBLV+jQPSGN0GAdqXBSFKIQNMkKEHSiq/B
lXOMQB0HHkGWIaLBmnbcQIJt+kDrjrHBjsetQF/m90DvMqnBQaapQOUQBkErnLbBTcb7QDgZIUEs
kbbBgDbIQNw5KUFecrvBl6PjQDRNOUGmtLHBUP/bQJLHKUFLRJzBEmkDQQFtIEFpoqTBIl6BQGPY
F0DY8KrB7yVVQFbJtT/QK6DBE1yqQLcuekA5r4jBXpzAQH1AmkCmv5PBgby+QE7rP0CQ35/BhVtX
QHF2U0AiHpPBDi+aQBlonj9ApY7BrWBkQPrBrUDw+IfB/b2AQKIPxkBF85LBf0JRQMG5gUDi1KTB
j70KQVUv5kDDmJHBLST0QGdY1kAIKYvBinwGQf/MAkERUJnBXz/BQM2YAUHPtJTB0k3GQPlKUT/e
a63BqiqVQHjjP78Z06TBbSbUQHEKyr/ZQ67BeI7JQFBs5UDYe4zBHffiQPlyCkEWoprBKPigQIWw
Ej+lY6fBcPrfQDg6g77MyrDBrKuuQAOM6b89UKjBYTPcQJLKxz98P5DBmwuqQMySAkH4l2HBiJya
QOBlDUFrUHbBH7LHQNng3kCMQ2bBGr+EQJO1+UA9a4LBio+yQLbcvkC84HXBAASkQM0B1UA+iYXB
NKLnQGT4Bj+zu4fBO0HOQOhjK0E6DbTBYLSYQJOcEUEESqzBmazhQBGHBEE+DLLB0sXaQMVeHUHC
zqHBWcGGQMHL3T8kU6PBM8SiQLVWkUDQj4/BMeChQD3MJUB1p5vBATSHQDuZb0ABQpfB9tHIQD5j
F0Hk8azBxUexQC004D9gvZLBcrSKQJ3wtkBG+ovBQMn4QNbrBUAtdZXBXPFzQJrEkkAd3p/BRAQC
QegJh7zwcLbBMWqjQKz0RcAR3aXBYNAaQbEl2kBLmJDBSff6QA16vkA5JoXBdEcTQWkBCUEhOZ7B
jq2gQC41BkHdcpbBYyjPQAFG6j8Lc6/BHDxxQIH1b79oMaDBVtDnQDLXGcDQ47DBIZ+7QJdeDkEi
7lfBcQqOQPO9+UBulVjBvKyDQAIjGkG0UXLBZzK2QMRaFEFwv37BZJblQJfF6kASaG3BmefOQIVV
zkAnJ1fB4VVSQPf460CkU3zBeEtzQP/fBEGAvonBNcDJQG+LpUCPwnnBk2yWQDqcsEBDEG7B20gF
Qf4wyz5Nd4fBvizcQFVeXz/bxH/BZmPYQI6v3b6jtYnBDF/wQFeaL0Eoj7TBtufBQHkBKEHdHbzB
AVq8QEfTOEEPjLDBDo2UQG1bA0GoO6fB3OiGQFIZH0HgzKjBknaMQIRHDkGvXrTBgADeQKhZ7EC4
Ca3BXOTUQKBPAUF9FrrBheQBQU20CEH1pLLBs5jDQAvzJ0FR0p3BVSX5QJT3JUFD86LBjaR4QLBh
FkCkIKrBhBNVQIfXrD+KC5/BjhmrQHG3ekBzn4jBizbAQJqpm0BaopPB/VO9QCj+P0BMFaDBVZ5W
QEfNVUCC95LBJHKbQBI1pT9BM47B9dtjQE3xrEAAk4fBe79/QGRtxkD0bpLBrm1RQLLXgkC2saTB
yCgJQRLs6kCsrpLBfh3zQA/o2ECL9ovBNxQDQYpDBEFQiJrB6z+7QIWP/UDP+ZXBMSPMQLXNVD/I
/azBl0yTQIMuHb8TKabB3kvVQCh+y78YDa3BTEDHQB7L40C+P43BvYbaQHoUCUGqEJzBmDKjQF6u
LD8QY6jBXUjlQE7Umb5HPa/B9jmsQNRf37/EjajBSZ7aQKpMxT/ChpDB3CiuQOmjBEF4hWPBtjic
QM0bDkFaYnjBeKTLQIqo4kAVw2fBUQmFQHUm+UBljoLBeIu1QE+IwEDE93XBVQOkQCsP1EATl4XB
PEHkQBSy7z4WMYjBXAikQBNDB0HfkrHBi1b0QMb7CUGQKrPBOz/HQE3lKkHWO7XBUm3NQE9EG0F/
OKPBgviJQFBw8T8q+6TBjFSiQLrVj0AQUo/BdgejQA+sKUDJT5zB2mWHQAMacEA/fpfBCGnLQF17
FUGfNK/BnGewQOAf3T+DtpPBKeWJQAVytECtT4vBGEb4QBH+B0CN8pTB3yB0QEDSlEDhuJ/BDnQG
QZzDF76MZ7PBN+OcQEezPsASZ6bBkcIZQU3/4UBDzZHB2oH8QB2nwkCfyIXBsxcPQej4C0HtZp/B
vNaZQB+0AEEL95fBWSHYQOTV6D/zyK7B0QFoQFmIO7+pnqLB9oboQEdnHcBJ0q7BGIzAQNYTEUE6
H1vBAU6TQETd/kCzZ1nB94+FQHIFG0EPjnTBFqq2QCeTFEGBBIHB0sPoQJ/n7UCS5G/BGlPUQCn4
00A8XljBwpdVQEs57EBwUnvBibxvQEqYA0GH7InB9uvMQHVqp0BT5XnB0b+aQJZsskDn/mzB54wD
QfwOuj5sRYfBLwrWQOAGQj9xe4DBuY/WQIpP+76qz4rBMN2GQNFdD0Hmxa7BYLmhQI5tBEFcPbrB
iICnQOy970D5ZK3BCDkIQTMKFEGwf7HBMLb3QKYt9UAu/K7BCO/xQGslB0GQ1LvBLFHjQFLzNEFl
hrPBX2DFQCbRJ0Gr4r3BvBCqQAA0M0FImLLB9YatQHbCIEEVtqDBMKfkQLdVKEGENKLBkMuEQLK2
IkCt7KvBAb5VQHO0yD9CvaHBFUCqQE2cdEBipYjB7ATAQKspm0ApG5PBh3m/QPnMRkA9AKDB3xpX
QGhEU0CcfpPBcK6ZQJMPmj8084/BxcNmQMGVqUDqUIbBau93QKb3wkAniJHBZnNSQEDRhUBw0aTB
w2gLQcJf70B6V5HBQdz2QD/84EDdQ4rBVtIFQWx4/UDloJvBW2HAQHY38kAAa5fBLrTMQD/DSD/N
i6zBtz+TQM5DKb/pDabBTpTVQHeg0b9RwKzB5erKQLH+40BsGI3BK3ngQBhb/EDMzJ7BU3KjQAbs
ID+SHKjB4tjlQJgxsr69yK7BMDisQKN/5b9WbKjBZl3ZQClcwD+WE5DBDOKmQCh2A0Hm3mLB4TOb
QOfsDUHOVHjByeXFQPhD4UDI5GXBZf6GQN6h+kCZmYPBT7W0QFQ0wEAaPHbBNfmlQK321EBv14XB
UF3iQJTZ1T4uzYfB6j3rQFGfJUEBTK7BshyhQKsJH0GSw6bBGAmzQOznEkHuY7nBX4rUQOE+/0B5
aarB8QKKQFXa6z/4x6TBPLqiQDeHj0DmQ4/Bx8WiQOViJ0D0FpzBnH6HQIsNb0CLaZfBpw/FQH/k
FUEtAa7BAF+vQL972T/aYpPBy5mLQDrKtUCxy4vB01/3QLCmBEAIdpTBRz51QNfek0Dfx5/BTd0G
QZu8SL6Oy7LBs6GcQLLSQcBVa6bBO/UbQUqQ70Dx2o7BHs//QNGN00AGoILB6fYRQVyGBEElDaHB
hC2fQKBc9UDirpnB6PHYQDPc4j/mN67B8mJnQAfDR7+HqaLB8M/oQHx9IMCngq7BZBG2QKmBD0Fl
hljBx3iJQK8k+0CfM1vBS0uEQMf9GkHyh3XBD0+4QD5jFEER1H/BlMDkQHyt7UDFqGvByInKQD5C
0UAvZFbBmY5TQLAP7kCkqH/BYm59QLgQBUGqOYvB2UDOQM0CqUD+t3nBrUSZQK55r0D0DW/BSpIC
QZq/lT5x4obB/k7UQMZ+NT/QE4DBTB/UQLX9B78ZeYrBFVECQcsSH0Hob7PBHIngQOEaNUGBg7HB
Obf3QDziJ0FiJabBzgiGQF3ME0HAlKbB4X+tQJxKIUG0mp7BxFGWQEGDLkHT+KnB9uOXQBW2B0Ek
J7nBlS6oQNFwIkEag7zBKS7MQEVwDEGZob7Bjs3wQOi19kBANK/BP766QEIc6ECJ9avBXPmEQCSm
H0CkwavBxLJVQAMMwz+slKHBhPeoQJmRdUAyVIjBZEjBQIjlmEAU9JLBkZa/QKh3Q0DauZ/Bsd5W
QMtcU0CPYZPBYEqYQGgdmD+DpI/BNu1mQMeYrECrEofBj75/QKhdxEA1SZLBdllTQNS1hEA706TB
tHHWQOxBB0GgJJ/Bev63QHprAEFIjJfBYQYBQbWNAkFglJ3BS5vwQES24ECC7IzBUvrHQNoiRT9f
E63BpL6TQCrGPL8M8qTBGxrSQMhL0r/RLq7BXwnFQGb06UDVQo7B9YcHQaDG7kBDSZTB5NehQBT3
ET/QQafBECngQIPVq77CfLDBhtKrQIvp6792cajBXzLbQGKRvD+FwY/BJR2uQAnoAUEc2WHBqLed
QOW8DUGv1XXBDDHMQNQU30CtBGjBF/2FQC5h/EBIbYLBhau2QNqmwEBfOHjBKOujQCIR2EBWR4bB
Gy/kQDxQ1T60OofBEek9QcoLAUG+nofBTr8iQfkDG0EUvo7BuQs7QcrSBkGLhZvBR6ceQW5+40B0
AJLB16CIQOvv4D8bV6PB5wCjQN6VkkBtk4/BCYGjQN0UJkAOdpvBzceIQDZpcUANcJfBzCUuQY1D
BUGI/ZDBkdewQDck4D+zW5LBrkaKQCCLuEDkOIzB4wf5QEzv+D9o5ZTBQAZ7QKJzk0BxP6DBNm4C
QWyUEL7D/LXBe16eQN43RsCyOKbBT1fMQO0REEH5IabB74GWQHvlA0FfypjBBrsMQbdxB0ErcqPB
P8r6QFlZzkC4D4bBI5fSQKfR4j+U6K7BIwptQAfiY7+jf6DBfqzkQHp/H8Ab0bDBrIS/QPpEDUH7
mlfBKaSSQIi69kAxAFnBsKyHQNiHGkEc33DBcA25QLzEFEHbaH7BG2HpQB937ECoOm/BWarUQP/u
zECLi1nBGIFVQKBE7kCnOHzB82F0QDEYB0HIa4nBB5nOQA0vqUCHmX3B01ScQOPsr0CNEnDBmGED
QaYyXD7b5YbBsDvZQFKTSD+6y37BdAXTQJeSAr9AP4nBpEBGQeiO40CS84jB1q9JQcAZDkEyN4fB
GPU0QYFGAEG2DYDBcGwXQV2DHkGPP5XB0gYaQe0FGkFlHYfBkMEuQS3ZJ0HhRo7BFw0wQQHQCUGS
OqLByJpGQVcLFEE18JrBbalDQZJx70BN45zBoy8fQeCM0UCIb4rByXQkQYsIz0BgjJjBWTp/QEmR
GECVNqrBmBxXQGmksz8SRJ/B2W+qQLyqfUBwiIjBTvbAQMninEBpaZPBCeW/QL63PkBrp5/B8OJX
QLbvWECnbJPBa++ZQCpBrT8PxI3BFl5kQCDfrkCJi4fBkeh8QC23xkD4wZLBhQ1aQIOFg0A2PaXB
pYHYQB3gCEETtZ7BeX+5QNLVAEEIipfBgB8CQbUNBUF8xZzBw1DxQMv+3kCuNY3BGajHQC5TRz8d
zKzBcwKUQBxMQL+ZsqTBhYjSQIqO0L92B67BwvDFQDRH6UB6bo7B2DoIQd2y8EBk75PBYLahQDLE
Dz8R8abBbiTgQOzOob5ASLDBvVKsQP9H7L/0S6jBFNXbQDPHvD/2zY/Bw16sQFrbAEG+ZWHBiXqe
QKQ9DUGzfnXBFKjJQKQt3EABQmfB3tuGQDOP/EA/kILBl8K1QNdNv0C3g3jBqlWkQNTZ10CkcIbB
g3nlQNDW3T5WM4fBwbw9QUl1/EAZXITBhqYYQbpZA0Gm8XrBjr0mQd4UHEGcs4vBNHIfQblx6kAB
4pDBzyCIQOUl3j9R+qLBKXaiQKJ+kkAblo/BliKjQPfFJUB5RZvBsS2IQKPkcEAMVZfBRcQmQfuk
BEGzqYfB2ESxQCrV4T9DH5LBpFyKQC0RuUDLdYzB8yz5QP5X9T+kR5XBdHp5QB7kkkB4L6DBU0cC
QfZR17043LXBAQKfQJbBRsDdPKbBaLfOQF7sEUFDpqXBeQCYQLL3A0GS+pjBJCAOQX3HC0G0/6HB
FeD6QF8NyUAp+obBT+HRQE6G5D/Fma7BHNRtQGuRar/XOaDBJWXlQBofHsBdsrDBA6y9QEfCC0G8
n1bBHMOPQJFS9UDjOVnB4wCJQARfGkFizHDBNfW6QB7dE0G9cH3BNyzoQFXr6EDVSW3BmJHPQFbw
yECk0VjBIstVQD+27kAz+3zBk094QD2cB0FZh4nBElLOQI5zqEDa133Bx+yaQJzCrUDcP3HBAvsD
Qa0YWj7MJofBL+LbQC8XUz+1qn7ByYPTQHbp+b7N6ojBqU5IQfjg/UAWY4vB8ZxDQdtVCUEzZXzB
P6E9QT2y20BiJIHBSRsIQQXQB0Fq9n7BrO0YQRrV5UC8pnTBXekeQUpnDkErw27Br2gWQSyoIEFw
DY7BPlcsQX24JkFmRoXBdHUxQcCCHUEUpZLBr60hQVczyUDHNo7BUHMpQUh18EAO95fBUo58QPaM
FkDZ1anByxpXQK5Frz+hwZ7BhGWpQIxnfkDTbojB263AQEgAnEBkbJPBwy+/QFOKPkDGl5/BtudW
QEZoWEA5RZPBmMmaQHLTsT+pSI3B2y5jQLUrsEDq6IfBTRF/QGRfx0CeFZPBDU9YQNDKgkBCH6XB

>  <OMEGA_E>  (76) 
MKQLPjAxHj6Q1Cw+SAlDPiCICj5od84+jDnSPg==

>  <OMEGA_NBR>  (76) 
     42123

$$$$
50167949
     RDKit          3D

 73 75  0  0  1  0  0  0  0  0999 V2000
    5.7170    8.1772  -18.8811 C   0  0  0  0  0  0  0  0  0  0  0  0
    7.6288    7.4814  -17.5458 C   0  0  0  0  0  0  0  0  0  0  0  0
    4.3135   -0.9229  -20.9689 C   0  0  0  0  0  0  0  0  0  0  0  0
    6.3253    0.4350  -21.2039 C   0  0  0  0  0  0  0  0  0  0  0  0
    7.9666    8.8596  -19.5261 C   0  0  0  0  0  0  0  0  0  0  0  0
    6.3613   -1.9021  -21.8770 C   0  0  0  0  0  0  0  0  0  0  0  0
    6.2271    7.5005  -17.7430 C   0  0  0  0  0  0  0  0  0  0  0  0
    6.5740    8.8555  -19.7862 C   0  0  0  0  0  0  0  0  0  0  0  0
    4.9846    0.3046  -20.7702 C   0  0  0  0  0  0  0  0  0  0  0  0
    4.9974   -2.0184  -21.5380 C   0  0  0  0  0  0  0  0  0  0  0  0
    7.0268   -0.6748  -21.6986 C   0  0  0  0  0  0  0  0  0  0  0  0
    8.4840    8.1771  -18.4136 C   0  0  0  0  0  0  0  0  0  0  0  0
    6.4186    0.8728  -17.6906 C   0  0  0  0  0  0  0  0  0  0  0  0
    5.4270    7.9313  -13.9892 C   0  0  0  0  0  0  0  0  0  0  0  0
    4.8144    8.7199  -15.1617 C   0  0  0  0  0  0  0  0  0  0  0  0
    6.4959    6.9460  -14.4873 C   0  0  0  0  0  0  0  0  0  0  0  0
    4.1989    7.7597  -16.2017 C   0  0  0  0  0  0  0  0  0  0  0  0
    5.9394    6.0067  -15.5926 C   0  0  0  0  0  0  0  0  0  0  0  0
    5.2486    6.7629  -16.7884 C   0  0  0  0  0  0  0  0  0  0  0  0
    6.5289    0.2551  -16.2968 C   0  0  0  0  0  0  0  0  0  0  0  0
    4.9735   10.6572  -20.5645 C   0  0  0  0  0  0  0  0  0  0  0  0
    5.2394    8.5243  -21.9121 C   0  0  0  0  0  0  0  0  0  0  0  0
    7.0539   10.2592  -21.9120 C   0  0  0  0  0  0  0  0  0  0  0  0
    4.2287    1.5017  -20.2102 C   0  0  0  0  0  0  0  0  0  0  0  0
    5.2822    4.6404  -18.1240 C   0  0  0  0  0  0  0  0  0  0  0  0
    5.0980    2.3900  -19.2622 C   0  0  1  0  0  0  0  0  0  0  0  0
    4.3938    3.7414  -18.9969 C   0  0  2  0  0  0  0  0  0  0  0  0
    5.9768    9.5654  -21.0257 C   0  0  0  0  0  0  0  0  0  0  0  0
    5.3247    1.6928  -17.9752 N   0  0  0  0  0  0  0  0  0  0  0  0
    4.4804    5.7748  -17.6032 N   0  0  0  0  0  0  0  0  0  0  0  0
    7.3467    0.7298  -18.4785 O   0  0  0  0  0  0  0  0  0  0  0  0
    4.1449    4.4258  -20.2289 O   0  0  0  0  0  0  0  0  0  0  0  0
    4.3462   -3.1834  -21.7580 F   0  0  0  0  0  0  0  0  0  0  0  0
    8.3370   -0.5516  -22.0120 F   0  0  0  0  0  0  0  0  0  0  0  0
   10.6240    8.1898  -18.0314 I   0  0  0  0  0  0  0  0  0  0  0  0
    4.6523    8.1761  -19.0626 H   0  0  0  0  0  0  0  0  0  0  0  0
    8.0443    6.9254  -16.7183 H   0  0  0  0  0  0  0  0  0  0  0  0
    3.2763   -1.0229  -20.6851 H   0  0  0  0  0  0  0  0  0  0  0  0
    6.8129    1.3973  -21.1535 H   0  0  0  0  0  0  0  0  0  0  0  0
    8.6344    9.3912  -20.1878 H   0  0  0  0  0  0  0  0  0  0  0  0
    6.8946   -2.7537  -22.2730 H   0  0  0  0  0  0  0  0  0  0  0  0
    5.8894    8.6372  -13.2835 H   0  0  0  0  0  0  0  0  0  0  0  0
    4.6309    7.3703  -13.4780 H   0  0  0  0  0  0  0  0  0  0  0  0
    4.0291    9.3872  -14.7770 H   0  0  0  0  0  0  0  0  0  0  0  0
    5.6008    9.3189  -15.6441 H   0  0  0  0  0  0  0  0  0  0  0  0
    7.3431    7.5158  -14.8967 H   0  0  0  0  0  0  0  0  0  0  0  0
    6.8402    6.3349  -13.6399 H   0  0  0  0  0  0  0  0  0  0  0  0
    3.3963    7.1832  -15.7184 H   0  0  0  0  0  0  0  0  0  0  0  0
    3.7779    8.3545  -17.0257 H   0  0  0  0  0  0  0  0  0  0  0  0
    6.7740    5.4134  -15.9945 H   0  0  0  0  0  0  0  0  0  0  0  0
    5.1989    5.3345  -15.1345 H   0  0  0  0  0  0  0  0  0  0  0  0
    7.4941   -0.2635  -16.2002 H   0  0  0  0  0  0  0  0  0  0  0  0
    6.4616    1.0486  -15.5379 H   0  0  0  0  0  0  0  0  0  0  0  0
    5.7099   -0.4642  -16.1488 H   0  0  0  0  0  0  0  0  0  0  0  0
    4.5492   11.1616  -21.4451 H   0  0  0  0  0  0  0  0  0  0  0  0
    4.1641   10.1897  -19.9845 H   0  0  0  0  0  0  0  0  0  0  0  0
    5.4963   11.3937  -19.9367 H   0  0  0  0  0  0  0  0  0  0  0  0
    4.8146    9.0275  -22.7932 H   0  0  0  0  0  0  0  0  0  0  0  0
    5.9508    7.7516  -22.2388 H   0  0  0  0  0  0  0  0  0  0  0  0
    4.4305    8.0562  -21.3318 H   0  0  0  0  0  0  0  0  0  0  0  0
    6.5664   10.7425  -22.7716 H   0  0  0  0  0  0  0  0  0  0  0  0
    7.5847   11.0175  -21.3177 H   0  0  0  0  0  0  0  0  0  0  0  0
    7.7715    9.5076  -22.2726 H   0  0  0  0  0  0  0  0  0  0  0  0
    3.8833    2.1214  -21.0508 H   0  0  0  0  0  0  0  0  0  0  0  0
    3.3599    1.1333  -19.6449 H   0  0  0  0  0  0  0  0  0  0  0  0
    5.6798    4.0554  -17.2815 H   0  0  0  0  0  0  0  0  0  0  0  0
    6.1164    5.0278  -18.7274 H   0  0  0  0  0  0  0  0  0  0  0  0
    6.0634    2.5843  -19.7523 H   0  0  0  0  0  0  0  0  0  0  0  0
    3.4490    3.5507  -18.4669 H   0  0  0  0  0  0  0  0  0  0  0  0
    4.6424    1.8190  -17.2552 H   0  0  0  0  0  0  0  0  0  0  0  0
    3.7489    5.4024  -17.0320 H   0  0  0  0  0  0  0  0  0  0  0  0
    4.0815    6.2576  -18.3828 H   0  0  0  0  0  0  0  0  0  0  0  0
    3.5957    3.8866  -20.7859 H   0  0  0  0  0  0  0  0  0  0  0  0
  1  7  2  0
  1  8  1  0
  2  7  1  0
  2 12  2  0
  3  9  2  0
  3 10  1  0
  4  9  1  0
  4 11  2  0
  5  8  2  0
  5 12  1  0
  6 10  2  0
  6 11  1  0
  7 19  1  0
  8 28  1  0
  9 24  1  0
 10 33  1  0
 11 34  1  0
 12 35  1  0
 13 20  1  0
 13 29  1  0
 13 31  2  0
 14 15  1  0
 14 16  1  0
 15 17  1  0
 16 18  1  0
 17 19  1  0
 18 19  1  0
 19 30  1  0
 21 28  1  0
 22 28  1  0
 23 28  1  0
 24 26  1  0
 25 27  1  0
 25 30  1  0
 26 27  1  0
 26 29  1  0
 27 32  1  0
  1 36  1  0
  2 37  1  0
  3 38  1  0
  4 39  1  0
  5 40  1  0
  6 41  1  0
 14 42  1  0
 14 43  1  0
 15 44  1  0
 15 45  1  0
 16 46  1  0
 16 47  1  0
 17 48  1  0
 17 49  1  0
 18 50  1  0
 18 51  1  0
 20 52  1  0
 20 53  1  0
 20 54  1  0
 21 55  1  0
 21 56  1  0
 21 57  1  0
 22 58  1  0
 22 59  1  0
 22 60  1  0
 23 61  1  0
 23 62  1  0
 23 63  1  0
 24 64  1  0
 24 65  1  0
 25 66  1  0
 25 67  1  0
 26 68  1  6
 27 69  1  1
 29 70  1  0
 30 71  1  0
 30 72  1  0
 32 73  1  0
M  CHG  1  30   1
M  END
>  <OMEGA_C>  (77) 
ffG2QPbVAkGADJfBJB/0QKxn70C3XYzBKQiKQIlCbL9VwKfBzWjKQES23j6GoanBPu7+QAHBDUGJ
NZzBApDLQJx2878eBK/BOETHQPQD8EDB8Y3B113SQASwDUEtSp7BcIGfQDbzmz5QKabB2OqfQC8t
AcDPTazBOdvgQO29LL/Llq3BqL4HQVTVAkEbT5PBFWXNQD5wXz9yho3BWKqtQIjN/UC901/BiA+a
QKaEC0FPlnLBYN7PQOJF3kDey2fBCF2GQDRP+EAVnYHB7A++QIA2wEAne3nBqPSnQGVp2ECxTobB
eOzQQMqegj6/X4LBwyafQNWDKkEMhKTB76inQIRjCEH6S6/Bb7nhQNslJEHOS6/Ba1GHQII2wD96
rqHBGQipQMx9lED4/ZDBkyKjQG32GED+GJrBMpqMQG9zb0CR+ZfB2UG/QPoLGUGhNKjBRWSqQIau
2D9FzY/BJV+PQDbLuEBY04zBVhjrQPjVOj/705PBo6KEQH+gjUDa1KHBcRSLQHK8S8B7EK7BdGQF
QZE3Db+CGLDB2vspQToJA0FYQJDB69+UQGHRAkElgJjBd7UAQdqc3UAsv4XBZ65RQNLsgr8Ee6XB
BwPaQC7csj92OqnBmSYKQT5CFkGvgKHBSaDcQP87MMAoL7LBwXW8QAIyCkE7iVTBKjCUQIrZ60C2
pVfBle6AQB8yFkGZbmzBgjmzQF0aFUFnTnrB2vrqQDWB8EC9WG7BJuPaQOO3ykAZPVrBVF1ZQKLc
5UB4fnvBAslxQBesBUGaNIjBZsTYQF86rUCf6X/BdF2mQBe0qkALJ3LBD9DvQHHjhr4ZmoHBFcXO
QEk3hj8Tm3jBxre2QJau7b6uMIHBIZORQN+VMkGmj6vBdkCFQAoJI0E34J/Bm+GvQMNMNkFGfp/B
1RCaQHRwEEGAWLbBSW2+QPcM+EAK6bHBBseNQEjmAEGZp6rB6h/SQELhK0EoLLbBo7XyQM1HMEGN
iqrBf7D4QBgfGEEvLrLBMod4QIrFB0D4Z6jBsghXQAwRkT/FKJ3B3sC1QAjGgUCIQIrBn7nDQNzj
oECj0ZXBbAfCQPxlJUCtBJ7B2rtcQCQ/Y0ApvJPBno6UQC3U6D+NCorBje1vQFXgrECcQYjBrpuC
QHY+yED+D5PBmR9mQMC+eEBySabBr7izQNllBEGYSpbBPL/yQOeZ8UAtb4zBxl20QGKe2z03Yq7B
zWGSQK5+Xb/ulp7BLHj6QNfNEEE7q5vBmr2/QPXUD8ByA6rBlbfFQMR08UB8qI3BFa3NQOZoEEFO
aJ3BIoKZQB44ej4HXaXBszTHQNzjkb8tv7DBOXClQKf2BsAD6qDBNVYGQWMTBUHTPJPBD87XQFU0
uj8zvI7BoIivQAlr90DopF7B7huaQAMfCUEKVHDBa/XRQI6+2UArCmjBbCmGQAT09EB5xYDBxc6/
QINYvUANVXrBLPqnQJMr10CSMIbBLNLdQA8xKD8RZoTBL1mYQMI9LUFKZqLBKQWhQNp/DEEIMq7B
acPZQFnsKEF5263BVEqFQL9Wyz9Xx6LB6eGpQImXlkBnKJLBknajQHDaHkDw+JvB3RqNQPaSdEAZ
NpnB3cK4QISfHEEm1KbBlV6uQBt24z8V7pHBOoyPQJh7uEBMCI3B/eL2QKrU2D/qapTB+BqDQOE6
kUD4x6LBGWbgQCcWo7+AfLnBV2KeQL3WSsCubJrBcrwoQdDFBUGPtJDBgX2RQJIhBEEQeZfBDaYA
QXCd3kDBMobBD3y6QGhVdT9RerPBoo18QPh2Qr/xnJfBBV8HQVovGkGE3KDBQi3OQKbuTMD006vB
JIG+QBuHBkH081LBDQuXQDLn40BBm1bBadeAQA8TE0FwLmnBe0WyQMt6E0Fq2HfBGTjsQIZl7UB1
bW7BOkLeQKfqxEDiQFvBTgBbQPTn4EAN+nnBiqtuQEGNBEFC9obBT4/aQO/Yq0Cu2YDBtRepQONn
pkBKUXPBpcb/QAJtyD6Bd4PBYIjTQPQioj/EFHvBBXjKQJaChb5dwYTBrH2JQOjqNUE5GKnBdtd+
QBLuJEHax53BbSupQDymOEGwLp3B2iSSQJwoFUG45LTBHf+3QHa8AEGPVbHBUxyIQEYuBEHjkqnB
quzIQF04MUGOYLTB/8zqQHa1NEF15qjBPuLwQNWGHUHgQbHBbuV7QFr8BkB4T6rBTwRPQD+OtT8n
Sp7BlwO5QMvSgkC974vB0svCQCqDpUCMIZfBCbXAQJUwLEDvk6DBGixfQC9FZkB0w5TB1k2WQBq4
wT/iGI3ByPxyQIA7qkCzdYjBUw2BQBkryUBE0ZLBkadiQPUagECUN6fB

>  <OMEGA_E>  (77) 
GMz/PjiLED8=

>  <OMEGA_NBR>  (77) 
     44754

$$$$
50167951
     RDKit          3D

 73 75  0  0  1  0  0  0  0  0999 V2000
    5.8299    7.8850  -18.9623 C   0  0  0  0  0  0  0  0  0  0  0  0
    7.6449    7.0613  -17.5688 C   0  0  0  0  0  0  0  0  0  0  0  0
    6.3860    0.8126  -21.5833 C   0  0  0  0  0  0  0  0  0  0  0  0
    4.5957   -0.6427  -20.7775 C   0  0  0  0  0  0  0  0  0  0  0  0
    8.1380    8.2666  -19.6279 C   0  0  0  0  0  0  0  0  0  0  0  0
    6.6695   -1.6080  -21.6241 C   0  0  0  0  0  0  0  0  0  0  0  0
    6.2551    7.2378  -17.7789 C   0  0  0  0  0  0  0  0  0  0  0  0
    6.7557    8.4446  -19.8735 C   0  0  0  0  0  0  0  0  0  0  0  0
    5.0991    0.6492  -21.0260 C   0  0  0  0  0  0  0  0  0  0  0  0
    7.1748   -0.3155  -21.8697 C   0  0  0  0  0  0  0  0  0  0  0  0
    5.3772   -1.7701  -21.0847 C   0  0  0  0  0  0  0  0  0  0  0  0
    8.5740    7.5773  -18.4863 C   0  0  0  0  0  0  0  0  0  0  0  0
    6.7854    1.4769  -18.0134 C   0  0  0  0  0  0  0  0  0  0  0  0
    5.3328    8.1712  -14.1921 C   0  0  0  0  0  0  0  0  0  0  0  0
    4.8203    8.8448  -15.4747 C   0  0  0  0  0  0  0  0  0  0  0  0
    6.3508    7.0658  -14.5147 C   0  0  0  0  0  0  0  0  0  0  0  0
    4.1804    7.8023  -16.3962 C   0  0  0  0  0  0  0  0  0  0  0  0
    5.7639    6.0312  -15.5015 C   0  0  0  0  0  0  0  0  0  0  0  0
    5.1866    6.6899  -16.7987 C   0  0  0  0  0  0  0  0  0  0  0  0
    7.0619    0.3710  -16.9997 C   0  0  0  0  0  0  0  0  0  0  0  0
    5.0268   10.0459  -20.8471 C   0  0  0  0  0  0  0  0  0  0  0  0
    5.8315    8.0462  -22.1690 C   0  0  0  0  0  0  0  0  0  0  0  0
    7.3332   10.0356  -21.8112 C   0  0  0  0  0  0  0  0  0  0  0  0
    4.3059    1.8558  -20.5938 C   0  0  0  0  0  0  0  0  0  0  0  0
    5.0932    4.5011  -17.9208 C   0  0  0  0  0  0  0  0  0  0  0  0
    5.0863    2.6163  -19.5042 C   0  0  1  0  0  0  0  0  0  0  0  0
    4.2412    3.7428  -18.9264 C   0  0  2  0  0  0  0  0  0  0  0  0
    6.2489    9.1363  -21.1559 C   0  0  0  0  0  0  0  0  0  0  0  0
    5.4728    1.6929  -18.4185 N   0  0  0  0  0  0  0  0  0  0  0  0
    4.3657    5.7001  -17.5099 N   0  0  0  0  0  0  0  0  0  0  0  0
    7.7259    2.0543  -18.5489 O   0  0  0  0  0  0  0  0  0  0  0  0
    3.8450    4.6243  -19.9785 O   0  0  0  0  0  0  0  0  0  0  0  0
    8.4217   -0.1570  -22.3675 F   0  0  0  0  0  0  0  0  0  0  0  0
    4.8921   -3.0081  -20.8435 F   0  0  0  0  0  0  0  0  0  0  0  0
   10.4383    7.3285  -18.1904 Br  0  0  0  0  0  0  0  0  0  0  0  0
    4.7733    7.9536  -19.1753 H   0  0  0  0  0  0  0  0  0  0  0  0
    7.9921    6.5264  -16.6972 H   0  0  0  0  0  0  0  0  0  0  0  0
    6.7641    1.8030  -21.7894 H   0  0  0  0  0  0  0  0  0  0  0  0
    3.6110   -0.7669  -20.3517 H   0  0  0  0  0  0  0  0  0  0  0  0
    8.8621    8.6640  -20.3238 H   0  0  0  0  0  0  0  0  0  0  0  0
    7.2729   -2.4750  -21.8492 H   0  0  0  0  0  0  0  0  0  0  0  0
    5.8149    8.9288  -13.5568 H   0  0  0  0  0  0  0  0  0  0  0  0
    4.4814    7.7292  -13.6539 H   0  0  0  0  0  0  0  0  0  0  0  0
    4.0715    9.6064  -15.2116 H   0  0  0  0  0  0  0  0  0  0  0  0
    5.6625    9.3233  -15.9960 H   0  0  0  0  0  0  0  0  0  0  0  0
    7.2449    7.5224  -14.9643 H   0  0  0  0  0  0  0  0  0  0  0  0
    6.6302    6.5531  -13.5825 H   0  0  0  0  0  0  0  0  0  0  0  0
    3.3296    7.3404  -15.8740 H   0  0  0  0  0  0  0  0  0  0  0  0
    3.8226    8.3047  -17.3071 H   0  0  0  0  0  0  0  0  0  0  0  0
    6.5600    5.3284  -15.7885 H   0  0  0  0  0  0  0  0  0  0  0  0
    4.9554    5.4827  -14.9960 H   0  0  0  0  0  0  0  0  0  0  0  0
    8.1482    0.2403  -16.8860 H   0  0  0  0  0  0  0  0  0  0  0  0
    6.6221    0.6449  -16.0293 H   0  0  0  0  0  0  0  0  0  0  0  0
    6.6144   -0.5699  -17.3526 H   0  0  0  0  0  0  0  0  0  0  0  0
    4.6837   10.5274  -21.7747 H   0  0  0  0  0  0  0  0  0  0  0  0
    4.2128    9.4363  -20.4278 H   0  0  0  0  0  0  0  0  0  0  0  0
    5.3189   10.8178  -20.1198 H   0  0  0  0  0  0  0  0  0  0  0  0
    5.4668    8.5222  -23.0912 H   0  0  0  0  0  0  0  0  0  0  0  0
    6.6990    7.4114  -22.4026 H   0  0  0  0  0  0  0  0  0  0  0  0
    5.0317    7.4286  -21.7343 H   0  0  0  0  0  0  0  0  0  0  0  0
    6.9230   10.5038  -22.7182 H   0  0  0  0  0  0  0  0  0  0  0  0
    7.6387   10.8180  -21.1010 H   0  0  0  0  0  0  0  0  0  0  0  0
    8.2061    9.4218  -22.0783 H   0  0  0  0  0  0  0  0  0  0  0  0
    4.1429    2.5168  -21.4578 H   0  0  0  0  0  0  0  0  0  0  0  0
    3.3346    1.5320  -20.1915 H   0  0  0  0  0  0  0  0  0  0  0  0
    5.2869    3.8655  -17.0442 H   0  0  0  0  0  0  0  0  0  0  0  0
    6.0487    4.7872  -18.3846 H   0  0  0  0  0  0  0  0  0  0  0  0
    5.9911    3.0477  -19.9573 H   0  0  0  0  0  0  0  0  0  0  0  0
    3.3622    3.3194  -18.4185 H   0  0  0  0  0  0  0  0  0  0  0  0
    4.7469    1.1929  -17.9463 H   0  0  0  0  0  0  0  0  0  0  0  0
    3.6179    5.4217  -16.9070 H   0  0  0  0  0  0  0  0  0  0  0  0
    3.9898    6.1346  -18.3284 H   0  0  0  0  0  0  0  0  0  0  0  0
    3.3128    4.1497  -20.6062 H   0  0  0  0  0  0  0  0  0  0  0  0
  1  7  2  0
  1  8  1  0
  2  7  1  0
  2 12  2  0
  3  9  2  0
  3 10  1  0
  4  9  1  0
  4 11  2  0
  5  8  2  0
  5 12  1  0
  6 10  2  0
  6 11  1  0
  7 19  1  0
  8 28  1  0
  9 24  1  0
 10 33  1  0
 11 34  1  0
 12 35  1  0
 13 20  1  0
 13 29  1  0
 13 31  2  0
 14 15  1  0
 14 16  1  0
 15 17  1  0
 16 18  1  0
 17 19  1  0
 18 19  1  0
 19 30  1  0
 21 28  1  0
 22 28  1  0
 23 28  1  0
 24 26  1  0
 25 27  1  0
 25 30  1  0
 26 27  1  0
 26 29  1  0
 27 32  1  0
  1 36  1  0
  2 37  1  0
  3 38  1  0
  4 39  1  0
  5 40  1  0
  6 41  1  0
 14 42  1  0
 14 43  1  0
 15 44  1  0
 15 45  1  0
 16 46  1  0
 16 47  1  0
 17 48  1  0
 17 49  1  0
 18 50  1  0
 18 51  1  0
 20 52  1  0
 20 53  1  0
 20 54  1  0
 21 55  1  0
 21 56  1  0
 21 57  1  0
 22 58  1  0
 22 59  1  0
 22 60  1  0
 23 61  1  0
 23 62  1  0
 23 63  1  0
 24 64  1  0
 24 65  1  0
 25 66  1  0
 25 67  1  0
 26 68  1  6
 27 69  1  1
 29 70  1  0
 30 71  1  0
 30 72  1  0
 32 73  1  0
M  CHG  1  30   1
M  END
>  <OMEGA_C>  (78) 
oY66QL1R/EDaspfBSKP0QET24UD8jIzBO1rMQIoEUD+pqqzBXBCTQLaIJL9rOKbBaTUCQRZEBEEK
Bp3B62zVQITTzb8f/qzBminIQK+b50BEO47BpS7YQOYcB0ED/Z7BzCujQAcvJj8sNajBGJjlQGaM
ob499a7BtBGsQMaS4r+LrajBPS8JQW958kDm45PBpyHZQGAMvT9nG5DBmKaqQFO9AkHPEmPB4D+a
QEKEDUF3mHfBoznLQPsa4kA0PGjB3sWFQMus+UCCK4PB63G4QFj/wED2BXjBcvilQKUT1kCqY4bB
5frhQNXxvT5d/4fBMtugQBm8IEHVxqbBhpu6QAm9AEExWrHB+anqQNmRIEFpfa7Bi8mJQLKK7T8p
wKTBgfuiQMwIkEDcXY/BHsOiQH5xJ0CQCJzB7beHQE6Kb0BbaZfBlvbHQCkuEkFfP6nBWyGvQOix
2D8kWZPBdrOLQOZmtkBAFIzB2jr3QOB4A0AOZJTBeRR2QOb5k0Dk05/BRb8GQbjAIL6M8LLB2Iuc
QGqEQMB0v6bBIwMnQeOC6kADhpHBNL+YQLOD/kD/ZpnBAr//QOTX0EDpk4XBVXPYQETJ5j/FUK7B
CxtnQMxRRL9g0KLBB8sNQcGfCkE9l6LBqrvoQJlmHsAly67BexO6QIHcDkFz6FjBnmePQMlV90A5
dlrBBEqCQPizGUGaYnPBJjO1QDIsFUGr73/BBdbnQGi38ECybW/BASvUQEKz0UC8UVnBjhhVQJLk
6kC6+33BEqV0QPvfBEHkdIrBMOvRQD2CqkDPnXzBQJKeQKZyr0Cr72/B1l4CQfQLdj6WFofBgujT
QBkWJT8NPIDBUqnTQBPlEb8H0orBpeCVQFFwKEGRMq7B8M6GQDn7FkEcbKPBDjSqQJoVLUFh9aDB
+++uQNlaCEHMurjB3F3WQN4p7UByOLPBnAOhQGu37UDS363BgondQHIPKEHVvrXBknD0QKoWLUHH
zqjBM0wDQZq/FkFroLDBapKEQJQTIUCeqavBTGpVQNIXxD9GiKHBWi6pQFdkd0B5WojBOo/BQLYw
mUCuE5PBJ7e/QMYMQ0B+qJ/BkC1XQFFwVEAvWZPB7uaXQKevmD/2kY/B34tnQN1+rUCjQYfBRVl/
QFxOxECOoJLBugRUQJLKhECI2aTB6gS7QGmB/EARoZfBxxX1QPC54UAAjIzBJvCTQMMNJb8oHKbB
Bw/NQPa1Tz8Ao6zBd2wCQUAvBEG2Ap3BgiTWQIYCzr8g+6zBXaLIQDmp50DQMY7BzprYQAQpB0Hs
7J7BYfajQL6yJT8lIajB8+OsQN7K4r/bmqjBakTmQEkjor5+9q7BYmgJQTwy8kCD5JPBgEfZQCqK
tj+CdZDBNPGrQMbmAUFVoGLBRhGcQONBDUEz8XbBzPTLQHop4EARImjBwtqGQKkq+kAqAIPBl7K4
QIEMwEDTRHjBFVqmQPox1kAYZIbBmpfhQIityj4dsofB5LSgQEmSIEFqpKbB7I27QIf4AEGiVrHB
YbnqQLoWIUFBN67BhWGKQHY37T88v6TB3CajQE8MkUDLtY/BuvaiQBQAKEAxCJzBYYmHQEL4b0Dv
fZfBxUfIQLRVEkHQIanB0jCvQJgI2z+hQpPBYMqLQHgYt0BMNozBI2n3QE39AkBgUZTBYFNzQL91
k0D675/BfFidQAKhQMCesKbBFwYHQV3FIb46BbPBXTsnQcon6kAnh5HBpDKZQP7g/kDMTZnBFBYA
QT9u0EBlmYXBxAtpQBDtRL8+pqLBPB7ZQFio5j+4S67Bhf8NQcN7CkGKmaLBgGfpQAd8HsDu0K7B
iq67QLCqDUGpKljBEGeQQI269UDXOFrBK6mEQIihGUFdgXLBsl63QPPCFEEWIn/BRtHoQB2d7kCf
J2/BoZfUQHP+zkA6Y1nBCa9WQBuf60AAx33B7HB3QNaDBUHENIrB0ODRQCh3qUA4JH3BtaeeQDZ1
rkBfV3DBugkCQdJZtT4a9oXB+BzQQHfsLj9laYDBxZHWQIDBF79WZYrBnq+VQKlaKEHjCa7BqtqG
QAOSFkF5YKPBOZSpQJXcLEEnv6DBVM2vQNanCEGasLjBKqDXQKYX7kALOrPBki2iQAKw7UB98K3B
VpvdQC2sKEG/crXBAvzzQCeHLUHSb6jBT34DQeiDF0GEXLDBzziFQMiOIEAHsqvBh45WQFF2wz/g
jqHBcLSqQP/feUAsvYjBcATBQCi+mkD7r5PBbPK/QAzLQ0CNnp/BsvxXQAGJVEDTN5PBlsuXQIe8
oj9zFo/BjednQIXMrUBiaIfBk0l/QAGMxUDyq5LBbMdQQBW3g0AbzKTB

>  <OMEGA_E>  (78) 
QM//PbijAj4=

>  <OMEGA_NBR>  (78) 
     47386

$$$$
50167941
     RDKit          3D

 63 65  0  0  1  0  0  0  0  0999 V2000
    8.1351    8.0810  -19.6391 C   0  0  0  0  0  0  0  0  0  0  0  0
    6.4786    0.8488  -21.5906 C   0  0  0  0  0  0  0  0  0  0  0  0
    4.6747   -0.6283  -20.8621 C   0  0  0  0  0  0  0  0  0  0  0  0
    5.8317    7.8725  -18.9635 C   0  0  0  0  0  0  0  0  0  0  0  0
    6.7663   -1.5723  -21.6931 C   0  0  0  0  0  0  0  0  0  0  0  0
    8.5076    7.4459  -18.4360 C   0  0  0  0  0  0  0  0  0  0  0  0
    6.7689    8.3373  -19.9047 C   0  0  0  0  0  0  0  0  0  0  0  0
    5.1814    0.6740  -21.0580 C   0  0  0  0  0  0  0  0  0  0  0  0
    7.2728   -0.2734  -21.8976 C   0  0  0  0  0  0  0  0  0  0  0  0
    5.4645   -1.7489  -21.1833 C   0  0  0  0  0  0  0  0  0  0  0  0
    6.2697    7.2629  -17.7734 C   0  0  0  0  0  0  0  0  0  0  0  0
    6.7946    1.4702  -18.0580 C   0  0  0  0  0  0  0  0  0  0  0  0
    4.6058    7.7643  -15.8540 C   0  0  0  0  0  0  0  0  0  0  0  0
    5.5304    6.6524  -15.3213 C   0  0  0  0  0  0  0  0  0  0  0  0
    5.2201    6.7505  -16.8195 C   0  0  0  0  0  0  0  0  0  0  0  0
    7.0567    0.3549  -17.0514 C   0  0  0  0  0  0  0  0  0  0  0  0
    7.3948    9.9389  -21.8015 C   0  0  0  0  0  0  0  0  0  0  0  0
    5.0393    9.8941  -20.9653 C   0  0  0  0  0  0  0  0  0  0  0  0
    5.9493    7.9178  -22.2421 C   0  0  0  0  0  0  0  0  0  0  0  0
    4.3635    1.8777  -20.6239 C   0  0  0  0  0  0  0  0  0  0  0  0
    5.0328    4.5378  -17.8629 C   0  0  0  0  0  0  0  0  0  0  0  0
    5.0985    2.6589  -19.5077 C   0  0  1  0  0  0  0  0  0  0  0  0
    4.2172    3.7702  -18.9147 C   0  0  2  0  0  0  0  0  0  0  0  0
    6.2981    9.0132  -21.2097 C   0  0  0  0  0  0  0  0  0  0  0  0
    7.5856    7.0578  -17.5260 N   0  0  0  0  0  0  0  0  0  0  0  0
    5.4813    1.7302  -18.4298 N   0  0  0  0  0  0  0  0  0  0  0  0
    4.3206    5.7517  -17.4230 N   0  0  0  0  0  0  0  0  0  0  0  0
    7.7410    2.0112  -18.6204 O   0  0  0  0  0  0  0  0  0  0  0  0
    3.8194    4.6562  -19.9608 O   0  0  0  0  0  0  0  0  0  0  0  0
    8.5262   -0.1045  -22.3764 F   0  0  0  0  0  0  0  0  0  0  0  0
    4.9782   -2.9950  -20.9866 F   0  0  0  0  0  0  0  0  0  0  0  0
    8.8899    8.3708  -20.3551 H   0  0  0  0  0  0  0  0  0  0  0  0
    6.8616    1.8438  -21.7624 H   0  0  0  0  0  0  0  0  0  0  0  0
    3.6797   -0.7658  -20.4653 H   0  0  0  0  0  0  0  0  0  0  0  0
    4.7747    7.9839  -19.1549 H   0  0  0  0  0  0  0  0  0  0  0  0
    7.3759   -2.4325  -21.9270 H   0  0  0  0  0  0  0  0  0  0  0  0
    9.5536    7.2653  -18.2370 H   0  0  0  0  0  0  0  0  0  0  0  0
    3.5278    7.7344  -15.6372 H   0  0  0  0  0  0  0  0  0  0  0  0
    4.9495    8.8092  -15.8612 H   0  0  0  0  0  0  0  0  0  0  0  0
    6.5349    6.9023  -14.9491 H   0  0  0  0  0  0  0  0  0  0  0  0
    5.1132    5.8275  -14.7251 H   0  0  0  0  0  0  0  0  0  0  0  0
    8.1399    0.1827  -16.9680 H   0  0  0  0  0  0  0  0  0  0  0  0
    6.6550    0.6456  -16.0695 H   0  0  0  0  0  0  0  0  0  0  0  0
    6.5638   -0.5682  -17.3906 H   0  0  0  0  0  0  0  0  0  0  0  0
    7.0240   10.4016  -22.7280 H   0  0  0  0  0  0  0  0  0  0  0  0
    7.6431   10.7250  -21.0732 H   0  0  0  0  0  0  0  0  0  0  0  0
    8.2947    9.3462  -22.0224 H   0  0  0  0  0  0  0  0  0  0  0  0
    4.7287   10.3611  -21.9115 H   0  0  0  0  0  0  0  0  0  0  0  0
    4.2219    9.2666  -20.5805 H   0  0  0  0  0  0  0  0  0  0  0  0
    5.2772   10.6774  -20.2306 H   0  0  0  0  0  0  0  0  0  0  0  0
    5.6120    8.3887  -23.1773 H   0  0  0  0  0  0  0  0  0  0  0  0
    6.8405    7.3046  -22.4412 H   0  0  0  0  0  0  0  0  0  0  0  0
    5.1469    7.2799  -21.8429 H   0  0  0  0  0  0  0  0  0  0  0  0
    4.2086    2.5407  -21.4879 H   0  0  0  0  0  0  0  0  0  0  0  0
    3.3892    1.5356  -20.2449 H   0  0  0  0  0  0  0  0  0  0  0  0
    5.2025    3.8856  -16.9934 H   0  0  0  0  0  0  0  0  0  0  0  0
    6.0004    4.8267  -18.2989 H   0  0  0  0  0  0  0  0  0  0  0  0
    6.0019    3.1166  -19.9372 H   0  0  0  0  0  0  0  0  0  0  0  0
    3.3387    3.3170  -18.4322 H   0  0  0  0  0  0  0  0  0  0  0  0
    4.7512    1.2582  -17.9356 H   0  0  0  0  0  0  0  0  0  0  0  0
    3.6318    5.4913  -16.7466 H   0  0  0  0  0  0  0  0  0  0  0  0
    3.8707    6.1636  -18.2154 H   0  0  0  0  0  0  0  0  0  0  0  0
    3.3158    4.1767  -20.6081 H   0  0  0  0  0  0  0  0  0  0  0  0
  1  6  2  0
  1  7  1  0
  2  8  2  0
  2  9  1  0
  3  8  1  0
  3 10  2  0
  4  7  2  0
  4 11  1  0
  5  9  2  0
  5 10  1  0
  6 25  1  0
  7 24  1  0
  8 20  1  0
  9 30  1  0
 10 31  1  0
 11 15  1  0
 11 25  2  0
 12 16  1  0
 12 26  1  0
 12 28  2  0
 13 14  1  0
 13 15  1  0
 14 15  1  0
 15 27  1  0
 17 24  1  0
 18 24  1  0
 19 24  1  0
 20 22  1  0
 21 23  1  0
 21 27  1  0
 22 23  1  0
 22 26  1  0
 23 29  1  0
  1 32  1  0
  2 33  1  0
  3 34  1  0
  4 35  1  0
  5 36  1  0
  6 37  1  0
 13 38  1  0
 13 39  1  0
 14 40  1  0
 14 41  1  0
 16 42  1  0
 16 43  1  0
 16 44  1  0
 17 45  1  0
 17 46  1  0
 17 47  1  0
 18 48  1  0
 18 49  1  0
 18 50  1  0
 19 51  1  0
 19 52  1  0
 19 53  1  0
 20 54  1  0
 20 55  1  0
 21 56  1  0
 21 57  1  0
 22 58  1  6
 23 59  1  1
 26 60  1  0
 27 61  1  0
 27 62  1  0
 29 63  1  0
M  CHG  1  27   1
M  END
>  <OMEGA_C>  (79) 
NCkCQedLAUHhHJ3BF1HPQNdHWT96uazB2ZaVQO/YIL+l5abBk526QJ7r+0BEtZfBr4XYQABAyb9p
i63BOx8IQbBE7kD3fJPB+ZrYQHtlBUHMPJ/Bu82lQKaMLD/KdqjB1broQIj6i741Lq/BXt2uQOLb
379xd6nBNqHIQBRq6EAGMI7BrG3ZQP8uvD/HdpDB82KTQA91+EDPqX3B3/iwQGbg1EAUJHXBLgun
QG4E2EBtjobBKdDhQL64tT5WaYjBAaLsQMkFH0Fraa7BRUKhQBBOHkHkuKfBT2C+QL1e/UDb77HB
A6KLQHxY8D+4/aTBZwyhQHI1kUAx547BuSajQDwsKkDKD5zBj/OGQHtKcUBgUZfBu4nJQOg1EEFo
ranB7bzyQCjZ4UAqNYzBg2avQEd43T9CcJPBvEKKQEQOuEBnYovBb7b3QMK3AECV9pTByXF0QFz/
lECvr5/BUWsIQUn51b3dArPBHk2fQPqtP8CX5KfB4zwOQcTuBUFS16LBepLbQP8C7D9fGa7Bfn9r
QFAKRL/4uKPBOsqYQOl7/0BPPZnBVQfsQMOuG8CVaq/BvdsYQVx96EBI5ZHB0sdhQNZ/90DJMXrB
aGKeQHfyDEFMx33Bxh3RQJzf3ECgL2/BRp+jQIR6ukAdmmvB8TwCQfYOOz5evofBq/XUQL9EJT9a
joDBngrSQHFyEb/iH4vBzcTgQNZsJkH80rXBLpT0QImZK0HYlajBLLcEQRKKFUHZLbDBYVGXQC7H
JUHCSq/BuxmHQNVDFEHypKTB2d6oQLTWKkE/2KHBw5WzQCQ4BkEVa7nBW+XaQAG/6UB7h7PB0LOk
QC/16EAtvq7B+KyGQFeaIkAq56vBpOhYQBSPxD939aHBh3qmQHaueECR8ofBjAPAQJ50mkAsZJLB
Ng/AQPd2R0BOf5/BPa1VQPtJVEAqdZPBJQqYQH0MoT8efI/Bs25oQJO4r0AG+YXBdLl3QHM8xUA7
uZHBMTZUQMOnhUBV3aTBd4QBQbgEAUH9R53BhonOQErkWT+z0qzBj4WVQMEVIr97rqbBkJq5QOv5
+0BjmpfBmCfYQNK7yL/pma3BwLIHQQ4k7kCTopPBn0TXQE8yBUHdSJ/B01alQJ/6Kz97ZKjBEgDo
QB7jiL6CV6/B99SuQMMZ4L+TVanBPA7IQMm06EDFFI7BH8nYQH19uT8fc5DBiVSTQLsb+ECIEX3B
xGGxQLGt1EDO0HTBGeCmQNP810AVXobBsOTgQPppoz4rgojBmUi/QI1B/EDqKrLBCwXqQC54H0GT
SK7B6UWeQE3kHEGdCqjBhi6LQDIc8D/356TB8xOhQF0zkUA5zY7BffWiQNgmKkDaBpzBaUSHQH+T
ckDpZZfBx/vHQOjED0HuyKnBPT/yQM8b4kAAOozBFdKuQP6E3T/FXJPBYSWKQMLYt0AoKovBLzb3
QPpA/j8G65TBAX94QE0UlkA705/B4+YHQcHIvb0sWbPB/KOfQFv+P8AarqfBs3UNQTFvBUFXH6PB
PIXaQPF+7D/KR67BTvdrQNdZRr/aVaPBLbeXQDO1/0DABJnBYa/rQCU/G8Cvia/B93cYQUJh6EBh
IZLBWdphQI7X9kCEZnnBlBCeQMrQDEFpJ33B+JjRQL7d3EA/Bm/BkHWkQLkTukBaRWvBjsABQcXU
CT5b4ofBvDvUQIY0Gj+2nYDBfMfQQJQ4GL/SS4vBrGC0QNSCBUEdrbnBo+DcQNIi6kAHpbPBZWem
QIZ65kAtJq/BBRreQE6uJkHJvLXBnz7wQHAkLEHsYKjBnOsDQdy1FkGV66/Bs1OUQDItJEEWqK/B
68+EQCk7EkHCH6XBnCykQJmMKUGKG6LBTwmGQPVdIkAb0qvByCxYQDBZxD+k0aHB1DOmQCWld0DM
7YfBkDHAQLWpmkAEK5LBhxbAQA5TRkDsfZ/BNsBUQBMCV0ACvZPBQ0iXQLtloz8rV4/Btc5oQMo5
r0BytIXBe712QIAKxUCPcpHBo5tYQJw+h0CxIKXB+CDxQHNPAkFIlaPBRmLSQPKlUz/DuKzBMD+U
QA1vAb/8f6fBQLbnQEvhAUHocZDBrBbVQK3Izb9d1a3BoFrOQDXG6EBPdqTBxBj4QHUpDEGlm5nB
ePanQN4ZQD8U5KjBqO3oQBi5tL5aLK/BNraqQIFe17/ABarBGqbEQFM/6EAYwZHBVoHTQAihoz/B
ZI/Bhw2eQMck+ECXs37BwhG/QIRv1UDqzHnBjLqqQBUA2EAbKIjBsh3VQCLXBj6bW4fB1hAMQe7K
LUHisaHBBJv/QIIsLkGZWI7B2lrJQOd2K0FiQp3BSFiQQD5pAEDNtqXB/RqiQHPjjkDiTo7BUtOl
QBtsKkBo6ZvByNqJQESKckD0fJfBfkT3QHiZJEEhppnB1H63QABw3UCJwZvBHemrQNz41D9hYpPB
IDCMQDJBtkDB7YrB+vT0QC9a3z816pLBUryAQIrXlkBK45/BpscIQTJRkL4v2LLB9puXQIGeOMAG
vqjB5vQCQc5nBUFwT6rB7IXhQNz05D89xa3B88lnQEdbEL9af6TBBrr1QM+DBEFsqIjB0V/mQOrK
IMCQuq/BMqfFQO4o3EDUNKzB1xN8QD6I9kDnbXfBziOoQHbjDEFr73/BUeHgQJgc3kABiHfBbse2
QOrdukB9Bm/Blaj2QH4ACb72vYXBlI7FQO/O4j4UvH/BYEjEQAPIPb/RqorBAmMLQXpgP0E/iqHB
nT0cQRZ4KEFxeJ/BJUAIQY0PKEEgy6nBTbH+QN++P0ETyo7B7MjmQA2KKEFIx4jBDp4PQQAAKUGK
eovBTT3HQLYHPUGQaJ3Bl+bCQOkeJUHCTqXBsJ+xQOoQJUEQmpfBa7WQQHW6LUCkcqzB2hxeQMco
4D/btaPBJumjQA9xcUDBfIfBTaTCQKrmlkDZAJHBGfXEQE3mREDSV57BogxYQLjtVkDrVpTBXNOR
QCYgnj8jRJDBvCl0QLHOr0BSiITBISlzQB+HwEC06JDBf3RjQAuXiEBZdKXB

>  <OMEGA_E>  (79) 
kLiMPmDHjT58JzA/

>  <OMEGA_NBR>  (79) 
     50743

$$$$
50167972
     RDKit          3D

 73 75  0  0  1  0  0  0  0  0999 V2000
    7.6413    7.4650  -17.5295 C   0  0  0  0  0  0  0  0  0  0  0  0
    8.4946    8.1508  -18.4033 C   0  0  0  0  0  0  0  0  0  0  0  0
    5.7363    8.1729  -18.8581 C   0  0  0  0  0  0  0  0  0  0  0  0
    4.3096   -0.9162  -20.9809 C   0  0  0  0  0  0  0  0  0  0  0  0
    6.3283    0.4340  -21.2004 C   0  0  0  0  0  0  0  0  0  0  0  0
    6.3607   -1.9032  -21.8734 C   0  0  0  0  0  0  0  0  0  0  0  0
    6.2423    7.4950  -17.7238 C   0  0  0  0  0  0  0  0  0  0  0  0
    6.5834    8.8540  -19.7799 C   0  0  0  0  0  0  0  0  0  0  0  0
    4.9839    0.3087  -20.7767 C   0  0  0  0  0  0  0  0  0  0  0  0
    4.9937   -2.0143  -21.5450 C   0  0  0  0  0  0  0  0  0  0  0  0
    7.0293   -0.6784  -21.6898 C   0  0  0  0  0  0  0  0  0  0  0  0
    7.9905    8.8461  -19.5168 C   0  0  0  0  0  0  0  0  0  0  0  0
    6.3970    0.8679  -17.6856 C   0  0  0  0  0  0  0  0  0  0  0  0
    5.4160    7.9283  -13.9808 C   0  0  0  0  0  0  0  0  0  0  0  0
    4.8095    8.7178  -15.1557 C   0  0  0  0  0  0  0  0  0  0  0  0
    6.4851    6.9402  -14.4741 C   0  0  0  0  0  0  0  0  0  0  0  0
    4.1989    7.7569  -16.1966 C   0  0  0  0  0  0  0  0  0  0  0  0
    5.9320    6.0004  -15.5800 C   0  0  0  0  0  0  0  0  0  0  0  0
    5.2524    6.7589  -16.7783 C   0  0  0  0  0  0  0  0  0  0  0  0
    6.4949    0.2494  -16.2912 C   0  0  0  0  0  0  0  0  0  0  0  0
    4.4129    9.3976  -21.0996 C   0  0  0  0  0  0  0  0  0  0  0  0
    6.5130    8.9183  -22.3463 C   0  0  0  0  0  0  0  0  0  0  0  0
    6.2346   11.0894  -21.0155 C   0  0  0  0  0  0  0  0  0  0  0  0
    4.2288    1.5086  -20.2211 C   0  0  0  0  0  0  0  0  0  0  0  0
    5.2842    4.6403  -18.1232 C   0  0  0  0  0  0  0  0  0  0  0  0
    5.0949    2.3922  -19.2655 C   0  0  1  0  0  0  0  0  0  0  0  0
    4.3957    3.7466  -19.0026 C   0  0  2  0  0  0  0  0  0  0  0  0
    5.9653    9.5556  -21.0350 C   0  0  0  0  0  0  0  0  0  0  0  0
    5.3088    1.6925  -17.9777 N   0  0  0  0  0  0  0  0  0  0  0  0
    4.4841    5.7746  -17.5996 N   0  0  0  0  0  0  0  0  0  0  0  0
    7.3302    0.7212  -18.4668 O   0  0  0  0  0  0  0  0  0  0  0  0
    4.1566    4.4332  -20.2355 O   0  0  0  0  0  0  0  0  0  0  0  0
    4.3398   -3.1768  -21.7702 F   0  0  0  0  0  0  0  0  0  0  0  0
    8.3424   -0.5603  -21.9932 F   0  0  0  0  0  0  0  0  0  0  0  0
    9.2945    9.7216  -20.6199 Br  0  0  0  0  0  0  0  0  0  0  0  0
    8.0557    6.9094  -16.7013 H   0  0  0  0  0  0  0  0  0  0  0  0
    9.5586    8.1454  -18.2186 H   0  0  0  0  0  0  0  0  0  0  0  0
    4.6703    8.1743  -19.0315 H   0  0  0  0  0  0  0  0  0  0  0  0
    3.2698   -1.0122  -20.7052 H   0  0  0  0  0  0  0  0  0  0  0  0
    6.8191    1.3946  -21.1465 H   0  0  0  0  0  0  0  0  0  0  0  0
    6.8937   -2.7568  -22.2653 H   0  0  0  0  0  0  0  0  0  0  0  0
    5.8770    8.6334  -13.2735 H   0  0  0  0  0  0  0  0  0  0  0  0
    4.6166    7.3691  -13.4725 H   0  0  0  0  0  0  0  0  0  0  0  0
    4.0229    9.3857  -14.7749 H   0  0  0  0  0  0  0  0  0  0  0  0
    5.5984    9.3161  -15.6349 H   0  0  0  0  0  0  0  0  0  0  0  0
    7.3348    7.5081  -14.8810 H   0  0  0  0  0  0  0  0  0  0  0  0
    6.8253    6.3296  -13.6248 H   0  0  0  0  0  0  0  0  0  0  0  0
    3.3945    7.1807  -15.7160 H   0  0  0  0  0  0  0  0  0  0  0  0
    3.7812    8.3507  -17.0229 H   0  0  0  0  0  0  0  0  0  0  0  0
    6.7665    5.4033  -15.9765 H   0  0  0  0  0  0  0  0  0  0  0  0
    5.1862    5.3318  -15.1254 H   0  0  0  0  0  0  0  0  0  0  0  0
    7.4573   -0.2732  -16.1880 H   0  0  0  0  0  0  0  0  0  0  0  0
    6.4254    1.0429  -15.5326 H   0  0  0  0  0  0  0  0  0  0  0  0
    5.6720   -0.4666  -16.1493 H   0  0  0  0  0  0  0  0  0  0  0  0
    4.0291    9.9062  -21.9963 H   0  0  0  0  0  0  0  0  0  0  0  0
    4.1548    8.3293  -21.1455 H   0  0  0  0  0  0  0  0  0  0  0  0
    3.9611    9.8458  -20.2024 H   0  0  0  0  0  0  0  0  0  0  0  0
    6.0670    9.4249  -23.2149 H   0  0  0  0  0  0  0  0  0  0  0  0
    7.6069    9.0297  -22.3789 H   0  0  0  0  0  0  0  0  0  0  0  0
    6.2523    7.8499  -22.3713 H   0  0  0  0  0  0  0  0  0  0  0  0
    5.7887   11.5519  -21.9084 H   0  0  0  0  0  0  0  0  0  0  0  0
    5.7859   11.5289  -20.1124 H   0  0  0  0  0  0  0  0  0  0  0  0
    7.3194   11.2711  -21.0116 H   0  0  0  0  0  0  0  0  0  0  0  0
    3.8924    2.1308  -21.0636 H   0  0  0  0  0  0  0  0  0  0  0  0
    3.3541    1.1435  -19.6629 H   0  0  0  0  0  0  0  0  0  0  0  0
    5.6781    4.0509  -17.2822 H   0  0  0  0  0  0  0  0  0  0  0  0
    6.1209    5.0283  -18.7228 H   0  0  0  0  0  0  0  0  0  0  0  0
    6.0649    2.5826  -19.7480 H   0  0  0  0  0  0  0  0  0  0  0  0
    3.4471    3.5599  -18.4779 H   0  0  0  0  0  0  0  0  0  0  0  0
    4.6213    1.8205  -17.2629 H   0  0  0  0  0  0  0  0  0  0  0  0
    3.7504    5.4014  -17.0318 H   0  0  0  0  0  0  0  0  0  0  0  0
    4.0882    6.2613  -18.3783 H   0  0  0  0  0  0  0  0  0  0  0  0
    3.6078    3.8972  -20.7958 H   0  0  0  0  0  0  0  0  0  0  0  0
  1  2  2  0
  1  7  1  0
  2 12  1  0
  3  7  2  0
  3  8  1  0
  4  9  2  0
  4 10  1  0
  5  9  1  0
  5 11  2  0
  6 10  2  0
  6 11  1  0
  7 19  1  0
  8 12  2  0
  8 28  1  0
  9 24  1  0
 10 33  1  0
 11 34  1  0
 12 35  1  0
 13 20  1  0
 13 29  1  0
 13 31  2  0
 14 15  1  0
 14 16  1  0
 15 17  1  0
 16 18  1  0
 17 19  1  0
 18 19  1  0
 19 30  1  0
 21 28  1  0
 22 28  1  0
 23 28  1  0
 24 26  1  0
 25 27  1  0
 25 30  1  0
 26 27  1  0
 26 29  1  0
 27 32  1  0
  1 36  1  0
  2 37  1  0
  3 38  1  0
  4 39  1  0
  5 40  1  0
  6 41  1  0
 14 42  1  0
 14 43  1  0
 15 44  1  0
 15 45  1  0
 16 46  1  0
 16 47  1  0
 17 48  1  0
 17 49  1  0
 18 50  1  0
 18 51  1  0
 20 52  1  0
 20 53  1  0
 20 54  1  0
 21 55  1  0
 21 56  1  0
 21 57  1  0
 22 58  1  0
 22 59  1  0
 22 60  1  0
 23 61  1  0
 23 62  1  0
 23 63  1  0
 24 64  1  0
 24 65  1  0
 25 66  1  0
 25 67  1  0
 26 68  1  6
 27 69  1  1
 29 70  1  0
 30 71  1  0
 30 72  1  0
 32 73  1  0
M  CHG  1  30   1
M  END
>  <OMEGA_C>  (80) 
NYX0QD/h7kBVPIzBvukHQZ5pAkHxOZPBf4+3QGTEAkFj3ZbBheiJQAWLar/62KfBdoHKQBw43j5e
mqnBgorLQASb87+w/K7BxcDHQN3W70Bqyo3BLKvSQCaqDUEoPZ7Bu3ufQA4Qnj6pNqbBjcyfQOLp
AMAPXKzBMvDgQIKsLb/EhK3BE7L/QLKJDUFsIpzBeLTMQHYrXj8ifI3BtE+tQIW0/UBPsV/BuueZ
QPN7C0G5fXLBD4bPQAsW3kATlmfBnV2GQHE4+ECJkoHBWdO9QHIDwEC3R3nBphOoQLJI2ED3OYbB
+NXPQN5cfz5yVILBTzaNQIZcFkEUzKjBkmrQQGaxDkFAxbLBi4HHQFduMUHAH6jB8FGHQNkawT/m
xKHBABipQLx9lEBq/JDBeQmjQIEZGUCsH5rBO6mMQPLIb0BnBZjBEeS+QL7jGEGZR6jBTOGpQPSk
2D9d0o/ByX2PQETJuEAOzIzBH5HqQGGeOD/7u5PBCQOFQBvdjUBC4qHBvd+KQFZQS8BQKa7BjXoF
QTBwD78E8q/BMrYUQcyLG0GI9aTBVOQAQbYZ3UAxnIXBLPAYQbRTAkGav5HB4XKVQAjKAkFyQJjB
OEVRQFePgb9DpKXBBzbaQKuAsj/2K6nBRpncQHZvMMA9H7LBHRC8QJEiCkFHYFTBU7uTQJ3P60B/
j1fBvLuAQAMsFkHfZWzBTiazQOAOFUFqKHrBY7bqQHBC8EC4GG7B4WjaQCeMykD6/lnBMUBZQE7I
5UCMdHvB1P9xQJacBUHyLojB0IbYQLTnrECtn3/BPfWlQC+eqkC7AXLBM6LuQKbfi74ZgYHBRJ3N
QG59hT+MhXjBpYC1QEDp7r63MYHBL+6AQLV/HkF5+K/B7vOEQLtEBUHnKanBHYN9QGSIHUGLnqHB
dSTCQEzMFkEXuLnBfmvzQId5EEEKCLPB4BLIQLwy+0B2+LLB1Dy5QGrUOEGARK/Beya5QFl2OEEq
5qDB5zjqQJNWNEHIF6jB2B15QFFfCEBPgqjBS6lWQGBekj+dTZ3BI7O1QAehgUDwQYrBDt7DQKbn
oEBVyJXBnxPCQP1IJUD4+53Bp5xcQM3VY0DV0pPBleGTQGAG6T9YGorBrQZwQI3YrEAWQYjBndKC
QOdcyEDDBpPBYeZmQCVreUC+XabBuuDyQMd18UDiWIzBvkYGQZ/qBEEGOJPBndizQJhhBEEhGZbB
1sa0QJT88T0Vda7BU4mSQC6nW792tp7B5BPAQBs0D8CTHKrBR+rFQGly8UAKg43BNkXNQDKGEEEF
W53Bi8SZQPOhgT6BdqXBtqjHQORrkL/O0bDB56ClQN14BsCACaHBlY76QMTREEGco5vB8bbXQPuQ
uj/TwI7BFzavQElA90AaeF7Bz76ZQH0GCUGXJHDBpr3RQEmr2UAL3WfBiP6FQIex9ECqroDBE7m/
QKA2vUCSJ3rBRAKoQOAM10CfGIbBnpHdQI5NKD9gbITBtOOFQHdoGUH5CafBjAHIQEnfE0GzybHB
K8O+QCcwNUFGE6bB2oOFQLZszD9F4KLBL/ypQOWulkC+J5LB1ZajQORAH0DYBZzB6zuNQFr0dEDO
P5nBdHW3QG6XHEHB36bBi1SuQDPd4z8J/JHBd56PQPVouEAa+ozBG+L2QFBe2T/8ZpTBzlaDQEyD
kUD+z6LB1gHhQEBXob9/iLnB2nieQPZySsAwkprBnxsRQeBvIEG0YaTBGccAQUSM3kCjHYbB0GMX
QTYtBUGWB5LBt5GRQKUQBEG4MJfBXvq6QLNueD9ViLPBIKV8QP8JQb8YwZfBuonOQKhHTMA97avB
pxu+QOxzBkEhw1LBDsKWQLOo40Azc1bBEWCAQJrrEkF6AWnBSNixQKtwE0H3oXfBDfLrQHNn7UCn
Pm7B3BfeQM/hxEDAElvB+9BaQJyG4EBL0XnB1jVuQNhjBEFf4IbB7YTaQDS6q0C6voDBUPyoQFlD
pkCbKnPBSoL/QOqHyD5YdoPBbSzTQJ/8oT/hIXvB5zjKQI89hb4I0ITB901wQAEtIkFL2q3BmAN9
QOlFCEF31afB0i5wQIaHH0FIi5/BSk+4QLWMHEGjXLjBNNfqQAowFkECTLLBnZDAQDC3AkHvabLB
BBSvQI0vPUH23KzBjRWxQFwqO0GqiZ7BeUrhQPuWOEEYQqbBK5t8QAeqB0ACaKrBhVBPQMaGtj+8
a57Bsym5QL3LgkD19ovB/dzCQFXCpUA6HJfBbujAQFSmLECDmKDBY1ZfQHqbZkCu0pTBzS+WQM3d
wT/jLo3BHz5zQLADqkBxaojBJw6BQMstyUB4vJLBUyxjQBtxgECJRKfB

>  <OMEGA_E>  (80) 
8MoCP5DSET8=

>  <OMEGA_NBR>  (80) 
     53375

$$$$
50167973
     RDKit          3D

 76 78  0  0  1  0  0  0  0  0999 V2000
    7.5953    7.0074  -17.5924 C   0  0  0  0  0  0  0  0  0  0  0  0
    5.7944    7.9025  -18.9604 C   0  0  0  0  0  0  0  0  0  0  0  0
    8.1089    8.2113  -19.6408 C   0  0  0  0  0  0  0  0  0  0  0  0
    6.3956    0.7915  -21.5721 C   0  0  0  0  0  0  0  0  0  0  0  0
    4.5838   -0.6471  -20.7844 C   0  0  0  0  0  0  0  0  0  0  0  0
    6.6422   -1.6325  -21.6450 C   0  0  0  0  0  0  0  0  0  0  0  0
    6.2147    7.2321  -17.7842 C   0  0  0  0  0  0  0  0  0  0  0  0
    8.5332    7.5190  -18.4982 C   0  0  0  0  0  0  0  0  0  0  0  0
    6.7345    8.4369  -19.8762 C   0  0  0  0  0  0  0  0  0  0  0  0
    5.1065    0.6402  -21.0163 C   0  0  0  0  0  0  0  0  0  0  0  0
    7.1667   -0.3447  -21.8746 C   0  0  0  0  0  0  0  0  0  0  0  0
    5.3483   -1.7821  -21.1057 C   0  0  0  0  0  0  0  0  0  0  0  0
    6.8111    1.4433  -18.0618 C   0  0  0  0  0  0  0  0  0  0  0  0
    5.4261    8.1908  -14.1929 C   0  0  0  0  0  0  0  0  0  0  0  0
    4.8971    8.8656  -15.4697 C   0  0  0  0  0  0  0  0  0  0  0  0
    6.3956    7.0483  -14.5285 C   0  0  0  0  0  0  0  0  0  0  0  0
    4.1934    7.8335  -16.3636 C   0  0  0  0  0  0  0  0  0  0  0  0
    5.7481    6.0302  -15.4958 C   0  0  0  0  0  0  0  0  0  0  0  0
    5.1600    6.6972  -16.7884 C   0  0  0  0  0  0  0  0  0  0  0  0
   10.0016    7.2558  -18.2820 C   0  0  0  0  0  0  0  0  0  0  0  0
    7.0784    0.4390  -16.9445 C   0  0  0  0  0  0  0  0  0  0  0  0
    5.0559   10.0829  -20.8592 C   0  0  0  0  0  0  0  0  0  0  0  0
    5.8579    8.0850  -22.1930 C   0  0  0  0  0  0  0  0  0  0  0  0
    7.3789   10.0491  -21.7744 C   0  0  0  0  0  0  0  0  0  0  0  0
    4.3209    1.8534  -20.5880 C   0  0  0  0  0  0  0  0  0  0  0  0
    5.0980    4.5291  -17.9465 C   0  0  0  0  0  0  0  0  0  0  0  0
    5.1042    2.6261  -19.5091 C   0  0  1  0  0  0  0  0  0  0  0  0
    4.2519    3.7535  -18.9393 C   0  0  2  0  0  0  0  0  0  0  0  0
    6.2651    9.1555  -21.1563 C   0  0  0  0  0  0  0  0  0  0  0  0
    5.4938    1.7143  -18.4146 N   0  0  0  0  0  0  0  0  0  0  0  0
    4.3410    5.7011  -17.4933 N   0  0  0  0  0  0  0  0  0  0  0  0
    7.7486    2.0580  -18.5596 O   0  0  0  0  0  0  0  0  0  0  0  0
    3.8422    4.6237  -19.9941 O   0  0  0  0  0  0  0  0  0  0  0  0
    8.4138   -0.1986  -22.3757 F   0  0  0  0  0  0  0  0  0  0  0  0
    4.8430   -3.0156  -20.8837 F   0  0  0  0  0  0  0  0  0  0  0  0
    7.9312    6.4361  -16.7397 H   0  0  0  0  0  0  0  0  0  0  0  0
    4.7387    8.0079  -19.1622 H   0  0  0  0  0  0  0  0  0  0  0  0
    8.8396    8.5757  -20.3477 H   0  0  0  0  0  0  0  0  0  0  0  0
    6.7889    1.7788  -21.7647 H   0  0  0  0  0  0  0  0  0  0  0  0
    3.5972   -0.7619  -20.3604 H   0  0  0  0  0  0  0  0  0  0  0  0
    7.2320   -2.5055  -21.8824 H   0  0  0  0  0  0  0  0  0  0  0  0
    5.9522    8.9400  -13.5829 H   0  0  0  0  0  0  0  0  0  0  0  0
    4.5770    7.7851  -13.6234 H   0  0  0  0  0  0  0  0  0  0  0  0
    4.1821    9.6547  -15.1939 H   0  0  0  0  0  0  0  0  0  0  0  0
    5.7388    9.3099  -16.0211 H   0  0  0  0  0  0  0  0  0  0  0  0
    7.2959    7.4688  -15.0003 H   0  0  0  0  0  0  0  0  0  0  0  0
    6.6762    6.5313  -13.5990 H   0  0  0  0  0  0  0  0  0  0  0  0
    3.3497    7.3967  -15.8094 H   0  0  0  0  0  0  0  0  0  0  0  0
    3.8175    8.3389  -17.2654 H   0  0  0  0  0  0  0  0  0  0  0  0
    6.5122    5.2982  -15.7964 H   0  0  0  0  0  0  0  0  0  0  0  0
    4.9336    5.5139  -14.9668 H   0  0  0  0  0  0  0  0  0  0  0  0
   10.2804    6.3091  -18.7679 H   0  0  0  0  0  0  0  0  0  0  0  0
   10.5892    8.0778  -18.7166 H   0  0  0  0  0  0  0  0  0  0  0  0
   10.2070    7.1886  -17.2034 H   0  0  0  0  0  0  0  0  0  0  0  0
    8.1566    0.4079  -16.7290 H   0  0  0  0  0  0  0  0  0  0  0  0
    6.5323    0.7436  -16.0395 H   0  0  0  0  0  0  0  0  0  0  0  0
    6.7385   -0.5587  -17.2594 H   0  0  0  0  0  0  0  0  0  0  0  0
    4.7403   10.5832  -21.7866 H   0  0  0  0  0  0  0  0  0  0  0  0
    4.2226    9.4834  -20.4641 H   0  0  0  0  0  0  0  0  0  0  0  0
    5.3481   10.8393  -20.1158 H   0  0  0  0  0  0  0  0  0  0  0  0
    5.5189    8.5780  -23.1161 H   0  0  0  0  0  0  0  0  0  0  0  0
    6.7230    7.4435  -22.4165 H   0  0  0  0  0  0  0  0  0  0  0  0
    5.0418    7.4709  -21.7845 H   0  0  0  0  0  0  0  0  0  0  0  0
    6.9958   10.5382  -22.6822 H   0  0  0  0  0  0  0  0  0  0  0  0
    7.6811   10.8151  -21.0451 H   0  0  0  0  0  0  0  0  0  0  0  0
    8.2477    9.4258  -22.0328 H   0  0  0  0  0  0  0  0  0  0  0  0
    4.1546    2.5068  -21.4572 H   0  0  0  0  0  0  0  0  0  0  0  0
    3.3512    1.5349  -20.1779 H   0  0  0  0  0  0  0  0  0  0  0  0
    5.3377    3.8883  -17.0851 H   0  0  0  0  0  0  0  0  0  0  0  0
    6.0300    4.8558  -18.4310 H   0  0  0  0  0  0  0  0  0  0  0  0
    6.0060    3.0572  -19.9682 H   0  0  0  0  0  0  0  0  0  0  0  0
    3.3789    3.3271  -18.4235 H   0  0  0  0  0  0  0  0  0  0  0  0
    4.7664    1.2648  -17.8961 H   0  0  0  0  0  0  0  0  0  0  0  0
    3.6193    5.3908  -16.8746 H   0  0  0  0  0  0  0  0  0  0  0  0
    3.9293    6.1393  -18.2924 H   0  0  0  0  0  0  0  0  0  0  0  0
    3.3124    4.1398  -20.6167 H   0  0  0  0  0  0  0  0  0  0  0  0
  1  7  2  0
  1  8  1  0
  2  7  1  0
  2  9  2  0
  3  8  2  0
  3  9  1  0
  4 10  2  0
  4 11  1  0
  5 10  1  0
  5 12  2  0
  6 11  2  0
  6 12  1  0
  7 19  1  0
  8 20  1  0
  9 29  1  0
 10 25  1  0
 11 34  1  0
 12 35  1  0
 13 21  1  0
 13 30  1  0
 13 32  2  0
 14 15  1  0
 14 16  1  0
 15 17  1  0
 16 18  1  0
 17 19  1  0
 18 19  1  0
 19 31  1  0
 22 29  1  0
 23 29  1  0
 24 29  1  0
 25 27  1  0
 26 28  1  0
 26 31  1  0
 27 28  1  0
 27 30  1  0
 28 33  1  0
  1 36  1  0
  2 37  1  0
  3 38  1  0
  4 39  1  0
  5 40  1  0
  6 41  1  0
 14 42  1  0
 14 43  1  0
 15 44  1  0
 15 45  1  0
 16 46  1  0
 16 47  1  0
 17 48  1  0
 17 49  1  0
 18 50  1  0
 18 51  1  0
 20 52  1  0
 20 53  1  0
 20 54  1  0
 21 55  1  0
 21 56  1  0
 21 57  1  0
 22 58  1  0
 22 59  1  0
 22 60  1  0
 23 61  1  0
 23 62  1  0
 23 63  1  0
 24 64  1  0
 24 65  1  0
 24 66  1  0
 25 67  1  0
 25 68  1  0
 26 69  1  0
 26 70  1  0
 27 71  1  6
 28 72  1  1
 30 73  1  0
 31 74  1  0
 31 75  1  0
 33 76  1  0
M  CHG  1  31   1
M  END
>  <OMEGA_C>  (81) 
/QzzQNc84EA9vYzB/Wu5QKLh/EDarpfB3L0BQZVhA0FRIJ3Bm6jMQAKgSj+vk6zBda6SQGGpJb94
RqbB7IzUQBv30L8CKa3Bft7GQLht50AcRo7BzocIQU6b8EBq/JPBY4HXQLD9BkFuAp/BMmijQOvk
Iz9aIajBg1XlQKx4sL5H/67B/iSrQG0c5L+S2KjBkfTZQAy+uD+ffpDB5qKtQKkNA0HrFWPBB7Wc
QGjZDUHOg3fBj6jMQFuL4UCvdGjBuTCGQEKs+kC36ILBtPC3QMP3wEDn7nfBoB6lQKdP1kCmTobB
eQYgQUAv6EB+QZLB6IHiQCzG4D5mjofBU8qhQJFTIUGT36bBwHO7QEpcAUE+i7HBTyDsQDPJIEEN
Mq7BjkSKQGY97T8ytKTBCCOjQCPukEBWko/BOVWjQIkSKEChEpzB+Q+IQK44cECWg5fBZHvIQO98
EkErQKnBBc2vQPRt2z8bUZPBQumKQG1vtkBY8ovBXvT3QHy2A0D5eZTBQOd1QEH1k0Dx85/B1Z4G
QcxeS75YAbPBLPqaQD4AQcDhEafBsMz9QFz0zUDe6oXBaKOXQIogAEEXTJnB4G4NQfM1CUELyKLB
WT7ZQCmu4z8CHq7BLjhmQO4MQ78K4qLB7WznQONaIMAkD6/BI3i+QDcKD0GEU1nBdnaSQFcf+UB+
+VnBv9OFQKR5GkEiGnPBiaS3QDX1FEFCK4DB5HfpQCsA70BEAXDBMqPVQHsA0UBUlVnBsmBWQGGx
7EBj83zBpFF0QA1sBUGiH4rB02PQQMiKqUDlvXzBAuCdQKFxsEDxd2/BjnwkQTnkyUCaJJbBYW0p
QdI+AUGcu5XBr08jQcMI5kCWoInBW4ECQSPS0D7w1IXBjwjRQDNePj/1UIDBI6LXQLkED79SE4rB
QLCXQLdUKUHiSq7BOh+HQPS7F0GNtqPB9SOrQK1tLUFC7aDBG5uwQII/CUG67bjBzyLXQNQw7kD8
VLPBQlahQNwR70CqRq7Btt3fQGecKEEldbXB9Mv1QM4KLUFtXKjBlfYDQRTQFkEbQ7DBP/KEQKdu
IEBVqKvBdnlWQDB3xD9FbKHBL86qQB7ZeEBKrojBmPXAQF1im0CWcpPBVDHAQL6pQ0Djvp/BeT9Y
QM7vVEBaY5PBkYaYQK3joT8jK4/BH6JnQMCBrEAY/4bBT3p7QAl1xEDkVpLBL/5TQBZ5hED37qTB
K2/yQFAh4EC314zBQly4QA/q/EA1nZfBLhoBQXafA0ERL53B+JiSQKciJ7/L+aXBJP3LQFXISD/G
nqzBHhrUQDLa0b/ZEK3BmTLGQBVL50CcQo7BpBIIQaTX8EAtHpTBqCXWQJwYB0HQ/p7BzQqjQKVQ
Ij/lAajB6ASrQDzq5L/Xj6jBj6LkQKkvtL59Da/BuFjZQFHVuz/8F5DBLe2uQCTEAkED22LBXqWd
QLauDUF7JnfBoFTNQO2S4EDobWjBWFqGQPid+kAYqYLBkAG4QHdkwEDj53fBWMykQDEa1kA/NobB
M5cfQTg06EBqj5LBX9vhQMm1sz4iC4jBcumfQKwYIUHS6KbBH725QPD8AEEacrHBORLqQByhIEG/
Xq7B1wKKQE3A7D9NmKTBIh2iQBFtkEBuTo/BLy6jQAD6J0DR/pvBUgeIQIMZcUDmnpfBv73GQNtY
EkEaRanB0FCvQGuh2z9ELpPBwkKKQJpxtkDW14vBg6D3QOtNAUA6gJTB/Z16QLsJlUDqI6DBkyab
QGZhQcBGnKbBWiYGQRfcUr4DNbPBI3f9QKiazUAhF4bBH4OWQLMjAEF3JJnBrLAMQQqoCUHA1qLB
qo9mQJBTRL/0b6LBbF/YQCWx4j9/R67BhevmQBbPIMDB/q7BcljAQFmlDkEzOVnB5tyTQC3k+EBN
i1nBnCuHQNdsGkGujnLBrnq4QFyoFEH1E4DB9DfqQNiz7UA7DHDB30jWQOPGz0Djn1nBGBlXQGPH
7EAlQHzBuOtzQCF9BUFRz4nBsC3QQJreqEDh8HzBcAmeQMbtr0CvVm/ByOYjQd8JykDrjJbBO/Io
QSBLAUE8CJbBGhgjQZyw5UCS9YnBJkcCQQvDQz6KTIfBSJrUQD43Ij8INoDBBonSQPmfE78u0YrB
lYmVQM3sKEEcWq7B0HGFQLV5F0GeqqPBzTqpQKBXLUGoCKHBqJyuQLerCEG327jBpIPVQPmL7UCW
N7PBJdWfQCNO7kAlFa7Br3vdQLxCKEENprXBDs/zQBIKLUHhn6jB7vMCQfCuFkHKcLDBlamEQNQJ
IECxj6vBYfxVQAJVxD8hSqHB3vinQJnrdkAaZIjBKeHAQLdDmkDHzZLBajbAQJ/CQkA7rZ/BsvlV
QEnrVkBf4JPBpuWXQFcooD9DMY/BlpxlQI8TrUA+7obBRSl7QCtqxED+TZLB6e5ZQKothkC5XKXB

>  <OMEGA_E>  (81) 
4C8WPYA2HD0=

>  <OMEGA_NBR>  (81) 
     56090

$$$$
50167974
     RDKit          3D

 75 77  0  0  1  0  0  0  0  0999 V2000
    5.8034    7.9069  -18.9535 C   0  0  0  0  0  0  0  0  0  0  0  0
    7.5994    6.9947  -17.5898 C   0  0  0  0  0  0  0  0  0  0  0  0
    8.1184    8.1870  -19.6455 C   0  0  0  0  0  0  0  0  0  0  0  0
    6.3979    0.7991  -21.5702 C   0  0  0  0  0  0  0  0  0  0  0  0
    4.5868   -0.6395  -20.7809 C   0  0  0  0  0  0  0  0  0  0  0  0
    6.6468   -1.6249  -21.6374 C   0  0  0  0  0  0  0  0  0  0  0  0
    6.2193    7.2344  -17.7776 C   0  0  0  0  0  0  0  0  0  0  0  0
    6.7456    8.4323  -19.8722 C   0  0  0  0  0  0  0  0  0  0  0  0
    5.1088    0.6475  -21.0147 C   0  0  0  0  0  0  0  0  0  0  0  0
    8.5352    7.4735  -18.5149 C   0  0  0  0  0  0  0  0  0  0  0  0
    7.1702   -0.3371  -21.8700 C   0  0  0  0  0  0  0  0  0  0  0  0
    5.3525   -1.7744  -21.0988 C   0  0  0  0  0  0  0  0  0  0  0  0
    6.8192    1.4993  -18.0184 C   0  0  0  0  0  0  0  0  0  0  0  0
    5.4076    8.1900  -14.1895 C   0  0  0  0  0  0  0  0  0  0  0  0
    4.8823    8.8666  -15.4668 C   0  0  0  0  0  0  0  0  0  0  0  0
    6.3803    7.0493  -14.5235 C   0  0  0  0  0  0  0  0  0  0  0  0
    4.1863    7.8354  -16.3661 C   0  0  0  0  0  0  0  0  0  0  0  0
    5.7377    6.0318  -15.4935 C   0  0  0  0  0  0  0  0  0  0  0  0
    5.1572    6.7014  -16.7874 C   0  0  0  0  0  0  0  0  0  0  0  0
    7.1002    0.4248  -16.9716 C   0  0  0  0  0  0  0  0  0  0  0  0
    5.0395   10.0453  -20.8667 C   0  0  0  0  0  0  0  0  0  0  0  0
    5.9174    8.0868  -22.2072 C   0  0  0  0  0  0  0  0  0  0  0  0
    7.3822   10.0837  -21.7341 C   0  0  0  0  0  0  0  0  0  0  0  0
    4.3235    1.8596  -20.5859 C   0  0  0  0  0  0  0  0  0  0  0  0
    5.0920    4.5313  -17.9407 C   0  0  0  0  0  0  0  0  0  0  0  0
    5.1058    2.6298  -19.5047 C   0  0  1  0  0  0  0  0  0  0  0  0
    4.2478    3.7513  -18.9311 C   0  0  2  0  0  0  0  0  0  0  0  0
    6.2791    9.1543  -21.1508 C   0  0  0  0  0  0  0  0  0  0  0  0
    9.8833    7.2343  -18.3136 N   0  0  0  0  0  0  0  0  0  0  0  0
    5.5031    1.7153  -18.4139 N   0  0  0  0  0  0  0  0  0  0  0  0
    4.3386    5.7091  -17.4983 N   0  0  0  0  0  0  0  0  0  0  0  0
    7.7578    2.0566  -18.5779 O   0  0  0  0  0  0  0  0  0  0  0  0
    3.8289    4.6193  -19.9845 O   0  0  0  0  0  0  0  0  0  0  0  0
    8.4179   -0.1914  -22.3698 F   0  0  0  0  0  0  0  0  0  0  0  0
    4.8493   -3.0076  -20.8712 F   0  0  0  0  0  0  0  0  0  0  0  0
    4.7482    8.0211  -19.1533 H   0  0  0  0  0  0  0  0  0  0  0  0
    7.9346    6.4384  -16.7268 H   0  0  0  0  0  0  0  0  0  0  0  0
    8.8516    8.5524  -20.3492 H   0  0  0  0  0  0  0  0  0  0  0  0
    6.7903    1.7863  -21.7646 H   0  0  0  0  0  0  0  0  0  0  0  0
    3.5997   -0.7542  -20.3579 H   0  0  0  0  0  0  0  0  0  0  0  0
    7.2377   -2.4979  -21.8719 H   0  0  0  0  0  0  0  0  0  0  0  0
    5.9302    8.9388  -13.5760 H   0  0  0  0  0  0  0  0  0  0  0  0
    4.5569    7.7819  -13.6240 H   0  0  0  0  0  0  0  0  0  0  0  0
    4.1636    9.6528  -15.1921 H   0  0  0  0  0  0  0  0  0  0  0  0
    5.7251    9.3150  -16.0132 H   0  0  0  0  0  0  0  0  0  0  0  0
    7.2813    7.4719  -14.9922 H   0  0  0  0  0  0  0  0  0  0  0  0
    6.6589    6.5318  -13.5938 H   0  0  0  0  0  0  0  0  0  0  0  0
    3.3401    7.3960  -15.8176 H   0  0  0  0  0  0  0  0  0  0  0  0
    3.8147    8.3416  -17.2693 H   0  0  0  0  0  0  0  0  0  0  0  0
    6.5028    5.2995  -15.7908 H   0  0  0  0  0  0  0  0  0  0  0  0
    4.9202    5.5155  -14.9690 H   0  0  0  0  0  0  0  0  0  0  0  0
    8.1869    0.2949  -16.8612 H   0  0  0  0  0  0  0  0  0  0  0  0
    6.6677    0.7304  -16.0074 H   0  0  0  0  0  0  0  0  0  0  0  0
    6.6481   -0.5257  -17.2914 H   0  0  0  0  0  0  0  0  0  0  0  0
    4.7281   10.5479  -21.7943 H   0  0  0  0  0  0  0  0  0  0  0  0
    4.2153    9.4189  -20.4948 H   0  0  0  0  0  0  0  0  0  0  0  0
    5.2967   10.8004  -20.1093 H   0  0  0  0  0  0  0  0  0  0  0  0
    5.5811    8.5824  -23.1299 H   0  0  0  0  0  0  0  0  0  0  0  0
    6.8027    7.4708  -22.4238 H   0  0  0  0  0  0  0  0  0  0  0  0
    5.1110    7.4466  -21.8202 H   0  0  0  0  0  0  0  0  0  0  0  0
    7.0050   10.5760  -22.6426 H   0  0  0  0  0  0  0  0  0  0  0  0
    7.6507   10.8466  -20.9885 H   0  0  0  0  0  0  0  0  0  0  0  0
    8.2712    9.4858  -21.9834 H   0  0  0  0  0  0  0  0  0  0  0  0
    4.1588    2.5145  -21.4543 H   0  0  0  0  0  0  0  0  0  0  0  0
    3.3530    1.5410  -20.1778 H   0  0  0  0  0  0  0  0  0  0  0  0
    5.3261    3.8957  -17.0740 H   0  0  0  0  0  0  0  0  0  0  0  0
    6.0270    4.8512  -18.4240 H   0  0  0  0  0  0  0  0  0  0  0  0
    6.0046    3.0673  -19.9637 H   0  0  0  0  0  0  0  0  0  0  0  0
    3.3792    3.3188  -18.4129 H   0  0  0  0  0  0  0  0  0  0  0  0
   10.4096    7.6408  -19.0605 H   0  0  0  0  0  0  0  0  0  0  0  0
   10.1679    7.6411  -17.4456 H   0  0  0  0  0  0  0  0  0  0  0  0
    4.7809    1.2210  -17.9300 H   0  0  0  0  0  0  0  0  0  0  0  0
    3.6086    5.4053  -16.8862 H   0  0  0  0  0  0  0  0  0  0  0  0
    3.9382    6.1482  -18.3026 H   0  0  0  0  0  0  0  0  0  0  0  0
    3.3001    4.1322  -20.6055 H   0  0  0  0  0  0  0  0  0  0  0  0
  1  7  2  0
  1  8  1  0
  2  7  1  0
  2 10  2  0
  3  8  2  0
  3 10  1  0
  4  9  2  0
  4 11  1  0
  5  9  1  0
  5 12  2  0
  6 11  2  0
  6 12  1  0
  7 19  1  0
  8 28  1  0
  9 24  1  0
 10 29  1  0
 11 34  1  0
 12 35  1  0
 13 20  1  0
 13 30  1  0
 13 32  2  0
 14 15  1  0
 14 16  1  0
 15 17  1  0
 16 18  1  0
 17 19  1  0
 18 19  1  0
 19 31  1  0
 21 28  1  0
 22 28  1  0
 23 28  1  0
 24 26  1  0
 25 27  1  0
 25 31  1  0
 26 27  1  0
 26 30  1  0
 27 33  1  0
  1 36  1  0
  2 37  1  0
  3 38  1  0
  4 39  1  0
  5 40  1  0
  6 41  1  0
 14 42  1  0
 14 43  1  0
 15 44  1  0
 15 45  1  0
 16 46  1  0
 16 47  1  0
 17 48  1  0
 17 49  1  0
 18 50  1  0
 18 51  1  0
 20 52  1  0
 20 53  1  0
 20 54  1  0
 21 55  1  0
 21 56  1  0
 21 57  1  0
 22 58  1  0
 22 59  1  0
 22 60  1  0
 23 61  1  0
 23 62  1  0
 23 63  1  0
 24 64  1  0
 24 65  1  0
 25 66  1  0
 25 67  1  0
 26 68  1  6
 27 69  1  1
 29 70  1  0
 29 71  1  0
 30 72  1  0
 31 73  1  0
 31 74  1  0
 33 75  1  0
M  CHG  1  31   1
M  END
>  <OMEGA_C>  (82) 
kLW5QA8F/UDOoJfBVS7zQIfU30DZt4zBz+QBQd/9AkHiKZ3B9bvMQDOPTD/Nj6zBXMeSQMq4I78+
P6bBT7LUQJn8z79NGa3BkgTHQP9/50B1OI7BRNzXQIPqBkFA+p7BWHujQJrAJT8aHqjBFpAIQbUm
70BqHpTBT3LlQDmcrL629a7BAEirQB4f479oyqjB8zbaQB/pvz+uJZDBVgutQGgKA0ENCGPB4Tuc
QLvdDUHmd3fBCSvMQPaT4UBgYGjBIvaFQDm7+kDe7YLBe5u3QKUEwUBZ5XfB8AelQCNy1kCETIbB
nDTjQEt62T7IxYfBUEOhQLa5IEEB76bBgVu9QKRjAUFiqLHBzDrsQO1WIUFy363BClqKQN8I7j/+
r6TBtvGiQM4AkUClho/BuWKjQPlNKECcCZzBqe2HQLYVcED1cpfBIO7IQB14EkHjNKnBCCIeQZR/
50BQgpLBLxmwQJuO2z+yT5PBEtaKQEuxtkCK/IvB1j/4QEqfA0CFn5TBCA11QKrRk0BA4J/Bkq8G
QZr1Q75g9bLBQS2bQNJ8QMAv+KbBfvGXQIhWAEENOpnBFOj9QL0HzkCS0IXBM6ANQaLWCEEWy6LB
bUrZQEil5D/4Ha7BKGJmQOkUQb8I3aLBO5vnQDTeH8CX+a7BhsS9QDgFD0F9N1nBT9KRQEwF+UAP
/FnBbDyFQNBxGkG/EnPBWDS3QFAKFUELG4DBAQDpQM0Z70Ds32/BFxbVQFAE0UABgFnBr8NVQPer
7EAMFX3B5CN0QEN3BUFwJ4rBOBfQQOSVqUAmp3zBgHKdQPZ+sED7gG/Bf/0CQff/lj6u44bB8F3V
QI/4Oj8xD4DBML3UQD2SBr/ZVIrB7UyXQE/EKEHGWq7BgOOGQNWzFkFv9aPBTX6pQITOLEHJ36DB
f5iyQLNRCUHyCbnBYa/ZQA8R70DtY7PBPY2jQJ9K7kC9j67BvCjgQB43KUEcJLXBc9L0QJuLLUFs
6KfBrVYEQaXFF0H63a/BRRWFQDruIEBXoqvBlJdWQBQ+xT8ZbKHBDG+qQOZTeUCSl4jB6NzAQBA9
m0BdZJPBryXAQKZOREC6tZ/BYURYQPdnVEC2TZPBjI0mQZqB9EDqe5jB6K8iQYyD9ECAkIvBOf2Y
QLlJnD+scI/Bm/JmQA34rED4FofB4Ap8QNK9xEC5a5LBZDVTQDo7hED/16TBP3S5QKtH/ECWp5fB
VzHzQCfd4EBnjYzBDb4BQSuRA0H4AZ3BKDyTQEWbJL8kFqbBVwHNQGdZSz88hazBS+7UQA2j0L8c
D63BFu3GQPhk50D5LY7BU23XQMjIBkFo+J7Byd6jQDniJD+rAqjB7IUIQc8R8UCF3JPBNqKrQLqr
478brqjB9qXlQAhUr77N8q7B5fnZQL6pvT+BK5DBXHetQHHHAkHavmLB1jedQM3XDUF1KnfBPh/M
QCiw4EDLGGjB5G2GQIwt+0Ax04LBx4W3QBGjwED94HfBR/qkQEeB1kAtPYbBJ33iQJK4xj4q7YfB
t2GhQAfkIEEnz6bBVLW6QOfFAEHgZrHBKnPrQKlBIEG8Wa7B6qyKQHTp7T9vpKTBJ2+iQEYskUAz
e4/BKnejQIjPKEBQ/5vBuNCHQPrVcEDghZfBDw/IQG4QEkH8OqnB0yoeQQJK60DnBpLBSuSvQMyQ
3T+kMpPBFn+KQE0Ct0Bj84vBpzr4QAQCAUBRvJTBkUR2QKJGlEBBAKDBg4GbQPvEQMAI36bB1LsG
QTL0Sb5HA7PB+aqXQD4T/0BAVZnBMxL+QChFz0B/oYXBQG4NQXKnCUGomKLBt5BnQD3NQb+8n6LB
zIjZQF/+4z+uGq7BLMbnQIM2IMCt967BQWi+QL+UDkE9z1jBu/KRQJDI+EAg0lnBBaqGQGeeGkHN
w3LBZYO4QF7LFEEp1n/BCVDpQGHt7UASX2/BiXbUQNm+z0B+PlnBXEZWQBlv7UDd6XzBZJR1QLXa
BUFYB4rBF/3PQGFMqUCQxXzB5VKdQOHur0CVm2/Bd5YCQVAIZT4eNofB8ILVQP9TMj+eIIDB6+fS
QFJgC78If4rB/O+WQL/FKEFJO67BqOSGQMtPF0HMi6PB0+iqQJcXLUF07qDBJZuvQIiCCEF6zbjB
20/WQJLr7EDWMrPB6LKgQK4N7kAWBq7BdNzeQN7pJ0FKn7XB/Fr1QH6lLEGynKjBPZYDQSM/FkHO
b7DBC36FQLOOIEBKn6vBKylXQK02xT9hZaHBQW6pQPBReUARjIjBCJ7AQARKm0CnPJPB4FPAQAmh
REBgpJ/B/1tXQPpeVUAygJPB/4kmQe+z+EBz9pfBrS4iQR7/+EAaFYvBT5SYQK40oj8QKo/Bowpm
QLFwrUCdEYfBv657QDwvxUAwY5LB1etUQPPJhEBQCqXB

>  <OMEGA_E>  (82) 
+MpPPqDdTz4=

>  <OMEGA_NBR>  (82) 
     58777

$$$$
50167934
     RDKit          3D

 81 83  0  0  1  0  0  0  0  0999 V2000
    5.7606    7.9992  -18.9235 C   0  0  0  0  0  0  0  0  0  0  0  0
    7.5840    7.0563  -17.6217 C   0  0  0  0  0  0  0  0  0  0  0  0
    8.0562    8.3170  -19.6485 C   0  0  0  0  0  0  0  0  0  0  0  0
    6.3434    0.6543  -21.5519 C   0  0  0  0  0  0  0  0  0  0  0  0
    4.5810   -0.7154  -20.5574 C   0  0  0  0  0  0  0  0  0  0  0  0
    6.5651   -1.7734  -21.5019 C   0  0  0  0  0  0  0  0  0  0  0  0
    6.2012    7.2858  -17.7797 C   0  0  0  0  0  0  0  0  0  0  0  0
    6.6829    8.5526  -19.8466 C   0  0  0  0  0  0  0  0  0  0  0  0
    5.0926    0.5503  -20.9072 C   0  0  0  0  0  0  0  0  0  0  0  0
    8.4969    7.6010  -18.5304 C   0  0  0  0  0  0  0  0  0  0  0  0
    7.0818   -0.5070  -21.8418 C   0  0  0  0  0  0  0  0  0  0  0  0
    5.3135   -1.8764  -20.8620 C   0  0  0  0  0  0  0  0  0  0  0  0
    6.8030    1.4561  -17.9884 C   0  0  0  0  0  0  0  0  0  0  0  0
    5.3872    8.0483  -14.1069 C   0  0  0  0  0  0  0  0  0  0  0  0
    4.8645    8.7926  -15.3464 C   0  0  0  0  0  0  0  0  0  0  0  0
    6.3855    6.9520  -14.5061 C   0  0  0  0  0  0  0  0  0  0  0  0
    4.1824    7.8071  -16.3067 C   0  0  0  0  0  0  0  0  0  0  0  0
    5.7685    5.9802  -15.5356 C   0  0  0  0  0  0  0  0  0  0  0  0
    5.1633    6.7055  -16.7909 C   0  0  0  0  0  0  0  0  0  0  0  0
    7.0317    0.4525  -16.8612 C   0  0  0  0  0  0  0  0  0  0  0  0
    5.0180   10.2603  -20.7250 C   0  0  0  0  0  0  0  0  0  0  0  0
    5.7313    8.2770  -22.1325 C   0  0  0  0  0  0  0  0  0  0  0  0
    7.3061   10.1999  -21.7273 C   0  0  0  0  0  0  0  0  0  0  0  0
    9.7893    9.1805  -15.8797 C   0  0  0  0  0  0  0  0  0  0  0  0
    4.3304    1.7958  -20.5326 C   0  0  0  0  0  0  0  0  0  0  0  0
    5.1285    4.5820  -18.0224 C   0  0  0  0  0  0  0  0  0  0  0  0
    5.1277    2.6137  -19.4999 C   0  0  1  0  0  0  0  0  0  0  0  0
    4.2857    3.7833  -18.9960 C   0  0  2  0  0  0  0  0  0  0  0  0
    6.1940    9.3160  -21.0891 C   0  0  0  0  0  0  0  0  0  0  0  0
    9.8381    7.5853  -18.2144 N   0  0  0  0  0  0  0  0  0  0  0  0
    5.4952    1.7615  -18.3498 N   0  0  0  0  0  0  0  0  0  0  0  0
    4.3551    5.7307  -17.5385 N   0  0  0  0  0  0  0  0  0  0  0  0
    7.7597    1.8555  -18.6436 O   0  0  0  0  0  0  0  0  0  0  0  0
   11.9260    8.8409  -17.4198 O   0  0  0  0  0  0  0  0  0  0  0  0
    9.9578   10.1767  -18.3267 O   0  0  0  0  0  0  0  0  0  0  0  0
    3.9058    4.6195  -20.0883 O   0  0  0  0  0  0  0  0  0  0  0  0
    8.2869   -0.4059  -22.4456 F   0  0  0  0  0  0  0  0  0  0  0  0
    4.8170   -3.0900  -20.5342 F   0  0  0  0  0  0  0  0  0  0  0  0
   10.4781    9.0376  -17.5537 S   0  0  0  0  0  0  0  0  0  0  0  0
    4.7015    8.1232  -19.0945 H   0  0  0  0  0  0  0  0  0  0  0  0
    7.9391    6.4576  -16.7959 H   0  0  0  0  0  0  0  0  0  0  0  0
    8.7738    8.6910  -20.3636 H   0  0  0  0  0  0  0  0  0  0  0  0
    6.7333    1.6245  -21.8224 H   0  0  0  0  0  0  0  0  0  0  0  0
    3.6276   -0.7935  -20.0561 H   0  0  0  0  0  0  0  0  0  0  0  0
    7.1286   -2.6656  -21.7319 H   0  0  0  0  0  0  0  0  0  0  0  0
    5.8881    8.7660  -13.4405 H   0  0  0  0  0  0  0  0  0  0  0  0
    4.5391    7.5880  -13.5790 H   0  0  0  0  0  0  0  0  0  0  0  0
    4.1377    9.5562  -15.0323 H   0  0  0  0  0  0  0  0  0  0  0  0
    5.7069    9.2779  -15.8611 H   0  0  0  0  0  0  0  0  0  0  0  0
    7.2771    7.4222  -14.9466 H   0  0  0  0  0  0  0  0  0  0  0  0
    6.6750    6.3866  -13.6081 H   0  0  0  0  0  0  0  0  0  0  0  0
    3.3384    7.3297  -15.7875 H   0  0  0  0  0  0  0  0  0  0  0  0
    3.8093    8.3613  -17.1805 H   0  0  0  0  0  0  0  0  0  0  0  0
    6.5531    5.2887  -15.8766 H   0  0  0  0  0  0  0  0  0  0  0  0
    4.9674    5.4109  -15.0415 H   0  0  0  0  0  0  0  0  0  0  0  0
    8.1033    0.2139  -16.7938 H   0  0  0  0  0  0  0  0  0  0  0  0
    6.6923    0.8869  -15.9093 H   0  0  0  0  0  0  0  0  0  0  0  0
    6.4638   -0.4666  -17.0679 H   0  0  0  0  0  0  0  0  0  0  0  0
    4.6843   10.7955  -21.6262 H   0  0  0  0  0  0  0  0  0  0  0  0
    4.1840    9.6679  -20.3205 H   0  0  0  0  0  0  0  0  0  0  0  0
    5.3518   10.9869  -19.9696 H   0  0  0  0  0  0  0  0  0  0  0  0
    5.3752    8.7960  -23.0346 H   0  0  0  0  0  0  0  0  0  0  0  0
    6.5744    7.6212  -22.3956 H   0  0  0  0  0  0  0  0  0  0  0  0
    4.9145    7.6728  -21.7108 H   0  0  0  0  0  0  0  0  0  0  0  0
    6.9015   10.7201  -22.6080 H   0  0  0  0  0  0  0  0  0  0  0  0
    7.6531   10.9404  -20.9915 H   0  0  0  0  0  0  0  0  0  0  0  0
    8.1497    9.5636  -22.0329 H   0  0  0  0  0  0  0  0  0  0  0  0
   10.1666   10.0980  -15.4045 H   0  0  0  0  0  0  0  0  0  0  0  0
    8.6916    9.2224  -15.9374 H   0  0  0  0  0  0  0  0  0  0  0  0
   10.0920    8.3075  -15.2830 H   0  0  0  0  0  0  0  0  0  0  0  0
    4.1668    2.4067  -21.4327 H   0  0  0  0  0  0  0  0  0  0  0  0
    3.3594    1.5119  -20.1007 H   0  0  0  0  0  0  0  0  0  0  0  0
    5.4101    3.9442  -17.1715 H   0  0  0  0  0  0  0  0  0  0  0  0
    6.0370    4.9385  -18.5299 H   0  0  0  0  0  0  0  0  0  0  0  0
    6.0373    3.0047  -19.9791 H   0  0  0  0  0  0  0  0  0  0  0  0
    3.3972    3.3942  -18.4772 H   0  0  0  0  0  0  0  0  0  0  0  0
    9.9860    6.8552  -17.5473 H   0  0  0  0  0  0  0  0  0  0  0  0
    4.7556    1.3796  -17.7956 H   0  0  0  0  0  0  0  0  0  0  0  0
    3.6293    5.3942  -16.9386 H   0  0  0  0  0  0  0  0  0  0  0  0
    3.9486    6.1937  -18.3262 H   0  0  0  0  0  0  0  0  0  0  0  0
    3.3772    4.1211  -20.7004 H   0  0  0  0  0  0  0  0  0  0  0  0
  1  7  2  0
  1  8  1  0
  2  7  1  0
  2 10  2  0
  3  8  2  0
  3 10  1  0
  4  9  2  0
  4 11  1  0
  5  9  1  0
  5 12  2  0
  6 11  2  0
  6 12  1  0
  7 19  1  0
  8 29  1  0
  9 25  1  0
 10 30  1  0
 11 37  1  0
 12 38  1  0
 13 20  1  0
 13 31  1  0
 13 33  2  0
 14 15  1  0
 14 16  1  0
 15 17  1  0
 16 18  1  0
 17 19  1  0
 18 19  1  0
 19 32  1  0
 21 29  1  0
 22 29  1  0
 23 29  1  0
 24 39  1  0
 25 27  1  0
 26 28  1  0
 26 32  1  0
 27 28  1  0
 27 31  1  0
 28 36  1  0
 30 39  1  0
 34 39  2  0
 35 39  2  0
  1 40  1  0
  2 41  1  0
  3 42  1  0
  4 43  1  0
  5 44  1  0
  6 45  1  0
 14 46  1  0
 14 47  1  0
 15 48  1  0
 15 49  1  0
 16 50  1  0
 16 51  1  0
 17 52  1  0
 17 53  1  0
 18 54  1  0
 18 55  1  0
 20 56  1  0
 20 57  1  0
 20 58  1  0
 21 59  1  0
 21 60  1  0
 21 61  1  0
 22 62  1  0
 22 63  1  0
 22 64  1  0
 23 65  1  0
 23 66  1  0
 23 67  1  0
 24 68  1  0
 24 69  1  0
 24 70  1  0
 25 71  1  0
 25 72  1  0
 26 73  1  0
 26 74  1  0
 27 75  1  6
 28 76  1  1
 30 77  1  0
 31 78  1  0
 32 79  1  0
 32 80  1  0
 36 81  1  0
M  CHG  1  32   1
M  END
>  <OMEGA_C>  (83) 
/Va4QGv5/0BJY5fBS7DyQPbM4UAp+YzBFeYAQWESBUEKMJ3BOv3KQB+BJz9aaqzBv5eSQNEiN7+g
daTBmRXSQCEA47/cA6zBL3DGQKgl6UC+PI7BjNrVQIvXCEHmxZ7BfvaiQJHfDD//QafBUfMHQY07
80AuPpTBX57iQO3NAb8NvK7BWgiqQEwv8L9k5abBK7LZQBRhuj8l6I/BWWSsQLHFAEH5tWHBU6qb
QFquDEGyinXBDVbMQO123kAPGWjBodaFQIzT+UAsdILBrJe4QKRdv0CwkXjBsDmlQC6T1kDWU4bB
VwPhQHS05z6544bBuJOgQDMqJEG3zKXB1ma3QJZuBEFZD7HBqMvpQLAyI0Fp0a3BxaAcQX3jEkFO
E37BUpKKQMfb5T/eQqTB1RykQHefkkDtLZDBGxakQEZHJ0C2/5vBsySJQE4hckDi95fBojXGQHoO
FUF+tqjB0WgdQbS68kAwt5HB19ivQEh44T9szJLBzVyLQCVit0DjTozBtU/4QPaB7T8sJpXBFdE+
QWN0DUHWW4vBI1MfQZrTIkELnZLB0/h5QEvTk0DUtKDBH5cEQQPRz76DkLPBoySaQD3CRcAXRqTB
YqYnQe+ZEEH4bYzBjXKWQKP4AUGUwZjB9wz+QJikzkD1XYbBmGEMQW4OC0G26KLBzXbXQITvzz9V
lK7BJStoQFAjS7/hcqDB3h3kQGOZKsDZ2q3B+Gq8QGpBDEFlDFfB5j+RQLbQ8kCjQ1nBOmiEQArm
GEEphHDBjZ62QBtyFEE/x33Bt93oQMaC7UBTJW/BtZnVQMBezEC/ulnBxKdVQNGM6kB7mXzBRMtz
QOvHBUHEcYnBBLPRQAk9qUBmBn7B/fSeQLklrUAHqnDBT6cBQXoOWz66WYbBWyfWQLQMYz9ZjH7B
UtfOQNvh7r4mi4jB3OWVQIq6LEFcAq3BpeOFQNWvGkF8kKLB/UGrQIvKL0G5wZ/B/wGsQH+8DEHp
RrjBN2HSQCrh80AqKrPBzEOdQJ+H9UC4r63B4tjcQF2FK0Ej3bTB7eX0QLALL0Ge7qfBUGUCQVoE
GUFTQ7DBU6oiQYORIUHJeHbBpRALQQaPE0Gk/37B43ghQXHrBEELh3TBW1aFQBsHGkAadqvBpf9W
QJCHwT82zqDBih+tQDRufEBSX4nBUS/BQDoInkAqPZTB0DHBQP1MQEBG1Z/B2mtZQOU6WUBf0ZPB
z8YfQcJd20DkYIzBAC6YQKSXsD9cXY7BC0ZoQAqdrEAygofBdbV8QJEyxkAOnJLBzSNYQD3gg0Ba
mqXB

>  <OMEGA_E>  (83) 
AAa5Pg==

>  <OMEGA_NBR>  (83) 
     60410

$$$$
50167976
     RDKit          3D

 78 80  0  0  1  0  0  0  0  0999 V2000
    7.5716    7.5678  -17.5543 C   0  0  0  0  0  0  0  0  0  0  0  0
    7.7918    9.0413  -19.4795 C   0  0  0  0  0  0  0  0  0  0  0  0
    5.5903    8.2623  -18.7849 C   0  0  0  0  0  0  0  0  0  0  0  0
    5.6342    0.1067  -21.7978 C   0  0  0  0  0  0  0  0  0  0  0  0
    4.5759   -0.8651  -19.8213 C   0  0  0  0  0  0  0  0  0  0  0  0
    5.9916   -2.2475  -21.2507 C   0  0  0  0  0  0  0  0  0  0  0  0
    8.3835    8.3332  -18.4128 C   0  0  0  0  0  0  0  0  0  0  0  0
    6.1654    7.5464  -17.7065 C   0  0  0  0  0  0  0  0  0  0  0  0
    6.3919    9.0108  -19.6842 C   0  0  0  0  0  0  0  0  0  0  0  0
    4.7966    0.2441  -20.6691 C   0  0  0  0  0  0  0  0  0  0  0  0
    6.2232   -1.1402  -22.0933 C   0  0  0  0  0  0  0  0  0  0  0  0
    5.1714   -2.1086  -20.1121 C   0  0  0  0  0  0  0  0  0  0  0  0
    9.8482    8.3971  -18.1888 C   0  0  0  0  0  0  0  0  0  0  0  0
    6.7466    1.4574  -17.8440 C   0  0  0  0  0  0  0  0  0  0  0  0
    5.4882    7.7364  -13.9125 C   0  0  0  0  0  0  0  0  0  0  0  0
    4.8138    8.5705  -15.0177 C   0  0  0  0  0  0  0  0  0  0  0  0
    6.5636    6.8089  -14.5000 C   0  0  0  0  0  0  0  0  0  0  0  0
    4.1876    7.6500  -16.0871 C   0  0  0  0  0  0  0  0  0  0  0  0
    5.9961    5.9188  -15.6417 C   0  0  0  0  0  0  0  0  0  0  0  0
    5.2448    6.7219  -16.7677 C   0  0  0  0  0  0  0  0  0  0  0  0
   10.4399    8.1607  -16.7868 C   0  0  0  0  0  0  0  0  0  0  0  0
    6.9375    0.6608  -16.5518 C   0  0  0  0  0  0  0  0  0  0  0  0
    6.3795    9.2630  -22.2029 C   0  0  0  0  0  0  0  0  0  0  0  0
    6.1108   11.3039  -20.7209 C   0  0  0  0  0  0  0  0  0  0  0  0
    4.2316    9.6569  -20.9653 C   0  0  0  0  0  0  0  0  0  0  0  0
    4.1644    1.5882  -20.3460 C   0  0  0  0  0  0  0  0  0  0  0  0
    5.3067    4.7063  -18.2679 C   0  0  0  0  0  0  0  0  0  0  0  0
    5.1075    2.4826  -19.4963 C   0  0  1  0  0  0  0  0  0  0  0  0
    4.4077    3.8211  -19.1497 C   0  0  2  0  0  0  0  0  0  0  0  0
    5.7799    9.7935  -20.8715 C   0  0  0  0  0  0  0  0  0  0  0  0
    5.4508    1.7780  -18.2416 N   0  0  0  0  0  0  0  0  0  0  0  0
    4.4813    5.7586  -17.6189 N   0  0  0  0  0  0  0  0  0  0  0  0
   10.6099    8.5494  -19.1376 O   0  0  0  0  0  0  0  0  0  0  0  0
    7.7165    1.6970  -18.5561 O   0  0  0  0  0  0  0  0  0  0  0  0
    4.0932    4.5381  -20.3453 O   0  0  0  0  0  0  0  0  0  0  0  0
    7.0091   -1.2747  -23.1867 F   0  0  0  0  0  0  0  0  0  0  0  0
    4.9528   -3.1688  -19.2999 F   0  0  0  0  0  0  0  0  0  0  0  0
    8.0296    6.9876  -16.7668 H   0  0  0  0  0  0  0  0  0  0  0  0
    8.4157    9.6146  -20.1493 H   0  0  0  0  0  0  0  0  0  0  0  0
    4.5197    8.2376  -18.9253 H   0  0  0  0  0  0  0  0  0  0  0  0
    5.8240    0.9574  -22.4354 H   0  0  0  0  0  0  0  0  0  0  0  0
    3.9490   -0.7592  -18.9482 H   0  0  0  0  0  0  0  0  0  0  0  0
    6.4426   -3.2022  -21.4778 H   0  0  0  0  0  0  0  0  0  0  0  0
    5.9573    8.4155  -13.1853 H   0  0  0  0  0  0  0  0  0  0  0  0
    4.7254    7.1269  -13.4059 H   0  0  0  0  0  0  0  0  0  0  0  0
    4.0253    9.1934  -14.5703 H   0  0  0  0  0  0  0  0  0  0  0  0
    5.5663    9.2169  -15.4929 H   0  0  0  0  0  0  0  0  0  0  0  0
    7.3833    7.4230  -14.9011 H   0  0  0  0  0  0  0  0  0  0  0  0
    6.9494    6.1595  -13.7003 H   0  0  0  0  0  0  0  0  0  0  0  0
    3.4223    7.0217  -15.6080 H   0  0  0  0  0  0  0  0  0  0  0  0
    3.7172    8.2756  -16.8599 H   0  0  0  0  0  0  0  0  0  0  0  0
    6.8328    5.3750  -16.1045 H   0  0  0  0  0  0  0  0  0  0  0  0
    5.2904    5.1993  -15.2007 H   0  0  0  0  0  0  0  0  0  0  0  0
   11.5383    8.1634  -16.8466 H   0  0  0  0  0  0  0  0  0  0  0  0
   10.1078    8.9609  -16.1091 H   0  0  0  0  0  0  0  0  0  0  0  0
   10.0961    7.1889  -16.4029 H   0  0  0  0  0  0  0  0  0  0  0  0
    7.9991    0.3964  -16.4369 H   0  0  0  0  0  0  0  0  0  0  0  0
    6.6169    1.2708  -15.6944 H   0  0  0  0  0  0  0  0  0  0  0  0
    6.3336   -0.2576  -16.5947 H   0  0  0  0  0  0  0  0  0  0  0  0
    5.9458    9.8179  -23.0479 H   0  0  0  0  0  0  0  0  0  0  0  0
    7.4707    9.4019  -22.1946 H   0  0  0  0  0  0  0  0  0  0  0  0
    6.1470    8.1931  -22.3091 H   0  0  0  0  0  0  0  0  0  0  0  0
    5.6763   11.8608  -21.5642 H   0  0  0  0  0  0  0  0  0  0  0  0
    5.6885   11.6794  -19.7772 H   0  0  0  0  0  0  0  0  0  0  0  0
    7.2022   11.4411  -20.7145 H   0  0  0  0  0  0  0  0  0  0  0  0
    3.8636   10.2344  -21.8261 H   0  0  0  0  0  0  0  0  0  0  0  0
    3.9642    8.5976  -21.0932 H   0  0  0  0  0  0  0  0  0  0  0  0
    3.7731   10.0420  -20.0426 H   0  0  0  0  0  0  0  0  0  0  0  0
    3.9339    2.1083  -21.2875 H   0  0  0  0  0  0  0  0  0  0  0  0
    3.2343    1.4177  -19.7840 H   0  0  0  0  0  0  0  0  0  0  0  0
    5.7860    4.0874  -17.4950 H   0  0  0  0  0  0  0  0  0  0  0  0
    6.0803    5.1791  -18.8909 H   0  0  0  0  0  0  0  0  0  0  0  0
    6.0203    2.6922  -20.0732 H   0  0  0  0  0  0  0  0  0  0  0  0
    3.4860    3.5961  -18.5930 H   0  0  0  0  0  0  0  0  0  0  0  0
    4.6999    1.5133  -17.6365 H   0  0  0  0  0  0  0  0  0  0  0  0
    3.7998    5.3074  -17.0427 H   0  0  0  0  0  0  0  0  0  0  0  0
    4.0190    6.2780  -18.3376 H   0  0  0  0  0  0  0  0  0  0  0  0
    3.5379    4.0025  -20.8996 H   0  0  0  0  0  0  0  0  0  0  0  0
  1  7  2  0
  1  8  1  0
  2  7  1  0
  2  9  2  0
  3  8  2  0
  3  9  1  0
  4 10  2  0
  4 11  1  0
  5 10  1  0
  5 12  2  0
  6 11  2  0
  6 12  1  0
  7 13  1  0
  8 20  1  0
  9 30  1  0
 10 26  1  0
 11 36  1  0
 12 37  1  0
 13 21  1  0
 13 33  2  0
 14 22  1  0
 14 31  1  0
 14 34  2  0
 15 16  1  0
 15 17  1  0
 16 18  1  0
 17 19  1  0
 18 20  1  0
 19 20  1  0
 20 32  1  0
 23 30  1  0
 24 30  1  0
 25 30  1  0
 26 28  1  0
 27 29  1  0
 27 32  1  0
 28 29  1  0
 28 31  1  0
 29 35  1  0
  1 38  1  0
  2 39  1  0
  3 40  1  0
  4 41  1  0
  5 42  1  0
  6 43  1  0
 15 44  1  0
 15 45  1  0
 16 46  1  0
 16 47  1  0
 17 48  1  0
 17 49  1  0
 18 50  1  0
 18 51  1  0
 19 52  1  0
 19 53  1  0
 21 54  1  0
 21 55  1  0
 21 56  1  0
 22 57  1  0
 22 58  1  0
 22 59  1  0
 23 60  1  0
 23 61  1  0
 23 62  1  0
 24 63  1  0
 24 64  1  0
 24 65  1  0
 25 66  1  0
 25 67  1  0
 25 68  1  0
 26 69  1  0
 26 70  1  0
 27 71  1  0
 27 72  1  0
 28 73  1  6
 29 74  1  1
 31 75  1  0
 32 76  1  0
 32 77  1  0
 35 78  1  0
M  CHG  1  32   1
M  END
>  <OMEGA_C>  (84) 
PUryQBgr8kAcb4zBqlb5QFCpEEEa1pvBceOyQDYyBEGPR5bBsEu0QLJs2j3rYa7BdG2SQEx2Xb8A
kp7BILu/QGTXD8B1AarB0yIGQbJUBUFwTZPB1krFQEJ88UDzpo3BlYrMQGwsEEEveZ3Bc32ZQJTq
eT5aWqXBtiTHQNvykb8Sv7DBUHylQJ/zBsCE5aDBU5IdQZNaBkG6gpHBPeTXQE2Luj+KwI7BmJ+v
QOSQ90CkmV7BngqaQLUgCUGVSHDBTgnSQDTi2UDU/2fB5wCGQPLM9EBSsoDB3t+/QGhmvUA4RHrB
B9WnQHEZ10AuJIbBAgonQTSSAkFbS4bBVQDeQJQrKT8GaoTB+yTMQCQ1FEGTn7HB/YvDQMbcNEF9
xKXBrWmHQKOCGkHwuKfBnUKFQIxJyz+MxKLBxtCpQLqZlkCjJJLBZnCjQD3jHkBy+JvBEQyNQD2M
dECJMpnBsvS4QCuyHEHW+KbBKm2uQCiU4z/E7pHBKmePQEpGuECF84zBBsIpQYTKCEHhGZnB7e32
QEU42T/jcpTBSvuCQF84kUAxw6LByUrgQDMpo79sfrnBAn2eQK/NSsAxZprBb3kAQdCa30B6IobB
m6YGQZDVGUG2MaHBfaGQQBLNA0EXZ5fBPF66QNwadT+/e7PBFL18QBlcQr/plZfBACrOQNTwTMB9
0qvBjKK+QNClBkH+9lLBjzaXQOsP5ECzflbBE8+AQC4YE0HTH2nBWh+yQIZ4E0H+4nfBUUTsQFSJ
7UDaam7B22HeQIQaxUBoNFvBGgdbQOux4EAtunnBQuZtQOhoBEEo4YbBXabaQEsArEAV1oDBJ0up
QGdgpkBFNnPB8Jw4QSWdAkHIxYbBj7khQe5fD0Fc34DBs4khQTkL5kA7OYPBfPj/QLTyyj64foPB
i73TQI6qoj9KHHvBzazKQM7dg77ewYTB9EO+QDsWHUEAYrjBtw/vQF9uFkF3jrHB0bPEQOcWA0Hx
eLLBn6S1QAHGPUFrg6zBYwi2QLXeOkGuN57BpnjmQNAON0FZt6XBuER3QOe/I0H0m67BAbZ9QLWP
CUHWvqjBD3txQAmsIEEoV6DBr8R7QJLtBkC2TKrBAv5OQIx4tT+hRZ7BHCe5QCvMgkDR9YvBfpHC
QOC6pUCHIJfBKKbAQItNLED6laDBsRpfQEknZkCJvpTB2GWWQCazwT+YF43BEzBzQJjWqUB+V4jB
9puAQCLlyEBjs5LBhmxiQB0UgEBLMqfB

>  <OMEGA_E>  (84) 
JCUaPw==

>  <OMEGA_NBR>  (84) 
     61995

$$$$
50167987
     RDKit          3D

 61 63  0  0  1  0  0  0  0  0999 V2000
    7.7018    8.7712  -19.9181 C   0  0  0  0  0  0  0  0  0  0  0  0
    6.2979    8.8244  -19.9578 C   0  0  0  0  0  0  0  0  0  0  0  0
    8.3424    8.0422  -18.8964 C   0  0  0  0  0  0  0  0  0  0  0  0
    5.5398    8.1574  -18.9733 C   0  0  0  0  0  0  0  0  0  0  0  0
    7.5852    7.3822  -17.9003 C   0  0  0  0  0  0  0  0  0  0  0  0
    4.5659   -0.6118  -20.9087 C   0  0  0  0  0  0  0  0  0  0  0  0
    6.4897    0.7809  -21.4844 C   0  0  0  0  0  0  0  0  0  0  0  0
    6.6484   -1.6456  -21.6458 C   0  0  0  0  0  0  0  0  0  0  0  0
    6.1655    7.4472  -17.9101 C   0  0  0  0  0  0  0  0  0  0  0  0
    5.1554    0.6602  -21.0376 C   0  0  0  0  0  0  0  0  0  0  0  0
    5.3093   -1.7629  -21.2208 C   0  0  0  0  0  0  0  0  0  0  0  0
    7.2394   -0.3727  -21.7737 C   0  0  0  0  0  0  0  0  0  0  0  0
    6.6375    1.3196  -17.8925 C   0  0  0  0  0  0  0  0  0  0  0  0
    5.4551    7.7621  -14.0207 C   0  0  0  0  0  0  0  0  0  0  0  0
    4.8612    8.6140  -15.1503 C   0  0  0  0  0  0  0  0  0  0  0  0
    6.5638    6.8574  -14.5747 C   0  0  0  0  0  0  0  0  0  0  0  0
    4.2420    7.7077  -16.2175 C   0  0  0  0  0  0  0  0  0  0  0  0
    6.0330    5.9525  -15.6977 C   0  0  0  0  0  0  0  0  0  0  0  0
    5.2737    6.7244  -16.8452 C   0  0  0  0  0  0  0  0  0  0  0  0
    6.7735    0.1721  -16.8947 C   0  0  0  0  0  0  0  0  0  0  0  0
    4.3825    1.8848  -20.6231 C   0  0  0  0  0  0  0  0  0  0  0  0
    5.1430    4.5256  -17.9576 C   0  0  0  0  0  0  0  0  0  0  0  0
    5.1154    2.5946  -19.4688 C   0  0  1  0  0  0  0  0  0  0  0  0
    4.2847    3.7587  -18.9425 C   0  0  2  0  0  0  0  0  0  0  0  0
    5.3701    1.6428  -18.3668 N   0  0  0  0  0  0  0  0  0  0  0  0
    4.4340    5.7426  -17.5552 N   0  0  0  0  0  0  0  0  0  0  0  0
    7.6481    1.8291  -18.3653 O   0  0  0  0  0  0  0  0  0  0  0  0
    3.9246    4.6260  -20.0172 O   0  0  0  0  0  0  0  0  0  0  0  0
    4.7390   -2.9817  -21.0997 F   0  0  0  0  0  0  0  0  0  0  0  0
    8.5284   -0.2583  -22.1651 F   0  0  0  0  0  0  0  0  0  0  0  0
    8.2862    9.2860  -20.6663 H   0  0  0  0  0  0  0  0  0  0  0  0
    5.8000    9.3757  -20.7417 H   0  0  0  0  0  0  0  0  0  0  0  0
    9.4207    7.9869  -18.8735 H   0  0  0  0  0  0  0  0  0  0  0  0
    4.4615    8.1861  -19.0272 H   0  0  0  0  0  0  0  0  0  0  0  0
    8.0902    6.8241  -17.1258 H   0  0  0  0  0  0  0  0  0  0  0  0
    3.5443   -0.7029  -20.5706 H   0  0  0  0  0  0  0  0  0  0  0  0
    6.9336    1.7582  -21.6037 H   0  0  0  0  0  0  0  0  0  0  0  0
    7.2217   -2.5321  -21.8737 H   0  0  0  0  0  0  0  0  0  0  0  0
    5.8758    8.4229  -13.2484 H   0  0  0  0  0  0  0  0  0  0  0  0
    4.6633    7.1394  -13.5788 H   0  0  0  0  0  0  0  0  0  0  0  0
    4.0847    9.2754  -14.7385 H   0  0  0  0  0  0  0  0  0  0  0  0
    5.6570    9.2220  -15.6054 H   0  0  0  0  0  0  0  0  0  0  0  0
    7.3741    7.4857  -14.9729 H   0  0  0  0  0  0  0  0  0  0  0  0
    6.9537    6.2283  -13.7610 H   0  0  0  0  0  0  0  0  0  0  0  0
    3.4338    7.1218  -15.7555 H   0  0  0  0  0  0  0  0  0  0  0  0
    3.8265    8.3389  -17.0169 H   0  0  0  0  0  0  0  0  0  0  0  0
    6.8860    5.4213  -16.1450 H   0  0  0  0  0  0  0  0  0  0  0  0
    5.3387    5.2235  -15.2543 H   0  0  0  0  0  0  0  0  0  0  0  0
    7.8387   -0.0486  -16.7318 H   0  0  0  0  0  0  0  0  0  0  0  0
    6.3085    0.4594  -15.9401 H   0  0  0  0  0  0  0  0  0  0  0  0
    6.2708   -0.7216  -17.2931 H   0  0  0  0  0  0  0  0  0  0  0  0
    4.2973    2.5707  -21.4789 H   0  0  0  0  0  0  0  0  0  0  0  0
    3.3771    1.5875  -20.2901 H   0  0  0  0  0  0  0  0  0  0  0  0
    5.3364    3.9016  -17.0727 H   0  0  0  0  0  0  0  0  0  0  0  0
    6.0981    4.7949  -18.4322 H   0  0  0  0  0  0  0  0  0  0  0  0
    6.0728    2.9831  -19.8462 H   0  0  0  0  0  0  0  0  0  0  0  0
    3.3902    3.3722  -18.4322 H   0  0  0  0  0  0  0  0  0  0  0  0
    4.5822    1.2038  -17.9351 H   0  0  0  0  0  0  0  0  0  0  0  0
    3.6797    5.4813  -16.9530 H   0  0  0  0  0  0  0  0  0  0  0  0
    4.0685    6.1789  -18.3774 H   0  0  0  0  0  0  0  0  0  0  0  0
    3.3857    4.1524  -20.6399 H   0  0  0  0  0  0  0  0  0  0  0  0
  1  2  2  0
  1  3  1  0
  2  4  1  0
  3  5  2  0
  4  9  2  0
  5  9  1  0
  6 10  2  0
  6 11  1  0
  7 10  1  0
  7 12  2  0
  8 11  2  0
  8 12  1  0
  9 19  1  0
 10 21  1  0
 11 29  1  0
 12 30  1  0
 13 20  1  0
 13 25  1  0
 13 27  2  0
 14 15  1  0
 14 16  1  0
 15 17  1  0
 16 18  1  0
 17 19  1  0
 18 19  1  0
 19 26  1  0
 21 23  1  0
 22 24  1  0
 22 26  1  0
 23 24  1  0
 23 25  1  0
 24 28  1  0
  1 31  1  0
  2 32  1  0
  3 33  1  0
  4 34  1  0
  5 35  1  0
  6 36  1  0
  7 37  1  0
  8 38  1  0
 14 39  1  0
 14 40  1  0
 15 41  1  0
 15 42  1  0
 16 43  1  0
 16 44  1  0
 17 45  1  0
 17 46  1  0
 18 47  1  0
 18 48  1  0
 20 49  1  0
 20 50  1  0
 20 51  1  0
 21 52  1  0
 21 53  1  0
 22 54  1  0
 22 55  1  0
 23 56  1  6
 24 57  1  1
 25 58  1  0
 26 59  1  0
 26 60  1  0
 28 61  1  0
M  CHG  1  26   1
M  END
>  <OMEGA_C>  (85) 
1XT2QM1WDEFTWJ/Bn4jJQJkwDUGBqZ/BbHoFQbKsAEHCK5fBtUWxQM6EAkFPyZfBn7nyQLo67EDl
M4/BFhySQKagHL8HRafB76vPQODqRz8S4KvBa7/UQLej0r+zKq3BnEvFQGBP7kDOR4/BLfmkQPYB
KT/3TKjBx+WpQD2l4b85xKnBbannQMzQvr59MK7Bz2bUQOHnqD/KI4/Bi5CuQEJj+EC4VGDBHI+b
QBDTCUHGZ3LBawrSQCRw20D8MWnBo76HQNKl9kCIvYHBGw7BQN96vkC2KXvBwMGoQDIu10AHw4bB
S8DYQPA2MD5eKIfBEj2MQJFC8T8Y/KTBcZOkQB7SkEA9qY/BKbGjQK4OJkACwJvBNxyJQEaPcEBI
ipfBMtirQKtI0j8l75LBouONQP7Ct0AScYzB9bz0QB0f6j8e7JLBJC17QPgHlEAnI6DBfKWXQP7T
PsAkzKjBenQIQW5EhL4MUrHBIJQEQZGTFEGpVKXB4pm5QL8CFkEE76XBT7sWQVaU/0AH/ZbBfcSO
QFT6AkGkN5jBjnEBQche2kC9AYnBRNViQCzuM7+SkKTBQ+DdQMMN4T901KzBLhjnQEsNIsBQ/a7B
jAa8QC3EBkFy+VPBxTmVQBF25EDuQlnBuLWCQOlnFEHW0GvBTAa1QDiNE0HNr3nB0fjrQAOL70At
kW/BzoTeQG5Ox0DvLFzBv8NbQObl40BzFnzBGuV0QDZsBUGUIojBWFrcQF97rUAOKYHBBdeqQNwm
p0CLEXTB09b6QEnyRr2m2oXB+t7JQEYz6z7ACn/BjKrIQNu3OL9aWIrBvoOJQKOFJEDM1KvBwiJY
QA0zyz8dUqLBhcOqQDKzeUDglIjB2SPDQCxwmUAmdZPBVFTCQP/qPkABxZ7B/fhYQLzRV0AfdZPB
/KCSQM0Vmj8qe4/BtH9rQC5nr0Csn4fBvzCCQIC5xUDcBJPBH7BYQE3ghECMHqXBxP31QLHnDEHo
Rp/B6hbJQAkRDkFfXp/BX2QFQWrOAEHTTpfBzCSxQNQ3A0HMf5fBhN3yQIg/7EBIUI/BzkfPQLwQ
SD/IzqvB1v2RQAoaH7/DLKfBHr3UQNxk0r8FH63BnHHFQOrV7kAXMI/BZKSkQHQzJz/RM6jBVm/n
QLgzvL4mJq7BRPGpQAVR4r/VsKnBuoHUQJhlqj9NG4/BlHSuQGLv9kClEWDB1SibQK88CUHL83HB
GDXSQDmM2kDNImnBFLGHQCq19UCumYHBqoTBQIDsvUBeTnvBJRWpQFb71kB5wIbBlBrZQNDDRD7j
DofBm7iLQDCr7z/A3aTBv9GkQOjskEAcx4/BbGmjQBTQJUDLuJvBlvyIQKyIcEAGi5fBy9arQMLp
0j+73JLBaFWOQPPut0ASlIzBzLn0QBIu6z8F+5LBOHp6QNvIk0AjK6DBDlIIQcCIe779S7HBY+qX
QFRVP8DDrqjBnDoEQaM7FUHbRqXB2+24QC1EF0EYd6XBl6IWQXxa/0AyTZfBpKCOQDPgA0GPyJfB
BqABQc7T2UA2QonBck7dQA9y4T+uw6zBZ6liQPTMN78gdaTBaDXnQOW6IcB09q7B9bu7QGXxBUHH
lFPBSVKVQHuV4kC0HlnBVROCQFCXE0GtOWvBIWi0QIEzE0ElGnnBtPPrQJ0R70AgXW/BKd7eQP8s
xkAgQVzByT5cQC9l4kBe6nvBNh90QHsKBUFo6ofBNvjcQGJXrUCzR4HBn3erQBg6pkA0ZHTBaDv7
QAFC2rwVzYXB/2/KQKRf+T4Q1H7BjvHIQCV5NL9rKIrB5IeIQHh5I0CruavBLXxXQG7DyD9nG6LB
Vz+rQDdEekAnrojBvD/DQLhhmUDUqZPBm/bBQNF4PkAN0p7BMvlYQHQjWEDqX5PB1bySQFzdmj8g
WY/BGbBrQM6nr0D63IfB6iODQAYqxkC+LJPBHYNXQEeIhEBaFKXB

>  <OMEGA_E>  (85) 
qKGPPiT4kj4=

>  <OMEGA_NBR>  (85) 
     64290

$$$$
50167977
     RDKit          3D

 73 75  0  0  1  0  0  0  0  0999 V2000
    5.8288    7.8697  -18.9568 C   0  0  0  0  0  0  0  0  0  0  0  0
    7.6431    7.0440  -17.5643 C   0  0  0  0  0  0  0  0  0  0  0  0
    8.1364    8.2417  -19.6288 C   0  0  0  0  0  0  0  0  0  0  0  0
    6.3758    0.8031  -21.5739 C   0  0  0  0  0  0  0  0  0  0  0  0
    4.5908   -0.6522  -20.7564 C   0  0  0  0  0  0  0  0  0  0  0  0
    6.6583   -1.6176  -21.6188 C   0  0  0  0  0  0  0  0  0  0  0  0
    6.2539    7.2270  -17.7723 C   0  0  0  0  0  0  0  0  0  0  0  0
    6.7531    8.4245  -19.8706 C   0  0  0  0  0  0  0  0  0  0  0  0
    5.0929    0.6399  -21.0070 C   0  0  0  0  0  0  0  0  0  0  0  0
    8.5732    7.5515  -18.4861 C   0  0  0  0  0  0  0  0  0  0  0  0
    7.1621   -0.3251  -21.8673 C   0  0  0  0  0  0  0  0  0  0  0  0
    5.3697   -1.7796  -21.0704 C   0  0  0  0  0  0  0  0  0  0  0  0
    6.7963    1.4488  -18.0606 C   0  0  0  0  0  0  0  0  0  0  0  0
    5.3503    8.1443  -14.1728 C   0  0  0  0  0  0  0  0  0  0  0  0
    4.8497    8.8381  -15.4498 C   0  0  0  0  0  0  0  0  0  0  0  0
    6.3549    7.0308  -14.5053 C   0  0  0  0  0  0  0  0  0  0  0  0
    4.1940    7.8148  -16.3825 C   0  0  0  0  0  0  0  0  0  0  0  0
    5.7552    6.0134  -15.5006 C   0  0  0  0  0  0  0  0  0  0  0  0
    5.1828    6.6888  -16.7915 C   0  0  0  0  0  0  0  0  0  0  0  0
    7.0707    0.4606  -16.9315 C   0  0  0  0  0  0  0  0  0  0  0  0
    5.0149   10.0217  -20.8364 C   0  0  0  0  0  0  0  0  0  0  0  0
    5.8213    8.0269  -22.1632 C   0  0  0  0  0  0  0  0  0  0  0  0
    7.3194   10.0200  -21.8065 C   0  0  0  0  0  0  0  0  0  0  0  0
    4.2978    1.8472  -20.5783 C   0  0  0  0  0  0  0  0  0  0  0  0
    5.0798    4.5082  -17.9227 C   0  0  0  0  0  0  0  0  0  0  0  0
    5.0823    2.6239  -19.5037 C   0  0  1  0  0  0  0  0  0  0  0  0
    4.2361    3.7559  -18.9377 C   0  0  2  0  0  0  0  0  0  0  0  0
    6.2399    9.1165  -21.1502 C   0  0  0  0  0  0  0  0  0  0  0  0
    5.4766    1.7175  -18.4066 N   0  0  0  0  0  0  0  0  0  0  0  0
    4.3545    5.7077  -17.5071 N   0  0  0  0  0  0  0  0  0  0  0  0
    7.7305    2.0598  -18.5689 O   0  0  0  0  0  0  0  0  0  0  0  0
    3.8598    4.6396  -19.9947 O   0  0  0  0  0  0  0  0  0  0  0  0
    9.8957    7.3638  -18.2788 F   0  0  0  0  0  0  0  0  0  0  0  0
    8.4041   -0.1668  -22.3774 F   0  0  0  0  0  0  0  0  0  0  0  0
    4.8845   -3.0179  -20.8307 F   0  0  0  0  0  0  0  0  0  0  0  0
    4.7721    7.9387  -19.1688 H   0  0  0  0  0  0  0  0  0  0  0  0
    7.9892    6.5108  -16.6912 H   0  0  0  0  0  0  0  0  0  0  0  0
    8.8600    8.6355  -20.3272 H   0  0  0  0  0  0  0  0  0  0  0  0
    6.7528    1.7935  -21.7819 H   0  0  0  0  0  0  0  0  0  0  0  0
    3.6092   -0.7765  -20.3236 H   0  0  0  0  0  0  0  0  0  0  0  0
    7.2598   -2.4846  -21.8486 H   0  0  0  0  0  0  0  0  0  0  0  0
    5.8398    8.8889  -13.5278 H   0  0  0  0  0  0  0  0  0  0  0  0
    4.4921    7.7069  -13.6416 H   0  0  0  0  0  0  0  0  0  0  0  0
    4.1129    9.6090  -15.1800 H   0  0  0  0  0  0  0  0  0  0  0  0
    5.7000    9.3081  -15.9656 H   0  0  0  0  0  0  0  0  0  0  0  0
    7.2542    7.4809  -14.9511 H   0  0  0  0  0  0  0  0  0  0  0  0
    6.6286    6.5064  -13.5780 H   0  0  0  0  0  0  0  0  0  0  0  0
    3.3338    7.3631  -15.8668 H   0  0  0  0  0  0  0  0  0  0  0  0
    3.8476    8.3312  -17.2900 H   0  0  0  0  0  0  0  0  0  0  0  0
    6.5430    5.3046  -15.7953 H   0  0  0  0  0  0  0  0  0  0  0  0
    4.9415    5.4694  -14.9988 H   0  0  0  0  0  0  0  0  0  0  0  0
    8.1497    0.4361  -16.7191 H   0  0  0  0  0  0  0  0  0  0  0  0
    6.5265    0.7751  -16.0288 H   0  0  0  0  0  0  0  0  0  0  0  0
    6.7335   -0.5424  -17.2321 H   0  0  0  0  0  0  0  0  0  0  0  0
    4.6675   10.5034  -21.7623 H   0  0  0  0  0  0  0  0  0  0  0  0
    4.2043    9.4086  -20.4158 H   0  0  0  0  0  0  0  0  0  0  0  0
    5.3063   10.7935  -20.1088 H   0  0  0  0  0  0  0  0  0  0  0  0
    5.4521    8.5034  -23.0833 H   0  0  0  0  0  0  0  0  0  0  0  0
    6.6893    7.3944  -22.4008 H   0  0  0  0  0  0  0  0  0  0  0  0
    5.0245    7.4070  -21.7263 H   0  0  0  0  0  0  0  0  0  0  0  0
    6.9054   10.4886  -22.7115 H   0  0  0  0  0  0  0  0  0  0  0  0
    7.6244   10.8021  -21.0956 H   0  0  0  0  0  0  0  0  0  0  0  0
    8.1935    9.4094  -22.0770 H   0  0  0  0  0  0  0  0  0  0  0  0
    4.1232    2.4986  -21.4473 H   0  0  0  0  0  0  0  0  0  0  0  0
    3.3322    1.5220  -20.1639 H   0  0  0  0  0  0  0  0  0  0  0  0
    5.2664    3.8670  -17.0486 H   0  0  0  0  0  0  0  0  0  0  0  0
    6.0390    4.7949  -18.3785 H   0  0  0  0  0  0  0  0  0  0  0  0
    5.9835    3.0516  -19.9673 H   0  0  0  0  0  0  0  0  0  0  0  0
    3.3479    3.3381  -18.4412 H   0  0  0  0  0  0  0  0  0  0  0  0
    4.7521    1.2706  -17.8818 H   0  0  0  0  0  0  0  0  0  0  0  0
    3.6057    5.4298  -16.9054 H   0  0  0  0  0  0  0  0  0  0  0  0
    3.9804    6.1477  -18.3234 H   0  0  0  0  0  0  0  0  0  0  0  0
    3.3323    4.1686  -20.6291 H   0  0  0  0  0  0  0  0  0  0  0  0
  1  7  2  0
  1  8  1  0
  2  7  1  0
  2 10  2  0
  3  8  2  0
  3 10  1  0
  4  9  2  0
  4 11  1  0
  5  9  1  0
  5 12  2  0
  6 11  2  0
  6 12  1  0
  7 19  1  0
  8 28  1  0
  9 24  1  0
 10 33  1  0
 11 34  1  0
 12 35  1  0
 13 20  1  0
 13 29  1  0
 13 31  2  0
 14 15  1  0
 14 16  1  0
 15 17  1  0
 16 18  1  0
 17 19  1  0
 18 19  1  0
 19 30  1  0
 21 28  1  0
 22 28  1  0
 23 28  1  0
 24 26  1  0
 25 27  1  0
 25 30  1  0
 26 27  1  0
 26 29  1  0
 27 32  1  0
  1 36  1  0
  2 37  1  0
  3 38  1  0
  4 39  1  0
  5 40  1  0
  6 41  1  0
 14 42  1  0
 14 43  1  0
 15 44  1  0
 15 45  1  0
 16 46  1  0
 16 47  1  0
 17 48  1  0
 17 49  1  0
 18 50  1  0
 18 51  1  0
 20 52  1  0
 20 53  1  0
 20 54  1  0
 21 55  1  0
 21 56  1  0
 21 57  1  0
 22 58  1  0
 22 59  1  0
 22 60  1  0
 23 61  1  0
 23 62  1  0
 23 63  1  0
 24 64  1  0
 24 65  1  0
 25 66  1  0
 25 67  1  0
 26 68  1  6
 27 69  1  1
 29 70  1  0
 30 71  1  0
 30 72  1  0
 32 73  1  0
M  CHG  1  30   1
M  END
>  <OMEGA_C>  (86) 
foW6QPvU+0CBp5fBD5T0QI5o4UCWg4zBsC4CQS7eA0G8B53BtwbMQM+VTT9Tl6zBBuiSQMv0Jr8H
DabBaxDVQDgMz79E86zB5B/IQJhD50CULY7BRBnYQNfKBkEJ957BqfiiQILRIz9jDqjBuSsJQTum
8UCP45PB/y/lQMRypr438K7BVNSrQELL479IkKjBcXvZQCRyuT8hfJDBhDWrQD5PAkGXw2LBpjCb
QLloDUE6MnfBtVvLQLP84EDWFWjB8TSGQBwT+kBrD4PB3iq4QCJuwECOAnjBhdmlQGwK1kD3VIbB
TEPiQLzO6z6xc4fBWnqgQAdZIEHzsKbB7Ee6QDpuAEErTrHB5DjqQBRSIEG+c67B1YeJQGRw7D9p
oKTB+Y2iQM9CkECtYY/BN6KiQEHuJ0CPB5zBT46HQBFgcEBbgJfBYK3HQEbdEUGcM6nBGkCvQGjV
2z/BQJPBSliLQFKltkB7DozBk2D3QIrUA0AvjZTBNAd3QDt3lEAs9Z/B7lQeQaCk60DlOpLBB3cG
QaDQKr79BLPB4E2cQCklQcBQpabBuLSYQJYJ/kDDWZnBmqf/QHVY0ECEh4XBY8INQeQqCkEsnqLB
AxfYQD+S5T9YQa7BifxmQM7FRr+ylqLBTFDoQF0DH8Dvya7B39+6QBw5DkEAcljB776PQOie9kAg
RFrBnJyDQGq+GUFB4XLBNGa2QN7tFEEqc3/BlyLoQMZj70DHN2/B3x3UQCc00EBYP1nBl1xVQG2e
60BK3n3BHz92QHlMBUHWUYrBpGDRQOe+qUB5uXzBaSCeQKoFr0AT+2/BVGUCQTdD3z65wIXBLdnQ
QDptRj/rOoDBfHjXQITYCr9u24nBg1yVQAEOKEE0Ga7BjImGQLCJFkF7U6PBYs2pQD2yLEHC3qDB
jHeuQMoNCEGnqrjB1g7WQPee7EDKNLPBucigQCIG7UB2z63B9/jcQEDRJ0EusbXBcPvzQG/VLEHf
w6jBYBgDQb6MFkHInbDBWPGDQH7pH0AUlKvBKkJVQOTPwj+6T6HBtYaoQJh8d0B/Y4jBWT/BQPdv
mUA/B5PB93i/QMFMQ0AIvZ/BzkNWQG+jVUCEh5PB0xCYQIWkoj/tDY/BwMNmQMnArUA6PofBWb9+
QPy5xEBflpLB5UNVQGRlhUBbCKXBFz+6QJKL+0B2spfBB6/0QCqL4UBLnozB5e8BQXkCBEFPKJ3B
n3STQKWEKL+C+qXBaCfMQEPUTT+DpKzBKY7VQCbMzr9P+6zBsSrIQI385kDcP47BNYnXQPvHBkHR
CJ/BgTyjQFbEIj/tC6jBeBgJQesU8kBEBpTBpnusQDEx5L+fg6jByWvlQORlpL4CBK/Ba+zYQG6W
vj/CA5DByZasQHqkAUE2d2LBPFydQFk0DUHJx3bByA/MQFI230Ci/mfBGliHQIKJ+kBn6YLBiH64
QMuGv0D5OXjBQxKmQC7u1UA0VobBKeThQJKAzD7+w4fB/EOfQE4fIEEOo6bB3ZO5QGByAEGCWrHB
P+PoQP6SIEGudq7BYKGJQLWU6z9AoaTB/5qhQC/9j0CsSI/BBHuiQCKXJ0Ap/5vBO0GHQE6EcEDB
l5fBULvGQITfEUEwOanBstauQKHn2j/0MZPBWPWKQIH1tkAgEozBDQT3QDcXA0Ayc5TB8eR4QKHJ
lEDVGaDBb00eQbyf7EBzZJLBHTOdQAd3QcB7jabB+YIGQQmPIb7cKrPBC2KYQMyI/UCOWZnB4wEA
QT2W0ECgpIXBlGkNQeddCkH3x6LBD1poQMxOSb9Gc6LBTQnYQMnf5T+MVa7BleDoQNm6HsDV2K7B
XJa8QAY6DUEK51fBArqQQGCU9UAALVrBcpeGQPHgGUG0XHLBaA25QDBZFEFr937BpzHpQMFI7UDE
7W7Bu1HUQMLKzUDYRFnBVDBXQFSM7EC9jn3BiOt4QCjUBUFqGorBS4TRQMneqEB1N33BIWqeQML5
rUCoTnDBmlQCQYjchj4q7obB7zbUQGCmMT/DAYDBjUDTQLxvC79paYrB69+TQI3ZJ0FAA67Bn5WF
QMwjFkE0RqPB42qoQNd0LEGNyqDBGH2tQD8TCEF/r7jBM4nVQH777EAFTrPBgligQIG57EBo263B
y1/bQBsUKEHMq7XBvHTyQJMTLUEWwKjBhYQCQdb6FkHgrbDBmBuEQECFH0DblKvBSmZVQBiEwT+E
WqHBnWKmQE65dkADQYjBrN7AQFiNmEDJtpLB9Ha/QC69QkDtqJ/BC5JUQLQ4VkCe05PBCZaXQFnu
nD+8S4/BSFdlQDKwrkA/SofBaPZ+QGodxUCQpZLB5uxXQOD5hUCmTaXB

>  <OMEGA_E>  (86) 
wMUPPcAPEz0=

>  <OMEGA_NBR>  (86) 
     66921

$$$$
50167978
     RDKit          3D

 74 76  0  0  1  0  0  0  0  0999 V2000
    5.8163    7.8911  -18.9552 C   0  0  0  0  0  0  0  0  0  0  0  0
    7.6149    6.9927  -17.5854 C   0  0  0  0  0  0  0  0  0  0  0  0
    8.1316    8.2189  -19.6234 C   0  0  0  0  0  0  0  0  0  0  0  0
    6.4021    0.8022  -21.5767 C   0  0  0  0  0  0  0  0  0  0  0  0
    4.6078   -0.6428  -20.7615 C   0  0  0  0  0  0  0  0  0  0  0  0
    6.6702   -1.6205  -21.6206 C   0  0  0  0  0  0  0  0  0  0  0  0
    6.2324    7.2184  -17.7808 C   0  0  0  0  0  0  0  0  0  0  0  0
    6.7550    8.4347  -19.8650 C   0  0  0  0  0  0  0  0  0  0  0  0
    5.1174    0.6461  -21.0129 C   0  0  0  0  0  0  0  0  0  0  0  0
    8.5520    7.5013  -18.4948 C   0  0  0  0  0  0  0  0  0  0  0  0
    7.1814   -0.3309  -21.8702 C   0  0  0  0  0  0  0  0  0  0  0  0
    5.3812   -1.7748  -21.0712 C   0  0  0  0  0  0  0  0  0  0  0  0
    6.8107    1.4907  -18.0228 C   0  0  0  0  0  0  0  0  0  0  0  0
    5.4294    8.1762  -14.1925 C   0  0  0  0  0  0  0  0  0  0  0  0
    4.9118    8.8596  -15.4692 C   0  0  0  0  0  0  0  0  0  0  0  0
    6.3914    7.0266  -14.5269 C   0  0  0  0  0  0  0  0  0  0  0  0
    4.2055    7.8359  -16.3686 C   0  0  0  0  0  0  0  0  0  0  0  0
    5.7427    6.0161  -15.5005 C   0  0  0  0  0  0  0  0  0  0  0  0
    5.1654    6.6925  -16.7916 C   0  0  0  0  0  0  0  0  0  0  0  0
    7.0887    0.3806  -17.0131 C   0  0  0  0  0  0  0  0  0  0  0  0
    5.0404   10.0414  -20.8575 C   0  0  0  0  0  0  0  0  0  0  0  0
    5.8946    8.0682  -22.1885 C   0  0  0  0  0  0  0  0  0  0  0  0
    7.3708   10.0640  -21.7579 C   0  0  0  0  0  0  0  0  0  0  0  0
    4.3262    1.8571  -20.5900 C   0  0  0  0  0  0  0  0  0  0  0  0
    5.0665    4.5175  -17.9280 C   0  0  0  0  0  0  0  0  0  0  0  0
    5.0988    2.6310  -19.5044 C   0  0  1  0  0  0  0  0  0  0  0  0
    4.2310    3.7470  -18.9333 C   0  0  2  0  0  0  0  0  0  0  0  0
    6.2753    9.1449  -21.1475 C   0  0  0  0  0  0  0  0  0  0  0  0
    5.4949    1.7167  -18.4134 N   0  0  0  0  0  0  0  0  0  0  0  0
    4.3322    5.7120  -17.5031 N   0  0  0  0  0  0  0  0  0  0  0  0
    7.7504    2.0583  -18.5700 O   0  0  0  0  0  0  0  0  0  0  0  0
    9.8752    7.2888  -18.2877 O   0  0  0  0  0  0  0  0  0  0  0  0
    3.8234    4.6213  -19.9861 O   0  0  0  0  0  0  0  0  0  0  0  0
    8.4240   -0.1802  -22.3808 F   0  0  0  0  0  0  0  0  0  0  0  0
    4.8903   -3.0098  -20.8260 F   0  0  0  0  0  0  0  0  0  0  0  0
    4.7609    7.9917  -19.1611 H   0  0  0  0  0  0  0  0  0  0  0  0
    7.9504    6.4250  -16.7302 H   0  0  0  0  0  0  0  0  0  0  0  0
    8.8645    8.6099  -20.3136 H   0  0  0  0  0  0  0  0  0  0  0  0
    6.7859    1.7905  -21.7825 H   0  0  0  0  0  0  0  0  0  0  0  0
    3.6242   -0.7610  -20.3313 H   0  0  0  0  0  0  0  0  0  0  0  0
    7.2666   -2.4911  -21.8505 H   0  0  0  0  0  0  0  0  0  0  0  0
    5.9585    8.9190  -13.5775 H   0  0  0  0  0  0  0  0  0  0  0  0
    4.5742    7.7754  -13.6286 H   0  0  0  0  0  0  0  0  0  0  0  0
    4.2014    9.6531  -15.1943 H   0  0  0  0  0  0  0  0  0  0  0  0
    5.7595    9.2994  -16.0152 H   0  0  0  0  0  0  0  0  0  0  0  0
    7.2974    7.4417  -14.9925 H   0  0  0  0  0  0  0  0  0  0  0  0
    6.6629    6.5049  -13.5974 H   0  0  0  0  0  0  0  0  0  0  0  0
    3.3556    7.4043  -15.8197 H   0  0  0  0  0  0  0  0  0  0  0  0
    3.8381    8.3464  -17.2710 H   0  0  0  0  0  0  0  0  0  0  0  0
    6.5037    5.2807  -15.8006 H   0  0  0  0  0  0  0  0  0  0  0  0
    4.9226    5.5025  -14.9774 H   0  0  0  0  0  0  0  0  0  0  0  0
    8.1750    0.2383  -16.9137 H   0  0  0  0  0  0  0  0  0  0  0  0
    6.6646    0.6584  -16.0369 H   0  0  0  0  0  0  0  0  0  0  0  0
    6.6267   -0.5552  -17.3607 H   0  0  0  0  0  0  0  0  0  0  0  0
    4.7189   10.5353  -21.7863 H   0  0  0  0  0  0  0  0  0  0  0  0
    4.2195    9.4204  -20.4695 H   0  0  0  0  0  0  0  0  0  0  0  0
    5.3080   10.8036  -20.1108 H   0  0  0  0  0  0  0  0  0  0  0  0
    5.5493    8.5561  -23.1119 H   0  0  0  0  0  0  0  0  0  0  0  0
    6.7738    7.4452  -22.4097 H   0  0  0  0  0  0  0  0  0  0  0  0
    5.0897    7.4363  -21.7847 H   0  0  0  0  0  0  0  0  0  0  0  0
    6.9813   10.5457  -22.6670 H   0  0  0  0  0  0  0  0  0  0  0  0
    7.6516   10.8356  -21.0259 H   0  0  0  0  0  0  0  0  0  0  0  0
    8.2549    9.4612  -22.0127 H   0  0  0  0  0  0  0  0  0  0  0  0
    4.1654    2.5106  -21.4601 H   0  0  0  0  0  0  0  0  0  0  0  0
    3.3539    1.5361  -20.1879 H   0  0  0  0  0  0  0  0  0  0  0  0
    5.2698    3.8808  -17.0543 H   0  0  0  0  0  0  0  0  0  0  0  0
    6.0175    4.8167  -18.3929 H   0  0  0  0  0  0  0  0  0  0  0  0
    5.9974    3.0741  -19.9584 H   0  0  0  0  0  0  0  0  0  0  0  0
    3.3575    3.3096  -18.4278 H   0  0  0  0  0  0  0  0  0  0  0  0
    4.7712    1.2294  -17.9249 H   0  0  0  0  0  0  0  0  0  0  0  0
    3.5902    5.4277  -16.8959 H   0  0  0  0  0  0  0  0  0  0  0  0
    3.9485    6.1527  -18.3146 H   0  0  0  0  0  0  0  0  0  0  0  0
   10.3746    7.6938  -18.9870 H   0  0  0  0  0  0  0  0  0  0  0  0
    3.3004    4.1381  -20.6150 H   0  0  0  0  0  0  0  0  0  0  0  0
  1  7  2  0
  1  8  1  0
  2  7  1  0
  2 10  2  0
  3  8  2  0
  3 10  1  0
  4  9  2  0
  4 11  1  0
  5  9  1  0
  5 12  2  0
  6 11  2  0
  6 12  1  0
  7 19  1  0
  8 28  1  0
  9 24  1  0
 10 32  1  0
 11 34  1  0
 12 35  1  0
 13 20  1  0
 13 29  1  0
 13 31  2  0
 14 15  1  0
 14 16  1  0
 15 17  1  0
 16 18  1  0
 17 19  1  0
 18 19  1  0
 19 30  1  0
 21 28  1  0
 22 28  1  0
 23 28  1  0
 24 26  1  0
 25 27  1  0
 25 30  1  0
 26 27  1  0
 26 29  1  0
 27 33  1  0
  1 36  1  0
  2 37  1  0
  3 38  1  0
  4 39  1  0
  5 40  1  0
  6 41  1  0
 14 42  1  0
 14 43  1  0
 15 44  1  0
 15 45  1  0
 16 46  1  0
 16 47  1  0
 17 48  1  0
 17 49  1  0
 18 50  1  0
 18 51  1  0
 20 52  1  0
 20 53  1  0
 20 54  1  0
 21 55  1  0
 21 56  1  0
 21 57  1  0
 22 58  1  0
 22 59  1  0
 22 60  1  0
 23 61  1  0
 23 62  1  0
 23 63  1  0
 24 64  1  0
 24 65  1  0
 25 66  1  0
 25 67  1  0
 26 68  1  6
 27 69  1  1
 29 70  1  0
 30 71  1  0
 30 72  1  0
 32 73  1  0
 33 74  1  0
M  CHG  1  30   1
M  END
>  <OMEGA_C>  (87) 
KR+6QAmE/EAwpJfBJa3zQGDE30D/rozB+BoCQbyAA0HL/JzB+N3MQHteTT8unazBuXKTQMWMJL90
F6bBfXLVQOdrz78A96zB5m/HQO/85kAjP47BBSnYQIH0BkGH657Bn8GjQEdpJT9vGqjB59QIQbIK
8EBL9ZPBC87lQEJtqb4c9q7BkjKsQPUt47/NkajBQPHZQB7Qvj+vLpDBZb2tQJvRAkGjFGPB3S2d
QN3ADUH2gXfBFobMQE3a4EA3bmjB3ZOGQJS/+kDf8oLBTMS3QBWEwEAWAnjBuUqlQNko1kBCVYbB
8NbiQNDiwj7OGojB3kqhQLmpIEEZ3KbBUaC8QEUXAUH4gbHBR93rQFcGIUFHEK7B9G+KQPaz7T9a
uKTBuyCiQEGPkECbbI/BPymjQH5hKEAECZzBrWSHQHbPb0Bzd5fB4M7IQHFREkEJLqnBodavQEO8
2z+5TpPBkKGKQI3ItkBRBozBYgP4QJi7A0Bmj5TBqwAeQX096UBOTZLBMLJ0QOThk0CQ45/B0cgG
QSOIOL7MC7PBDn2cQAqgQMCfm6bBXFmYQPO7/0AFSpnBo2n+QECZzUBq14XBMdUNQSbCCUE4gqLB
OCbZQDQw5T+DQq7BwvJnQFHPQr9/pqLBxIfoQL1tH8DEza7Bs6u+QFi0DkGWPVnBs1+SQEHQ+ECm
DlrBC3KGQCpzGkG7G3PBvU24QDLKFEEpH4DBkoTpQF0i7kBP4W/BaDbVQNIn0EDjjlnBX8FWQArw
7ECkHX3BG6R1QLqKBUEXK4rBaR7QQJL7qEAyz3zBJYadQHkUsEBqo2/BmswCQQkGdD45T4fBfkTV
QPGNKD+PS4DBPA7UQEUfDr+14orBmQGXQKuQKEFfSq7BYwaHQOe5FkGfwaPBP9upQF3bLEHf4qDB
f5OxQLTlCEEk5bjBmMLYQFU/7kAqR7PBIN+iQHb27UAWR67BbWbfQDq7KEHqVbXBy9n0QIdeLUER
NajB9RMEQflgF0H8GbDB1EqFQI+tIEBGrqvBlqZWQEiexD/KgKHBBKKoQJVfeEBFb4jBK4/AQCAi
mkC2JJPBx+q/QDa+REC9qp/BL+FWQBrRU0ALbJPBna2YQERcnT8cZo/BksZlQOSvrUDQKofB7bR8
QMXixEBShJLBd/4lQYIz9kBs5ZfBpTlTQGdrhECE66TBRR66QF8y/ED2oZfB28LzQPJP4ECukIzB
vxMCQW9KA0EsBp3BKK+TQNoPJr8YO6bBJB7NQCpATj/Am6zB1rbVQJDqzr+NLq3BV4LHQB4s50CG
LY7BfBLYQFSuBkF89J7BcvqjQPDCJD8nHajB0dcIQQwu8ED46JPB93GsQGV447/G0KjBNRTmQG0S
pr7cDa/Bi9jZQLh/uD9Dh5DBmHutQMLNAkGg2WLBuZqdQG7fDUEBVXfB/TjMQD+/4ED4H2jB6dqG
QDg4+0Dl54LBpbS3QJOdwECh5HfBf1+lQGxr1kBwRYbBqVriQPPu1z5ps4fBANehQHrYIEGEwqbB
nNq6QF29AEH0YLHBLNHrQLgqIEHjVq7BUXOKQEji7D9DsKTBVqiiQNItkUBalo/BfC6jQP5xKEA7
C5zBkJ6HQCtjcEAEg5fBNX3IQDX9EUFkNKnBwq+vQGio3D+7RJPBH86KQA/6tkCW/YvBw+D3QOWw
A0C9epTBIwUeQX6S6UCTOZLBXZ10QGbek0AV95/Bgb2cQKn2QMBm+qbB+u0GQXoSLb7sHrPBlFWY
QJcy/0CmSpnBh4/+QL29zkDioYXBMccNQfReCUGkm6LBqGhoQO65Rb8nzqLBp2bZQLDp5T+GKq7B
wc7oQA0BH8AJGK/Bj0O+QNCXDkHf1FjBh9GRQMTQ+ECgC1rBmx2HQDu2GkFtCHPBSBC5QOe8FEEa
8X/Bq23pQIv87UBOYm/Bd4XUQO7gz0DBPlnBzO9WQNqV7UBLG33Ba7d2QPjZBUFxIYrBtCzQQMM2
qUDatHzB3mqdQOz+r0CMpm/BL3ACQf+fwz4KA4bBFwrRQKXDNz8WaoDBQUXXQP/tEb9yT4rBVlGX
QHa3KEGdLa7BQ2CHQJ1IF0HGeKPBYnWrQBMOLUE/5aDBRJ+vQHCFCEFrwbjBslzWQADM7EDAObPB
NN+gQMYG7kAn+a3BvCbfQKrZJ0GFmLXBK9L1QDuJLEG1majBNr8DQREmFkFedLDBlPqEQJUmIEAG
pavBs/1WQO3pwj//a6HBSSqqQEKPeUBoqojBMJDAQI5cm0Dpd5PBdwPAQARbREBPsZ/B8pVXQKbQ
VEBXXpPB1WuYQAqOpD9jCo/BstJmQNlUrUDuF4fBsBV8QBZBxUBeZpLBDwAmQekx9kAI35fBM8ZS
QEc9hEDI7KTB

>  <OMEGA_E>  (87) 
sFhPPlDWTz4=

>  <OMEGA_NBR>  (87) 
     69580

$$$$
50167980
     RDKit          3D

 70 72  0  0  1  0  0  0  0  0999 V2000
    4.5834   -0.6378  -20.7829 C   0  0  0  0  0  0  0  0  0  0  0  0
    6.3779    0.8145  -21.5845 C   0  0  0  0  0  0  0  0  0  0  0  0
    6.6551   -1.6066  -21.6306 C   0  0  0  0  0  0  0  0  0  0  0  0
    7.5830    7.3885  -18.1068 C   0  0  0  0  0  0  0  0  0  0  0  0
    5.5637    7.9005  -19.0436 C   0  0  0  0  0  0  0  0  0  0  0  0
    6.1040    7.3262  -17.9314 C   0  0  0  0  0  0  0  0  0  0  0  0
    5.0904    0.6532  -21.0270 C   0  0  0  0  0  0  0  0  0  0  0  0
    5.3614   -1.7664  -21.0936 C   0  0  0  0  0  0  0  0  0  0  0  0
    7.1642   -0.3150  -21.8726 C   0  0  0  0  0  0  0  0  0  0  0  0
    6.7973    1.5047  -18.0106 C   0  0  0  0  0  0  0  0  0  0  0  0
    5.4715    8.1581  -14.2502 C   0  0  0  0  0  0  0  0  0  0  0  0
    4.8090    8.8199  -15.4662 C   0  0  0  0  0  0  0  0  0  0  0  0
    6.5677    7.1733  -14.6975 C   0  0  0  0  0  0  0  0  0  0  0  0
    4.1771    7.7449  -16.3493 C   0  0  0  0  0  0  0  0  0  0  0  0
    6.0170    6.0981  -15.6519 C   0  0  0  0  0  0  0  0  0  0  0  0
    5.2207    6.7073  -16.8434 C   0  0  0  0  0  0  0  0  0  0  0  0
    7.0837    0.4261  -16.9711 C   0  0  0  0  0  0  0  0  0  0  0  0
    5.2202   10.0557  -20.9534 C   0  0  0  0  0  0  0  0  0  0  0  0
    6.1222    8.0337  -22.1715 C   0  0  0  0  0  0  0  0  0  0  0  0
    7.6675    9.8998  -21.4570 C   0  0  0  0  0  0  0  0  0  0  0  0
    4.2997    1.8603  -20.5902 C   0  0  0  0  0  0  0  0  0  0  0  0
    5.1284    4.5032  -17.9313 C   0  0  0  0  0  0  0  0  0  0  0  0
    5.0900    2.6199  -19.5084 C   0  0  1  0  0  0  0  0  0  0  0  0
    4.2564    3.7494  -18.9227 C   0  0  2  0  0  0  0  0  0  0  0  0
    6.4208    9.0728  -21.0675 C   0  0  0  0  0  0  0  0  0  0  0  0
    7.8455    8.0238  -19.2348 N   0  0  0  0  0  0  0  0  0  0  0  0
    6.6306    8.3564  -19.7643 N   0  0  0  0  0  0  0  0  0  0  0  0
    5.4838    1.6979  -18.4239 N   0  0  0  0  0  0  0  0  0  0  0  0
    4.3883    5.6704  -17.4681 N   0  0  0  0  0  0  0  0  0  0  0  0
    7.7330    2.0793  -18.5573 O   0  0  0  0  0  0  0  0  0  0  0  0
    3.8506    4.6343  -19.9684 O   0  0  0  0  0  0  0  0  0  0  0  0
    4.8705   -3.0036  -20.8607 F   0  0  0  0  0  0  0  0  0  0  0  0
    8.4113   -0.1587  -22.3707 F   0  0  0  0  0  0  0  0  0  0  0  0
    3.5983   -0.7605  -20.3575 H   0  0  0  0  0  0  0  0  0  0  0  0
    6.7582    1.8044  -21.7892 H   0  0  0  0  0  0  0  0  0  0  0  0
    7.2565   -2.4748  -21.8566 H   0  0  0  0  0  0  0  0  0  0  0  0
    8.3166    6.9825  -17.4260 H   0  0  0  0  0  0  0  0  0  0  0  0
    4.5174    7.9781  -19.2997 H   0  0  0  0  0  0  0  0  0  0  0  0
    5.9216    8.9360  -13.6161 H   0  0  0  0  0  0  0  0  0  0  0  0
    4.7085    7.6126  -13.6755 H   0  0  0  0  0  0  0  0  0  0  0  0
    4.0307    9.5183  -15.1249 H   0  0  0  0  0  0  0  0  0  0  0  0
    5.5674    9.3694  -16.0432 H   0  0  0  0  0  0  0  0  0  0  0  0
    7.3611    7.7342  -15.2131 H   0  0  0  0  0  0  0  0  0  0  0  0
    6.9865    6.6792  -13.8084 H   0  0  0  0  0  0  0  0  0  0  0  0
    3.4024    7.2207  -15.7705 H   0  0  0  0  0  0  0  0  0  0  0  0
    3.7171    8.2291  -17.2233 H   0  0  0  0  0  0  0  0  0  0  0  0
    6.8607    5.5168  -16.0524 H   0  0  0  0  0  0  0  0  0  0  0  0
    5.3493    5.4325  -15.0853 H   0  0  0  0  0  0  0  0  0  0  0  0
    8.1711    0.3100  -16.8525 H   0  0  0  0  0  0  0  0  0  0  0  0
    6.6390    0.7177  -16.0082 H   0  0  0  0  0  0  0  0  0  0  0  0
    6.6472   -0.5276  -17.3027 H   0  0  0  0  0  0  0  0  0  0  0  0
    5.4268   10.7982  -20.1686 H   0  0  0  0  0  0  0  0  0  0  0  0
    5.0746   10.5695  -21.9151 H   0  0  0  0  0  0  0  0  0  0  0  0
    4.3100    9.4941  -20.6962 H   0  0  0  0  0  0  0  0  0  0  0  0
    6.9679    7.3355  -22.2571 H   0  0  0  0  0  0  0  0  0  0  0  0
    5.2106    7.4753  -21.9125 H   0  0  0  0  0  0  0  0  0  0  0  0
    5.9752    8.5507  -23.1313 H   0  0  0  0  0  0  0  0  0  0  0  0
    8.5376    9.2327  -21.5463 H   0  0  0  0  0  0  0  0  0  0  0  0
    7.4891   10.4003  -22.4202 H   0  0  0  0  0  0  0  0  0  0  0  0
    7.8630   10.6554  -20.6819 H   0  0  0  0  0  0  0  0  0  0  0  0
    4.1299    2.5207  -21.4534 H   0  0  0  0  0  0  0  0  0  0  0  0
    3.3318    1.5371  -20.1797 H   0  0  0  0  0  0  0  0  0  0  0  0
    5.3694    3.8525  -17.0778 H   0  0  0  0  0  0  0  0  0  0  0  0
    6.0591    4.8234  -18.4226 H   0  0  0  0  0  0  0  0  0  0  0  0
    5.9924    3.0477  -19.9695 H   0  0  0  0  0  0  0  0  0  0  0  0
    3.3827    3.3309  -18.4016 H   0  0  0  0  0  0  0  0  0  0  0  0
    4.7636    1.1823  -17.9598 H   0  0  0  0  0  0  0  0  0  0  0  0
    3.7119    5.3660  -16.7975 H   0  0  0  0  0  0  0  0  0  0  0  0
    3.9203    6.0759  -18.2533 H   0  0  0  0  0  0  0  0  0  0  0  0
    3.3056    4.1638  -20.5882 H   0  0  0  0  0  0  0  0  0  0  0  0
  1  7  2  0
  1  8  1  0
  2  7  1  0
  2  9  2  0
  3  8  2  0
  3  9  1  0
  4  6  1  0
  4 26  2  0
  5  6  2  0
  5 27  1  0
  6 16  1  0
  7 21  1  0
  8 32  1  0
  9 33  1  0
 10 17  1  0
 10 28  1  0
 10 30  2  0
 11 12  1  0
 11 13  1  0
 12 14  1  0
 13 15  1  0
 14 16  1  0
 15 16  1  0
 16 29  1  0
 18 25  1  0
 19 25  1  0
 20 25  1  0
 21 23  1  0
 22 24  1  0
 22 29  1  0
 23 24  1  0
 23 28  1  0
 24 31  1  0
 25 27  1  0
 26 27  1  0
  1 34  1  0
  2 35  1  0
  3 36  1  0
  4 37  1  0
  5 38  1  0
 11 39  1  0
 11 40  1  0
 12 41  1  0
 12 42  1  0
 13 43  1  0
 13 44  1  0
 14 45  1  0
 14 46  1  0
 15 47  1  0
 15 48  1  0
 17 49  1  0
 17 50  1  0
 17 51  1  0
 18 52  1  0
 18 53  1  0
 18 54  1  0
 19 55  1  0
 19 56  1  0
 19 57  1  0
 20 58  1  0
 20 59  1  0
 20 60  1  0
 21 61  1  0
 21 62  1  0
 22 63  1  0
 22 64  1  0
 23 65  1  6
 24 66  1  1
 28 67  1  0
 29 68  1  0
 29 69  1  0
 31 70  1  0
M  CHG  1  29   1
M  END
>  <OMEGA_C>  (88) 
5qqSQL1II79JQ6bBxxfMQPyDUD/+rKzBjPbUQFCmzb9xC63By6fyQJZu7ECp2pDB/gmyQH7Q/EBV
WZjB/lPDQGZw6kCWc4/BMuSiQOE5Jz9EN6jBp5CrQEEa4r+8v6jBFkHlQBJEob4g+67BTYPZQFCb
wD+cFZDBWBavQGmHAkHwAGTBduOZQEoeDUGMdXfBryrSQK6L5UDgKGvB7qqFQNnV90Bfy4LBdovA
QLMjw0BbbnrBsQ+nQO6h1kBKv4bBqa3iQBIm2j7VxIfB0AunQPPjIEGdoKfBIenDQDSKAEFUX7HB
bVz1QL5lHkEIqKvBh5eJQCIe7j/BuKTBuxukQA0akEBRc4/BSeGiQAStJ0AeEZzBWjSIQIr2b0Cp
YZfBanfNQAIqEUEuiqjBLg77QG5hAEH14JnBJy7UQOWzBUFOHZ7BZXuvQFxU2T81ZJPBRW2MQKdz
tUC8vovBsXT3QGsTBUBcdZTB0W92QNJLlEA3v5/B2tqbQC07QMCh4qbB1JQGQfuEIr5L97LB10lm
QBSxQr8v3KLB5ELYQHT25j9gUK7BLDXoQFpiHsBn2q7BpRAFQbhw30B4aIvBfo6QQJNM/0DFZZrB
wH29QPn5DkFw21nB9auWQE+a80DczlrBxPuAQBxLGEHG/3HBFCiyQA7pFUFwWIDBeI7rQKV+90DM
aHPBIJHfQJy71UA271zBVcBZQLcP50ANVHzBjeVtQFOqA0FmyYnBuorbQPeJsEBRa4DBVC2rQMPW
rUCIXXHB1rwCQQqynj7n0YbBzXLUQKG4Nz/BEIDBRLbUQHwSB7/+a4rBfKitQHvFLEFYWaHByGKi
QMgcKUEGUq/BKuuJQO3nF0HakaXB4vjeQIy86kCJDrLBL72mQNU170C4TK/BzTS/QMbPCEHkDLnB
35kIQSW5E0HYXqzBaqbvQLdnJkGSXLPB4J37QJ18KkGAdKXB2CeEQNJSIUB9oKvBcDtVQIi+xD8N
cKHBRNKrQCSPdkBNn4jBvePBQDZZmkBnYZPBvcG/QNINQ0CYwZ/By35YQM8sVUB2NpPBk2+YQFpU
lz+XrY/BPo9tQI62q0A/YYbBmOV6QI1twkC8BpLBXI9TQPQ9hUCrtKTBv+XMQMLBUj+JoKzByY6T
QNU2JL9LWabBZ/TVQA5TzL8zNK3BmsbyQARz7UBB15DB0gqyQIO5/UB4SZjBFHjDQB8y60AJbY/B
MK6jQLdOJz/YMqjBiiTmQMwImr6mB6/BsZSsQNbt4b/F6ajBAtrYQBx/uz9lAZDBPZ6vQNR9AkHP
22PBjjWaQDEpDUERN3fBpanSQP+T5UBRLGvB/+6FQFAF+EAQtILBH/TAQFVVw0APhHrBp1mnQPwD
10CDvobBOgzhQD7tuD5p1YfBw0WnQOCcIUGCfqfBW5rCQNLqAEH1PLHBiD/1QF54HkEL2avB2yGK
QEir7T9Mt6TBNQClQGcbkUDxxI/BDimjQPWoJ0BuB5zBVo+IQFRscECBbJfBOCrNQDuaEUGygajB
ggn7QHAEAUFn1pnBdhfUQOo6BkHCEJ7BigOvQNZ62T9rSJPB2+eMQHbItUCHy4vBNkf3QDJAAUAb
VZTByih1QKDQk0AY1Z/BNgUHQbmjCr4a/7LB7AmdQJtjQMDdHqfBrgTZQIp46D/LKq7BEA5oQMhf
Rb9k96LBDELpQNB3HcDJF6/BbSsFQWZw4EDua4vBjYeQQKobAEHGTZrBfhe+QDTmDkEwsFnBXE+X
QBJq80BapVrBHE2BQF5HGEGMpHHB5FyyQJwHFkFmOYDBwfrrQFik90CNanPBkC3gQGub1UD7BF3B
5o1aQKQQ50BzI3zBdRNuQC7SA0Gbp4nB+urbQKTPsEDFgYDBjaWrQJXtrUDgeXHBxNwBQfwIVz5p
7YbBmzHTQIebJj8xFYDB8R/SQALEEr+nmIrBPaKuQMiHLUEfSaHBgViiQB/DKUE0Mq/BdAeKQCje
GEFoSaXBvk/dQEka60B8/LHBKlOlQJRt8ECpBK/BOKS9QMEbCUF17bjBylkIQVaRE0FroqzB5kLv
QBJlJkG7j7PBGk38QEmcKkGzuaXBYrKEQIcZIUAHn6vB/VBWQJ6fwz/pdqHB82muQHT2eECsCYnB
ic/BQEk4nEBn/pPBTFPAQB10QkCZpJ/BmS1aQO/vVUB1B5PBPIGXQN9xmz8dfI/Bm4dvQOJIq0Cz
ZIbBh6N6QFf6wkBF9JHBpppRQDtHhEC0nqTBFu6IQE0+Bb8oMKzBTsrPQPDUiT2lfKXBb3rIQP41
zr/Ie7PBcITyQLyK9UDxZI7B0w63QMiOAkGtT5jBci3DQF/48UCQ347BqtCiQDJfhT4PWKXBx7Kb
QJcuub9MRrPBAXXiQMXGWr/6jqzB2wnFQEbwyD/RsIjB5cirQDSpA0H2o2LB0qWVQBF8DkEa1XXB
wF3PQKjW6EBJNmrBHdiCQEgz+0Dcm4LBiSe+QDxIx0BKSXrBVGSlQE1720AP0obB1ofsQMeEoT/v
6IHBm7jDQKiTKUGKB6fBn7HOQL7mBUF6XrDBMwoHQRF1G0FoKarB2AiNQEQlnz/evJ3BLnKpQEbl
lkBPFZHBCV+pQEb5HUCzm5rBU4KNQD6saEDUWZbBET7fQPn0FEGKbKfB/xsAQTEJBUHj5JbBovDc
QGKiCUGEzJzBIUnLQB9+BkA63JLBsNiNQMcAuUCBlIzBmk2hQNH9uj8Wu4TBeGFtQAJLh0AyD5/B
PbSCQDxOC8Ad57nBRL0GQR3WgL8Wr6zB+yNNQLRu0L4d/avBs9jjQEpnIj/GG6DBstfWQG5CFMCG
87jBqkEDQds06UDRDojBYRqXQEwuBEEhgJvBkdu5QMEMEEHMTljBKeeTQKb/9EBUhFnBJlF3QK3J
GEEe8G/BQDGtQIhGGEG4gn7Bwa3oQGGt+0BTA3LB57ncQDQZ2EC0PlzBDidUQLLp6ECar3zBN7ho
QFTiBUEceonBlWnZQJbntEDlSYDBQ0+oQAiisUC0uXHBr3riQDeidj+FpHPB3Lb+QE534j6In4XB
lWoAQfIgCkAQaIHB7rHPQNQmNEHsqaDBlLfFQK3jMUEfxa7B6jWiQKRSJUF1YKXBW2fiQMOm7kBm
lrDBbDWtQJ+QAUHrvK7BFrfQQKghDkGWIbjBnSIRQSIODUG7fKrBYmAHQeKQI0Fo+LHBfScNQYNZ
JkFc9qPBqqNfQKoczz/sn6HB52qEQBctND+xYJbBY328QCpoiEAaoYrB2gG/QNTNpECTG5fBVf24
QBSGNEA9+aHBtA5uQMBYT0BoXZDBX5DpQM4BEEDeKJXB/rlyQEh4q0DhcofB/Bh7QAZnxkBKmJLB
xoNKQKWJZECgZaLB

>  <OMEGA_E>  (88) 
2KU0PhAXNT7UUzo/

>  <OMEGA_NBR>  (88) 
     73217

$$$$
50168358
     RDKit          3D

 72 75  0  0  1  0  0  0  0  0999 V2000
    8.5437    7.4083  -18.5948 C   0  0  0  0  0  0  0  0  0  0  0  0
    8.1288    8.3051  -19.5927 C   0  0  0  0  0  0  0  0  0  0  0  0
    7.6118    6.8677  -17.6935 C   0  0  0  0  0  0  0  0  0  0  0  0
    5.8396    8.1113  -18.7982 C   0  0  0  0  0  0  0  0  0  0  0  0
    6.3308    0.7578  -21.5642 C   0  0  0  0  0  0  0  0  0  0  0  0
    4.5642   -0.6939  -20.7017 C   0  0  0  0  0  0  0  0  0  0  0  0
    6.6254   -1.6613  -21.5768 C   0  0  0  0  0  0  0  0  0  0  0  0
    6.7622    8.6601  -19.7135 C   0  0  0  0  0  0  0  0  0  0  0  0
    6.2447    7.2379  -17.7647 C   0  0  0  0  0  0  0  0  0  0  0  0
    5.0562    0.5963  -20.9787 C   0  0  0  0  0  0  0  0  0  0  0  0
    7.1193   -0.3700  -21.8508 C   0  0  0  0  0  0  0  0  0  0  0  0
    5.3449   -1.8217  -21.0085 C   0  0  0  0  0  0  0  0  0  0  0  0
    6.7992    1.4614  -18.0557 C   0  0  0  0  0  0  0  0  0  0  0  0
    5.4684    8.1580  -14.2074 C   0  0  0  0  0  0  0  0  0  0  0  0
    4.8685    8.8194  -15.4595 C   0  0  0  0  0  0  0  0  0  0  0  0
    6.4418    7.0232  -14.5777 C   0  0  0  0  0  0  0  0  0  0  0  0
    4.1758    7.7600  -16.3234 C   0  0  0  0  0  0  0  0  0  0  0  0
    5.7733    5.9933  -15.5144 C   0  0  0  0  0  0  0  0  0  0  0  0
    5.0165    9.2305  -21.4731 C   0  0  0  0  0  0  0  0  0  0  0  0
    5.5956    8.2366  -22.4863 C   0  0  0  0  0  0  0  0  0  0  0  0
    7.1913    9.8630  -21.9535 C   0  0  0  0  0  0  0  0  0  0  0  0
    6.2693    9.7064  -20.7376 C   0  0  2  0  0  0  0  0  0  0  0  0
    5.1766    6.6670  -16.7933 C   0  0  0  0  0  0  0  0  0  0  0  0
    7.0973    0.4800  -16.9262 C   0  0  0  0  0  0  0  0  0  0  0  0
    4.2627    1.8053  -20.5552 C   0  0  0  0  0  0  0  0  0  0  0  0
    5.0738    4.4956  -17.9398 C   0  0  0  0  0  0  0  0  0  0  0  0
    5.0634    2.5968  -19.5043 C   0  0  1  0  0  0  0  0  0  0  0  0
    4.2292    3.7446  -18.9541 C   0  0  2  0  0  0  0  0  0  0  0  0
    5.4732    1.7059  -18.3986 N   0  0  0  0  0  0  0  0  0  0  0  0
    4.3524    5.6972  -17.5259 N   0  0  0  0  0  0  0  0  0  0  0  0
    7.7203    2.0871  -18.5701 O   0  0  0  0  0  0  0  0  0  0  0  0
    6.9661    8.6643  -22.7350 O   0  0  0  0  0  0  0  0  0  0  0  0
    3.8782    4.6238  -20.0237 O   0  0  0  0  0  0  0  0  0  0  0  0
    8.3537   -0.2114  -22.3787 F   0  0  0  0  0  0  0  0  0  0  0  0
    4.8691   -3.0581  -20.7423 F   0  0  0  0  0  0  0  0  0  0  0  0
    9.5853    7.1327  -18.5199 H   0  0  0  0  0  0  0  0  0  0  0  0
    8.8552    8.7265  -20.2718 H   0  0  0  0  0  0  0  0  0  0  0  0
    7.9386    6.1653  -16.9411 H   0  0  0  0  0  0  0  0  0  0  0  0
    4.7941    8.3661  -18.8904 H   0  0  0  0  0  0  0  0  0  0  0  0
    6.6996    1.7471  -21.7916 H   0  0  0  0  0  0  0  0  0  0  0  0
    3.5889   -0.8165  -20.2544 H   0  0  0  0  0  0  0  0  0  0  0  0
    7.2281   -2.5286  -21.8023 H   0  0  0  0  0  0  0  0  0  0  0  0
    6.0110    8.9187  -13.6269 H   0  0  0  0  0  0  0  0  0  0  0  0
    4.6526    7.7437  -13.5968 H   0  0  0  0  0  0  0  0  0  0  0  0
    4.1342    9.5797  -15.1549 H   0  0  0  0  0  0  0  0  0  0  0  0
    5.6712    9.2970  -16.0406 H   0  0  0  0  0  0  0  0  0  0  0  0
    7.3175    7.4538  -15.0855 H   0  0  0  0  0  0  0  0  0  0  0  0
    6.7650    6.5140  -13.6578 H   0  0  0  0  0  0  0  0  0  0  0  0
    3.3773    7.2847  -15.7348 H   0  0  0  0  0  0  0  0  0  0  0  0
    3.7389    8.2486  -17.2068 H   0  0  0  0  0  0  0  0  0  0  0  0
    6.5253    5.2516  -15.8214 H   0  0  0  0  0  0  0  0  0  0  0  0
    4.9629    5.4891  -14.9674 H   0  0  0  0  0  0  0  0  0  0  0  0
    4.5089   10.0654  -21.9784 H   0  0  0  0  0  0  0  0  0  0  0  0
    4.3139    8.7361  -20.7860 H   0  0  0  0  0  0  0  0  0  0  0  0
    5.5830    7.2179  -22.0715 H   0  0  0  0  0  0  0  0  0  0  0  0
    5.0133    8.2599  -23.4193 H   0  0  0  0  0  0  0  0  0  0  0  0
    6.9240   10.7600  -22.5314 H   0  0  0  0  0  0  0  0  0  0  0  0
    8.2430    9.9299  -21.6381 H   0  0  0  0  0  0  0  0  0  0  0  0
    6.0948   10.6769  -20.2499 H   0  0  0  0  0  0  0  0  0  0  0  0
    8.1778    0.4745  -16.7201 H   0  0  0  0  0  0  0  0  0  0  0  0
    6.5530    0.7868  -16.0209 H   0  0  0  0  0  0  0  0  0  0  0  0
    6.7757   -0.5292  -17.2231 H   0  0  0  0  0  0  0  0  0  0  0  0
    4.0720    2.4445  -21.4299 H   0  0  0  0  0  0  0  0  0  0  0  0
    3.3049    1.4827  -20.1211 H   0  0  0  0  0  0  0  0  0  0  0  0
    5.2580    3.8549  -17.0649 H   0  0  0  0  0  0  0  0  0  0  0  0
    6.0341    4.7791  -18.3954 H   0  0  0  0  0  0  0  0  0  0  0  0
    5.9598    3.0118  -19.9883 H   0  0  0  0  0  0  0  0  0  0  0  0
    3.3299    3.3447  -18.4628 H   0  0  0  0  0  0  0  0  0  0  0  0
    4.7572    1.2535  -17.8669 H   0  0  0  0  0  0  0  0  0  0  0  0
    3.5935    5.4208  -16.9363 H   0  0  0  0  0  0  0  0  0  0  0  0
    3.9926    6.1453  -18.3443 H   0  0  0  0  0  0  0  0  0  0  0  0
    3.3498    4.1551  -20.6590 H   0  0  0  0  0  0  0  0  0  0  0  0
  1  2  2  0
  1  3  1  0
  2  8  1  0
  3  9  2  0
  4  8  2  0
  4  9  1  0
  5 10  2  0
  5 11  1  0
  6 10  1  0
  6 12  2  0
  7 11  2  0
  7 12  1  0
  8 22  1  0
  9 23  1  0
 10 25  1  0
 11 34  1  0
 12 35  1  0
 13 24  1  0
 13 29  1  0
 13 31  2  0
 14 15  1  0
 14 16  1  0
 15 17  1  0
 16 18  1  0
 17 23  1  0
 18 23  1  0
 19 20  1  0
 19 22  1  0
 20 32  1  0
 21 22  1  0
 21 32  1  0
 23 30  1  0
 25 27  1  0
 26 28  1  0
 26 30  1  0
 27 28  1  0
 27 29  1  0
 28 33  1  0
  1 36  1  0
  2 37  1  0
  3 38  1  0
  4 39  1  0
  5 40  1  0
  6 41  1  0
  7 42  1  0
 14 43  1  0
 14 44  1  0
 15 45  1  0
 15 46  1  0
 16 47  1  0
 16 48  1  0
 17 49  1  0
 17 50  1  0
 18 51  1  0
 18 52  1  0
 19 53  1  0
 19 54  1  0
 20 55  1  0
 20 56  1  0
 21 57  1  0
 21 58  1  0
 22 59  1  1
 24 60  1  0
 24 61  1  0
 24 62  1  0
 25 63  1  0
 25 64  1  0
 26 65  1  0
 26 66  1  0
 27 67  1  6
 28 68  1  1
 29 69  1  0
 30 70  1  0
 30 71  1  0
 33 72  1  0
M  CHG  1  30   1
M  END
>  <OMEGA_C>  (89) 
A7MIQfgQ7UAqwpTBxA8CQcLhBEHmvZzBkJPzQDDE20BEjI3Bzd26QNPHAUHFYpbB8JXKQDsAQj9j
g6zBDg6SQIukMb8TnaXBBgPUQJym1L9LnazBBmTYQOyPCkErtZ3BY9THQLic50AgHo7BNcyhQO2m
GD9X1KfBFNHjQDpsvb5Yzq7BxAmrQCMu6b9qEajBHJPZQOoNuz8VcpDBGv2uQFmHAkGPUWPBxcqb
QGkcDUEaWnfBRCPOQBO+4EB2PmnBeqCFQBVS+EBOloLBib64QD3Jv0DLOnjBxIagQPOvE0H0yKvB
4w6zQE7JA0Hr47PBwB7mQMLOHUG6oK/BcZ7IQJRNG0GS5qXB9KalQEtY1UCrWIbB+BzjQEa89T7W
aIfBcmiIQLcT5z8hcaTBrVyiQOvbj0C5hI/BYQeiQHgxJkDeCJzBlFWHQNGmb0AUopfBbySvQMBa
2j88MJPB/kaLQNRPtkASNYzB1gz3QLuTBUCTj5TBYOreQPmgCkE54bXBITV4QPD1k0B/MKDB4KgF
QQN0WL6LB7PB8c+bQD24Q8BQ8KXBOF0ZQUM/5EDJKJTBE68NQcqfC0GzLKLBVwn+QNVJxUBPh4fB
ZWmZQHfbBUGEH5fBg2PWQA+g3z8sVa7BP7BlQBgIUb/5CKLBrUznQGHVIcA1a67BClrAQB2zDkHx
B1rBQeKUQMbM90BujFnBOUuEQGNGGUFbenLBJnq1QJzAFEEYU4DBqijqQCqF7kBZXnHBCnvYQJ1y
0ECBhlrBZiZYQPkb6UC7wXvBgEpvQDn6A0GEp4nB/s7QQMcMqEB7JH3BM9CeQOKmr0CSem/BHEmQ
QMoLIUHM06/BgAuKQDnHC0HRSabB46eyQB755kCDkrDBDW2gQJwoBEGlWrvBCJHdQN4oLEE5QLTB
KOMDQdHgHkHnGq3BuwjDQG7UKkHU/6HBPNgCQYHx8j68woXBJLLRQDlpST+6KoDBStLYQCB7B7/S
yInBO06CQKVyHEB0cKvBH4RTQH3HvT/z96DBnUGoQCa2dkDThIjBNBfBQP/tmEC2KZPBfLa+QCLC
QEAG6J/Boh1VQOEOVkDUs5PBtjqYQK9xoD9+747BbfxlQFN3rUB6fYfBUYZ/QK2mxEAUwZLBFGNW
QPr2hECkRaXBYUwIQVO08UCZs5TBEk4AQZr2AEHQZ57Bl0T0QLT74kBexIzBZgu4QEF29UDyK5jB
VMDNQOQ5Sz8gi6zBRQSTQNZ2Hb99QabB1UXVQA7/0L87l6zBXtfTQHhpAUEjQaDBKGTHQJ/15UBo
WI7B7RekQJvrKT+jS6jB5GvmQAMftb5Jm67BgH2rQMWK4b85d6jB8EzYQPHavj+SApDBOs6rQOpe
BEHV8mPBs6WbQO1tDkF+3HjBkfPLQNqO5ECaX2jB1k6GQEOE+kBCVIPBgCq5QOJcwkBpnXfBHRDe
QC2FDkFrgbPBZorsQKB2JUEA3rDBscyqQI9DH0E2kKjB0QG/QH5ZCUHyjKrB9felQG0F1kDfOIbB
ELvfQGFJ1T6KjIfBJCKLQAVE8j8eHqXBGDajQMhfkECVcY/BCIGjQMR3KUAkRZzBTFyIQMfqcUAl
vpfBvLmuQBxw3D89gZPB406LQOeRtUBlmYvBRRr3QDZTAkCuP5TBZkLOQOD2LUFDGanBoGB5QGKr
lUDUJKDBaFYHQZ4/aL4hcLLBTf6aQL8sP8DJgabBFloZQbqL8EB3VpPBADELQczWBkEbcKTBcVkA
QWZi1UANdYXBEfCVQHAV90CRgZnB7qjaQBQO4z8DNa7BBlRmQBXVNr+k/6LB0yfoQPfsIMAaNa7B
eom7QLzKEEELRlrBsmOQQFOj+0CQEFvBt0aEQJ0OG0E0J3XBBsy2QEJkFUGF0YDB0dPoQJVO8kCd
uW/BUH7UQBgw1UB6IFnBoklWQMfd7EBmyX3BB0t1QE+uBEGwwYrBW83SQKnzq0A5E3zBNbmfQAbv
sEBmIW/BwRPOQMDeDUHHVrvBwV/5QMhqA0GadrPBMnwGQflDJUFYcq3B2FbsQF1WL0HUJrjB2e2S
QJv4IkFpwq7BsoqbQJrVH0Fdo6DBZaSmQOzP+0CfTq3BFygBQcwqjD7zXobBjfvQQCPlOj+97H/B
aT7RQM10B7/vNYrBujqHQLQYI0CeHazBWOlWQKL6yz8/HqLB+B6qQPWddUDhtIjBTHDBQDb4mkDR
F5PBGefAQG2eREBkuJ/BMnNXQGAOV0Br4ZPBtPWWQJmfnT8Z3I/BI01qQJtpq0B1aobBr+V5QLta
w0D33JHBn+FXQNDihkBlTKXB27ILQVq98EAbVpLBDHMGQcyZAUHuM5zBiAf3QNHq4UDtfIvBNQ7B
QLUt+UAfRpjBdTDMQDepVT/2q6zBix2UQIkgKb9oJKbB9aDWQKg6yr8yOa3BRebhQNIlA0HMa5/B
mjvLQHsC50D8Lo7B6V2jQNxhJD9kE6jB5PflQClijb5VIa/BGpmtQDic4r/MyajB4iXaQJ6Quj/t
epDByfimQM+EAkF5QWPBmFKaQD3fDUGUInjBUIjHQMVT4UDkjmfBmx6HQPG1+0AsAYTBm1O2QHst
wUCiQXjBz8bNQHcBJEFc0qnBLoqdQCLPI0G9w6fBCN+wQEUCA0EL0q/Bd8TYQChwDEERgqrBKrim
QC8H10D4uobBHuXjQA794T6ptIfBglGJQJAU6j9wfqTBqeeiQEymkEBwj4/Bq0iiQCXjJkC84pvB
VPCGQKtabkBaNpfBna6vQEg82T+LM5PB5WGMQIbxt0DPn4zBkHD3QAcbB0BIZZTByBGNQL8CEEGh
TqzBnHNwQMVUkkAEpJ/B/ccGQUBWub1+OrPBKsueQKI1QcCo8qbBS0QcQTjl7UC7/I/B+fcSQTWO
B0FOXKHBg5b/QGJt0kAUEYTBtPGfQG4V/UBsjJrBypfXQL+26j/LS67BUsVpQPWKTr+noaLBMVLq
QHHCG8BNKa/BITC1QPpCDkGDPVjB4DCKQOEV90AZ6FvBEYmCQAxZGkHak3TBVee2QJBBFUEXR3/B
1lXlQGGf70AInG3BERTOQMtA0ED0hFjBtwhUQCTP7UC6eoDB8px9QDBdBkEXbIvBFwnQQCd7qkBA
OXzBjD+bQPS8r0DtJ3HB6FTVQOtELEG+W7HBEAHfQD6/K0EDMqPB3iWXQIZSJEFeHZ/BwV+OQOGn
MUGYp6vBIOyzQIizA0GdlLjBHlmsQBuY5EBvTa3Ba7n0QFQcCkEZuq/B9DgDQfyr4T63BYbBtEHS
QO4MNj8CZ4DBCADaQOl/D7+FXYrB5BiDQEgcH0BPYKvBPXhVQFyUvT/8I6HBHkepQMAie0DUVojB
BV3BQPqymEBRfJPBzc2+QD5RQ0Czn5/BMapXQOiDUkCMzpLBKOWYQGronD/PCY/BdrhmQCYQsEAI
C4jBF/iBQL3uxUDzVJPBU4tNQGhPgkAkZ6TBy0fPQMbPCkEa457BoZL7QJsjB0Ej6Z3BlcyyQMkK
AkFjT5fBCwbuQKSD4EDhh47B2U/MQFvWNj+3XKzBueyRQC8pKb/GbKXB0WLRQGjY279F/6zBdZAF
QZzn80CCgpXBSWnCQFaK6kBGvo7BG7mjQEd0Gz+df6fBcTTjQCiX5b7HDq/Bp5ioQEw36b8uQajB
DffYQOy6sT/9wY/BOCyzQCWcAEFzp2HBLI+fQBWzDEGrvHTBRDPRQMut3UBIamnBy3qGQLpt+kDM
poHBOfS5QKZyv0BtBXnBMowjQZSc80Cy44fB7IYnQbD/EUFD9YfBFaEsQU0wBEEFQJnBxT4dQXsV
6kBmj5PByAakQOks10DFRIbB2yLfQNa3pT6hIofBWa+LQK6E7D+tR6TBSVmiQKLkkUARco/BGr2k
QEdgKEDtuJvBbVyJQOoGc0AGypfBP3evQDSl3z8MnpLBPbSJQDiRt0DY74vBJSH4QI7g5T8AwZTB
SQ4sQUm+F0HvBZPB+v9/QO5/lUCaf6DBmQkFQe7msL5UurPBTQ+XQOdaQsDSdabBWiPDQFFUFEGp
baXB+cwIQZlPDkEShaPBvOKQQNwMBUFDBZjBeIL5QNI1yUBQ1YjB+sbZQID31z8hA67BvtFlQEqT
Pb/AqqHBev/iQN0SJ8CuDa/BmmDFQA/tC0EntlfBgFCZQEby8kB4FFjBLLOJQDEdGUHHuG7Bz1a5
QBg+FEGJDH7B5MHsQLw07EAbnHHBxHfcQKAry0CJi1vBqrdZQEs/60Cm63nBBKpwQJlQBkFBTYjB
XGfRQBl+qECgY3/Bjg2hQPkarkAVGnDBSx4yQZ0Q4kBloIXBIYEWQRw560ClXYLBn0AZQdGOGkHk
GIXBfEI1QRL6FUF604LBE+U8Qc3w+kDHXZnBmkknQRwyB0HDf6HBl9ogQXSayEBXl5XBTZsAQV7e
ZD0OnYbByUrUQDrCNz9twn7BRlbMQDfcEb9aM4nBQB2HQOEnH0DjWavBN5tYQIjGxz+ZBaHBbXOo
QETseUB0iYjBvP/AQBpunEDw4JLB30fCQBqfQUCrUZ/Bc2xXQL4EWkDNOJTB91mXQMoqsT/MO47B
3bVkQODJrUAAC4fBObx5QOaNxUCAYJLBHIVgQH9qhkCUy6XB

>  <OMEGA_E>  (89) 
wH6WPuABmz7gUp8+GEv5Pg==

>  <OMEGA_NBR>  (89) 
     78054

$$$$
50167992
     RDKit          3D

 71 73  0  0  1  0  0  0  0  0999 V2000
    6.3573    0.8107  -21.5937 C   0  0  0  0  0  0  0  0  0  0  0  0
    4.5857   -0.6519  -20.7608 C   0  0  0  0  0  0  0  0  0  0  0  0
    6.6553   -1.6083  -21.6280 C   0  0  0  0  0  0  0  0  0  0  0  0
    5.7913    7.8431  -18.9813 C   0  0  0  0  0  0  0  0  0  0  0  0
    8.4458    7.6155  -18.4730 C   0  0  0  0  0  0  0  0  0  0  0  0
    5.0782    0.6422  -21.0198 C   0  0  0  0  0  0  0  0  0  0  0  0
    7.1496   -0.3138  -21.8851 C   0  0  0  0  0  0  0  0  0  0  0  0
    5.3706   -1.7759  -21.0722 C   0  0  0  0  0  0  0  0  0  0  0  0
    6.2349    7.2324  -17.7952 C   0  0  0  0  0  0  0  0  0  0  0  0
    6.7301    8.4052  -19.8636 C   0  0  0  0  0  0  0  0  0  0  0  0
    6.7899    1.4615  -18.0607 C   0  0  0  0  0  0  0  0  0  0  0  0
    5.3916    8.1382  -14.1999 C   0  0  0  0  0  0  0  0  0  0  0  0
    4.8525    8.8290  -15.4620 C   0  0  0  0  0  0  0  0  0  0  0  0
    6.4159    7.0482  -14.5593 C   0  0  0  0  0  0  0  0  0  0  0  0
    4.1947    7.7967  -16.3805 C   0  0  0  0  0  0  0  0  0  0  0  0
    5.8227    6.0176  -15.5405 C   0  0  0  0  0  0  0  0  0  0  0  0
    5.1902    6.6835  -16.8046 C   0  0  0  0  0  0  0  0  0  0  0  0
    7.0645    0.4643  -16.9398 C   0  0  0  0  0  0  0  0  0  0  0  0
    5.0032    9.9789  -20.8830 C   0  0  0  0  0  0  0  0  0  0  0  0
    5.8973    8.0133  -22.1951 C   0  0  0  0  0  0  0  0  0  0  0  0
    7.3634   10.0121  -21.7251 C   0  0  0  0  0  0  0  0  0  0  0  0
    4.2823    1.8465  -20.5843 C   0  0  0  0  0  0  0  0  0  0  0  0
    5.0835    4.5002  -17.9278 C   0  0  0  0  0  0  0  0  0  0  0  0
    5.0736    2.6215  -19.5134 C   0  0  1  0  0  0  0  0  0  0  0  0
    4.2331    3.7538  -18.9413 C   0  0  2  0  0  0  0  0  0  0  0  0
    6.2539    9.0946  -21.1505 C   0  0  0  0  0  0  0  0  0  0  0  0
    7.5665    7.1162  -17.5701 N   0  0  0  0  0  0  0  0  0  0  0  0
    8.0521    8.2605  -19.5986 N   0  0  0  0  0  0  0  0  0  0  0  0
    5.4705    1.7119  -18.4206 N   0  0  0  0  0  0  0  0  0  0  0  0
    4.3578    5.6937  -17.5014 N   0  0  0  0  0  0  0  0  0  0  0  0
    7.7210    2.0904  -18.5528 O   0  0  0  0  0  0  0  0  0  0  0  0
    3.8555    4.6419  -19.9943 O   0  0  0  0  0  0  0  0  0  0  0  0
    8.3890   -0.1498  -22.3994 F   0  0  0  0  0  0  0  0  0  0  0  0
    4.8965   -3.0158  -20.8197 F   0  0  0  0  0  0  0  0  0  0  0  0
    6.7269    1.8025  -21.8087 H   0  0  0  0  0  0  0  0  0  0  0  0
    3.6065   -0.7804  -20.3236 H   0  0  0  0  0  0  0  0  0  0  0  0
    7.2611   -2.4725  -21.8571 H   0  0  0  0  0  0  0  0  0  0  0  0
    4.7370    7.8801  -19.2128 H   0  0  0  0  0  0  0  0  0  0  0  0
    9.5029    7.4946  -18.2881 H   0  0  0  0  0  0  0  0  0  0  0  0
    5.8763    8.8891  -13.5587 H   0  0  0  0  0  0  0  0  0  0  0  0
    4.5532    7.6781  -13.6564 H   0  0  0  0  0  0  0  0  0  0  0  0
    4.1091    9.5868  -15.1737 H   0  0  0  0  0  0  0  0  0  0  0  0
    5.6832    9.3146  -15.9951 H   0  0  0  0  0  0  0  0  0  0  0  0
    7.2930    7.5214  -15.0249 H   0  0  0  0  0  0  0  0  0  0  0  0
    6.7240    6.5298  -13.6393 H   0  0  0  0  0  0  0  0  0  0  0  0
    3.3497    7.3348  -15.8490 H   0  0  0  0  0  0  0  0  0  0  0  0
    3.8259    8.3068  -17.2826 H   0  0  0  0  0  0  0  0  0  0  0  0
    6.6247    5.3381  -15.8646 H   0  0  0  0  0  0  0  0  0  0  0  0
    5.0437    5.4426  -15.0185 H   0  0  0  0  0  0  0  0  0  0  0  0
    8.1414    0.4509  -16.7159 H   0  0  0  0  0  0  0  0  0  0  0  0
    6.5068    0.7619  -16.0396 H   0  0  0  0  0  0  0  0  0  0  0  0
    6.7432   -0.5394  -17.2551 H   0  0  0  0  0  0  0  0  0  0  0  0
    4.6856   10.4589  -21.8204 H   0  0  0  0  0  0  0  0  0  0  0  0
    4.1862    9.3513  -20.4975 H   0  0  0  0  0  0  0  0  0  0  0  0
    5.2528   10.7522  -20.1416 H   0  0  0  0  0  0  0  0  0  0  0  0
    5.5547    8.4968  -23.1218 H   0  0  0  0  0  0  0  0  0  0  0  0
    6.7866    7.4018  -22.4079 H   0  0  0  0  0  0  0  0  0  0  0  0
    5.0969    7.3710  -21.7992 H   0  0  0  0  0  0  0  0  0  0  0  0
    7.0011   10.4946  -22.6448 H   0  0  0  0  0  0  0  0  0  0  0  0
    7.6218   10.7829  -20.9841 H   0  0  0  0  0  0  0  0  0  0  0  0
    8.2550    9.4099  -21.9540 H   0  0  0  0  0  0  0  0  0  0  0  0
    4.1004    2.4994  -21.4507 H   0  0  0  0  0  0  0  0  0  0  0  0
    3.3201    1.5184  -20.1641 H   0  0  0  0  0  0  0  0  0  0  0  0
    5.2776    3.8540  -17.0590 H   0  0  0  0  0  0  0  0  0  0  0  0
    6.0388    4.7919  -18.3885 H   0  0  0  0  0  0  0  0  0  0  0  0
    5.9734    3.0475  -19.9811 H   0  0  0  0  0  0  0  0  0  0  0  0
    3.3455    3.3375  -18.4424 H   0  0  0  0  0  0  0  0  0  0  0  0
    4.7474    1.2483  -17.9086 H   0  0  0  0  0  0  0  0  0  0  0  0
    3.6230    5.4111  -16.8847 H   0  0  0  0  0  0  0  0  0  0  0  0
    3.9643    6.1284  -18.3115 H   0  0  0  0  0  0  0  0  0  0  0  0
    3.3237    4.1746  -20.6279 H   0  0  0  0  0  0  0  0  0  0  0  0
  1  6  2  0
  1  7  1  0
  2  6  1  0
  2  8  2  0
  3  7  2  0
  3  8  1  0
  4  9  2  0
  4 10  1  0
  5 27  2  0
  5 28  1  0
  6 22  1  0
  7 33  1  0
  8 34  1  0
  9 17  1  0
  9 27  1  0
 10 26  1  0
 10 28  2  0
 11 18  1  0
 11 29  1  0
 11 31  2  0
 12 13  1  0
 12 14  1  0
 13 15  1  0
 14 16  1  0
 15 17  1  0
 16 17  1  0
 17 30  1  0
 19 26  1  0
 20 26  1  0
 21 26  1  0
 22 24  1  0
 23 25  1  0
 23 30  1  0
 24 25  1  0
 24 29  1  0
 25 32  1  0
  1 35  1  0
  2 36  1  0
  3 37  1  0
  4 38  1  0
  5 39  1  0
 12 40  1  0
 12 41  1  0
 13 42  1  0
 13 43  1  0
 14 44  1  0
 14 45  1  0
 15 46  1  0
 15 47  1  0
 16 48  1  0
 16 49  1  0
 18 50  1  0
 18 51  1  0
 18 52  1  0
 19 53  1  0
 19 54  1  0
 19 55  1  0
 20 56  1  0
 20 57  1  0
 20 58  1  0
 21 59  1  0
 21 60  1  0
 21 61  1  0
 22 62  1  0
 22 63  1  0
 23 64  1  0
 23 65  1  0
 24 66  1  6
 25 67  1  1
 29 68  1  0
 30 69  1  0
 30 70  1  0
 32 71  1  0
M  CHG  1  30   1
M  END
>  <OMEGA_C>  (90) 
aG/LQPOJTz/uv6zBsb2SQFniJr8UFqbBz/fUQIPbzb89Bq3BKVK5QNH6+kC92ZfB5iEHQXOy80C+
yJPBqICiQFhmJD+hKKjBJMnkQACqoL6hFK/BHNyrQMpP47/sk6jBaITHQOZv50B9XI7BslzXQIl7
BkG36J7BgUbZQH0Suz9TfJDBFYisQAs2AkHRMmPBhUebQLBDDUF2ZHfBHU/NQNqK4UDb8mjBVDuG
QHV++UBAC4PBrlO6QM6PwECwpXjB5RWmQFrf1UDOb4bBvxDiQFi27T6mhIfBIxqgQJipH0FyEKfB
9ra8QHc2AEGcj7HB2aDrQIIxIEEDza3BZgiJQI9a7D+UrKTB/quiQJIBkEAibI/BnVqiQATGJ0CE
G5zBKXWHQDs+cEDBh5fBFiDIQIeDEUFHNKnBtyDyQLG340Cfj4zBddUAQR0rBEHlyZzBcw6vQDgg
2z9SXZPBynKLQGMytkDYAozBlRL3QAvJBUAabJTBwsB2QEiKlEBr9J/BbDkGQVZvGb4IMrPBUbCc
QIwDQcCujqbBjELXQP635j8keK7B9tBmQAPIR7+vlqLBn1roQMY9HsBE267Bv5WXQNkp/EDWs5nB
CgwYQdnT70AYTpLBfAq8QNk5DkFB8FjBKbSRQKGy9UCUgFrBV32DQGNjGUFlx3LBt9y1QJ8IFUHI
63/BfmDpQCqv8EDVZXDBPyvXQH300ECbOlrB02BWQF626kCZlX3BO9t0QInoBEG4QorBx/3TQJ/R
qkCU1X3Bq2WhQGEprkC6S3DBYEMCQWrb5j5DuoXBWjfQQNgJQz8XUYDBb8jXQBgTCr+MCorBHPCV
QJNXJ0FCkK7BkfWFQOKeFUHJ+qPB4BaoQN0ILEHtIaHBBMCxQALzB0GD+bjB9SvZQLnb7EBiQ7PB
pBmjQF7f60DGZK7BmwjgQBTqJ0GPKLXBG+bzQK2GLEFy36fBaxQEQcuOFkG0oa/ByjaDQIz2H0D2
mqvBnHxUQGtawj8HUKHBFuKoQIaodkDXeIjBAT7BQJVXmUCiG5PBOSa/QPsKQ0BN2Z/BURxWQMyY
VUATipPBcOqXQD3Inz/ORI/Bf99nQF0nrUDlE4fBlrd9QJwbxEDjfZLBh7dUQIWWhUDdBaXBZsmT
QLqvJr+BJabBdcvMQF4yUD/1nazBbEXWQECIzb+g8azBuhG6QN4F/EDetpfB84EHQcC380CZypPB
76CjQHuqJD/TKKjB//6sQMsd479QmKjBKjbmQB0Nn75n667BkELIQJTc50AsTo7BLiHYQBj6BkGk
x57BorHYQC4VuT+JWpDBtlKtQAWkAUHU8WLBovWbQEzmDEF7AHfB6QXOQLxx4EAj6GjBfN+GQMgK
+UCY6oLBzgO7QA3hv0As03jB7cumQLbA1UAHdIbBM+DgQIev3D59eYfBWIWhQEuTIEGf2abBFz68
QBWnAEH9TbHBhKfsQKg1IEHb463BuNuJQBVO7D8eyaTBA8WjQCwNkUDu74/BhY6iQAm3J0AsHpzB
V3uHQJz6b0D1j5fBptbIQJ7/EUEgE6nBMOHyQMec40DalIzBIjcBQU50BEH1t5zBR62uQKjL2j8M
VJPBkjCMQN5ftkD6JIzBSML2QAULBUDNHZTBUFJyQF9Zk0D2+5/BRbSdQBHwQMCkpabB1gIHQT0I
Fb4y8bLBiaNoQHLKR78iuqLBSr7YQKQi5z+FQa7B3LDpQCYPHsBJw67BxUyYQDG5/UCCgJnBQWsY
QSx+70BcXZLBHPC8QD+MDUFymVjBBIiSQItv9ECuRVrBRSyEQEf3GEFrPHLBBn22QDXEFEGfe3/B
YyTqQFS070AcP3DBLNDXQIZ3z0BzSVrBOPlXQLLx6UAfWH3BLK91QAjUBEFVEYrBtanUQG1BqkCu
J37BuRGiQE9HrUDnmHDB3J0BQakF0j5qkYXByKrOQPKnNz/mTIDBzJ3WQGwMEb/DJorBoEGXQJtA
KEFqV67BxCaHQLPXFkERpKPBXlSqQCbyLEGb/aDB1TixQOdaCEHWuLjB+S3YQAUP7UBRDLPBl1yi
QPRw7UA5AK7By+jgQFPnJ0FlPbXBSdP1QPuRLEFrD6jBcVMEQfU8FkH7yK/BwnyEQA/xH0A0vavB
0LZVQFUhwj+QjqHBgJqsQBlyeUDZGYnBMenAQGh7m0DQIJTBaZe/QO0TQ0AQu5/BZ1tYQFH4VEDx
JpPBwT6XQG6ToD/uRY/BAF9qQFRerECBLYfBE9R9QIbbxECJdZLB7e1OQNaWg0C2vqTB

>  <OMEGA_E>  (90) 
QIFAPnB7Qz4=

>  <OMEGA_NBR>  (90) 
     80629

$$$$
50167981
     RDKit          3D

 73 75  0  0  1  0  0  0  0  0999 V2000
    6.2985    0.7779  -21.6099 C   0  0  0  0  0  0  0  0  0  0  0  0
    4.6565   -0.7133  -20.5846 C   0  0  0  0  0  0  0  0  0  0  0  0
    6.6623   -1.6323  -21.6255 C   0  0  0  0  0  0  0  0  0  0  0  0
    7.7293    6.9947  -17.6099 C   0  0  0  0  0  0  0  0  0  0  0  0
    6.0286    7.9877  -18.7646 C   0  0  0  0  0  0  0  0  0  0  0  0
    6.2634    7.2267  -17.6609 C   0  0  0  0  0  0  0  0  0  0  0  0
    5.0829    0.5876  -20.9188 C   0  0  0  0  0  0  0  0  0  0  0  0
    7.0911   -0.3308  -21.9546 C   0  0  0  0  0  0  0  0  0  0  0  0
    5.4425   -1.8227  -20.9449 C   0  0  0  0  0  0  0  0  0  0  0  0
    6.8828    1.5179  -18.0649 C   0  0  0  0  0  0  0  0  0  0  0  0
    5.3537    8.2200  -14.1957 C   0  0  0  0  0  0  0  0  0  0  0  0
    4.8157    8.8818  -15.4762 C   0  0  0  0  0  0  0  0  0  0  0  0
    6.3595    7.0993  -14.5197 C   0  0  0  0  0  0  0  0  0  0  0  0
    4.1665    7.8291  -16.3830 C   0  0  0  0  0  0  0  0  0  0  0  0
    5.7418    6.0478  -15.4647 C   0  0  0  0  0  0  0  0  0  0  0  0
    5.1618    6.6989  -16.7504 C   0  0  0  0  0  0  0  0  0  0  0  0
    7.2048    0.5256  -16.9516 C   0  0  0  0  0  0  0  0  0  0  0  0
    6.1753    8.0779  -22.1530 C   0  0  0  0  0  0  0  0  0  0  0  0
    5.1341   10.0572  -20.9247 C   0  0  0  0  0  0  0  0  0  0  0  0
    7.0755   10.4068  -22.4634 C   0  0  0  0  0  0  0  0  0  0  0  0
    4.2747    1.7805  -20.4747 C   0  0  0  0  0  0  0  0  0  0  0  0
    7.5445    9.2544  -20.3219 C   0  0  0  0  0  0  0  0  0  0  0  0
    5.1224    4.5726  -17.9825 C   0  0  0  0  0  0  0  0  0  0  0  0
    5.0929    2.6214  -19.4776 C   0  0  1  0  0  0  0  0  0  0  0  0
    4.2459    3.7587  -18.9189 C   0  0  2  0  0  0  0  0  0  0  0  0
    6.4641    9.4244  -21.4404 C   0  0  0  0  0  0  0  0  0  0  0  0
    8.2896    7.6369  -18.6098 N   0  0  0  0  0  0  0  0  0  0  0  0
    7.2726    8.2327  -19.2825 N   0  0  0  0  0  0  0  0  0  0  0  0
    5.5483    1.7748  -18.3572 N   0  0  0  0  0  0  0  0  0  0  0  0
    4.3611    5.7248  -17.5044 N   0  0  0  0  0  0  0  0  0  0  0  0
    7.7894    1.9554  -18.7658 O   0  0  0  0  0  0  0  0  0  0  0  0
    3.7830    4.5883  -19.9852 O   0  0  0  0  0  0  0  0  0  0  0  0
    8.2645   -0.1441  -22.5990 F   0  0  0  0  0  0  0  0  0  0  0  0
    5.0322   -3.0699  -20.6244 F   0  0  0  0  0  0  0  0  0  0  0  0
    6.6198    1.7747  -21.8737 H   0  0  0  0  0  0  0  0  0  0  0  0
    3.7278   -0.8583  -20.0528 H   0  0  0  0  0  0  0  0  0  0  0  0
    7.2686   -2.4845  -21.8949 H   0  0  0  0  0  0  0  0  0  0  0  0
    8.2480    6.3980  -16.8741 H   0  0  0  0  0  0  0  0  0  0  0  0
    5.0755    8.3230  -19.1461 H   0  0  0  0  0  0  0  0  0  0  0  0
    5.8543    8.9833  -13.5820 H   0  0  0  0  0  0  0  0  0  0  0  0
    4.5108    7.7921  -13.6331 H   0  0  0  0  0  0  0  0  0  0  0  0
    4.0666    9.6406  -15.2060 H   0  0  0  0  0  0  0  0  0  0  0  0
    5.6466    9.3619  -16.0139 H   0  0  0  0  0  0  0  0  0  0  0  0
    7.2437    7.5402  -15.0033 H   0  0  0  0  0  0  0  0  0  0  0  0
    6.6610    6.6067  -13.5836 H   0  0  0  0  0  0  0  0  0  0  0  0
    3.3049    7.3894  -15.8591 H   0  0  0  0  0  0  0  0  0  0  0  0
    3.8236    8.3170  -17.3073 H   0  0  0  0  0  0  0  0  0  0  0  0
    6.5203    5.3254  -15.7512 H   0  0  0  0  0  0  0  0  0  0  0  0
    4.9328    5.5240  -14.9345 H   0  0  0  0  0  0  0  0  0  0  0  0
    8.2871    0.3298  -16.9360 H   0  0  0  0  0  0  0  0  0  0  0  0
    6.8945    0.9469  -15.9840 H   0  0  0  0  0  0  0  0  0  0  0  0
    6.6646   -0.4155  -17.1318 H   0  0  0  0  0  0  0  0  0  0  0  0
    7.1196    7.6423  -22.5114 H   0  0  0  0  0  0  0  0  0  0  0  0
    5.6967    7.3843  -21.4460 H   0  0  0  0  0  0  0  0  0  0  0  0
    5.5043    8.2518  -23.0071 H   0  0  0  0  0  0  0  0  0  0  0  0
    5.3521   11.0109  -20.4217 H   0  0  0  0  0  0  0  0  0  0  0  0
    4.4600   10.2371  -21.7751 H   0  0  0  0  0  0  0  0  0  0  0  0
    4.6524    9.3696  -20.2140 H   0  0  0  0  0  0  0  0  0  0  0  0
    7.2853   11.3673  -21.9700 H   0  0  0  0  0  0  0  0  0  0  0  0
    8.0112    9.9868  -22.8609 H   0  0  0  0  0  0  0  0  0  0  0  0
    6.3654   10.5659  -23.2883 H   0  0  0  0  0  0  0  0  0  0  0  0
    4.0209    2.3964  -21.3501 H   0  0  0  0  0  0  0  0  0  0  0  0
    3.3501    1.4351  -19.9889 H   0  0  0  0  0  0  0  0  0  0  0  0
    8.4923    8.9871  -20.8121 H   0  0  0  0  0  0  0  0  0  0  0  0
    7.6546   10.2244  -19.8149 H   0  0  0  0  0  0  0  0  0  0  0  0
    5.4269    3.9507  -17.1278 H   0  0  0  0  0  0  0  0  0  0  0  0
    6.0169    4.9186  -18.5213 H   0  0  0  0  0  0  0  0  0  0  0  0
    5.9634    3.0450  -20.0000 H   0  0  0  0  0  0  0  0  0  0  0  0
    3.3989    3.3400  -18.3557 H   0  0  0  0  0  0  0  0  0  0  0  0
    4.8525    1.3597  -17.7711 H   0  0  0  0  0  0  0  0  0  0  0  0
    3.6283    5.3930  -16.9104 H   0  0  0  0  0  0  0  0  0  0  0  0
    3.9640    6.1896  -18.2958 H   0  0  0  0  0  0  0  0  0  0  0  0
    3.2351    4.0774  -20.5695 H   0  0  0  0  0  0  0  0  0  0  0  0
  1  7  2  0
  1  8  1  0
  2  7  1  0
  2  9  2  0
  3  8  2  0
  3  9  1  0
  4  6  1  0
  4 27  2  0
  5  6  2  0
  5 28  1  0
  6 16  1  0
  7 21  1  0
  8 33  1  0
  9 34  1  0
 10 17  1  0
 10 29  1  0
 10 31  2  0
 11 12  1  0
 11 13  1  0
 12 14  1  0
 13 15  1  0
 14 16  1  0
 15 16  1  0
 16 30  1  0
 18 26  1  0
 19 26  1  0
 20 26  1  0
 21 24  1  0
 22 26  1  0
 22 28  1  0
 23 25  1  0
 23 30  1  0
 24 25  1  0
 24 29  1  0
 25 32  1  0
 27 28  1  0
  1 35  1  0
  2 36  1  0
  3 37  1  0
  4 38  1  0
  5 39  1  0
 11 40  1  0
 11 41  1  0
 12 42  1  0
 12 43  1  0
 13 44  1  0
 13 45  1  0
 14 46  1  0
 14 47  1  0
 15 48  1  0
 15 49  1  0
 17 50  1  0
 17 51  1  0
 17 52  1  0
 18 53  1  0
 18 54  1  0
 18 55  1  0
 19 56  1  0
 19 57  1  0
 19 58  1  0
 20 59  1  0
 20 60  1  0
 20 61  1  0
 21 62  1  0
 21 63  1  0
 22 64  1  0
 22 65  1  0
 23 66  1  0
 23 67  1  0
 24 68  1  6
 25 69  1  1
 29 70  1  0
 30 71  1  0
 30 72  1  0
 32 73  1  0
M  CHG  1  30   1
M  END
>  <OMEGA_C>  (91) 
YI3JQGgkRz/74KzBLQKVQNOdNr9RraTBpTHVQA7w0L/6AK3Bs1b3QIjU30Ak4YzBJurAQNea/0DR
HZbBxG3IQLpA50CNSY3BwKaiQCtvFj/AWafB6eniQB5bqb4So6/BVSmuQK1M6b8Vj6fBnz/cQMZL
wj/3hJDBVFGrQO2EA0GDIWPBPxqaQLQbDkGannfBO4HLQMot40DKUGjBpVOFQO+H+kBMEIPBEr23
QKCHwUA8b3fB2y2lQL9d1kDAAIbBj43mQIuNBj/YnIfBSpzFQBg/AUFRObHBpEqkQHXqIEHiZafB
VWriQDaCJkEGtbPBLMqIQAno4z8hzKPBSWzxQBoSFEFTk6LB5uqjQGhSkkAk3I/BVfmiQDDFJ0AL
0pvBN96HQM+OcEDXWZfB0NnOQCnKFkHXhavBPqIEQRxh9EDs4JTB8rjoQAa5A0GcQprBCIyxQJss
4z9025LB+I2LQNcxt0AcCYzBtEL5QFFJ+j9FIJbBlRxyQAnTkkCg4Z/BYjsEQUiOE762yrTBbQeh
QHJ4RMDD/qTBItXTQBYp4z9F/a7BCJRuQEW6W78gbKDBt5joQAgCH8CoKK/ByvcDQcu8zEA5/obB
i2qiQN4qBUFPK5nBwVa7QIi7D0GuT1nBRliQQAJZ+UBGIVrBdyGCQOE/GkH2S3PB97C0QHXKFUFg
HIDBW8znQLpJ8UB+DXDBHCfVQC9q00A7VlnBIIRTQO917EDLvn3BFbV0QFYSBUFTdYrBHKbQQIpp
qkANBXzBN9mdQKbEsEDJ827B8JcEQXrWqD7dfIfB/Z/cQMBpcj9yvn/BKETVQG291L4FDonBF9Tj
QHON9EBzF7TBrku2QOpL7EBskavBkiOwQEcHBEGWDrjBYESrQIUsMEGbX6PBE7iOQF3LI0F8M67B
L+CUQArqFUFTtqHBhyHpQE7gNUGGwq/B1y0AQc7JH0Eo47bBdrHLQAcOKUFyTrrBi6uAQHdeGUDx
zKrBuGhWQGeytz9Y6Z/BU+AHQT/LD0Eef6bB4vL0QA2XI0EBhZ7BSamtQJfXfECzBYnBC4rAQNxk
nUCQK5TBD9S+QJTgQkD3/5/BAIdZQM/BVUBh2JLBYUebQOIJrj9HK47ByzVoQMCTrEB0SIfBdrF9
QD4RxkDbXZLBSQxPQE96gkA+jqTBfKrIQF43MT+++qzBLOyTQBjEP79YTKTB5KrTQCJB3L8dcazB
zFf2QCCl50CzX47BTPS7QLlT9EAy8pjBGMfGQIfD5kAI7o7BwM2hQOoWCT9wXqfBSKbhQDXb3r5T
eK/B8rSsQII38L+85abBYDbcQHjdxj+kPpDBZKmsQENIBEGYJmXB7hCbQD2PDkHSsnnBKunNQHXT
5UB8YGrB40mGQM38+kDT84PBMiS7QM1aw0A9UHnBVAamQFm91kCZ1YbBBjDnQLJsBz/yn4fB6lCm
QIZpIEGiOKjBxEjxQIsxLEGnEKPBdL3fQGNGI0GdK7bBzImIQNXh3z8cAqTBmP3kQDuiBUH/76jB
3N+jQMa2kEBW3o/BZt+iQNsGJUDP+5vBiOWHQGq2bUDcbJfBPNrWQPFGHUH2a6rB06ECQRDU9UBU
jJfBrkjiQIi7/EAsu53BXI+xQAa42z+EH5PBPqCLQBPrtUB1HYzBkiD5QLBiB0CaIJXBk3NyQCeh
kUA17Z/BcYUDQa35kL6PxLTBbCCfQPb1RsAJCKTBlzXTQGOj1j+bW6/BppNsQOYIXr9W9J/BWNHm
QK+OJcDxXq7BqLYEQdE03kBqkYfBdU2cQOSl90B/UJzBlde7QFa6EEH3SVvB/A+SQBEF+kD4NFzB
0AaDQFCxGkF/cnXBY3S1QGQzFkGsPoHBUpLpQEjT9EAPRHLBJlfYQEWS1kCyZVvB/rdVQIkU7UCp
V3/Bvy52QNgXBUE8YYvBWRLVQI27rUDDSn7B186iQLscsUCUc3DBOBQFQV333T5Q+YbB+wHaQGIg
XD/2z3/BlEzZQPT2475Mx4nBB7mTQKDGFUFWeK3BK2afQJeKHEEL0J/BT3adQKskMUEh0qnBKcwJ
QR/mKUE0qaTBHYzoQGnxPEEUqKTB+XvqQFVXKEH+pZrBGv8AQYYqIUH35rfB4NbMQLHfGEHad7vB
8rjWQKIRNEGxh7fBTU6BQBM7F0A5FavBJfFUQNjctj/ZN6DB7TrQQGfJ9kCa3a3B5ikDQZoJBEHF
pavB/yatQFSNeUBH/4jB9cXAQNN/m0CmG5TBEbO+QPZPQEAFKKDBDm9ZQFjEUkAq9pLBSHGbQOoD
nD9V7o7Byx1rQFbNq0Ag54bBa0t6QNpTw0CmaZLBY31PQJ1qgUBHpKTBTd7IQGhEKz9x2qzBDyuS
QKgtOr/7dqTBcEvRQEOc4L/1eKzBwzn3QLc330Can43BvQ7AQH3MAEFf+5XBinrIQOGf50B6eY3B
8IKhQP/XCz/xZqfBXMTgQKRg9r6sW6/BF/mpQOk38L+yCafBbNbaQKSgxj8XBZDB83OuQFslAUFK
O2LBsmmcQFaoDEFQB3bBzIrOQKAr30BAomjBmcuGQInx+EBQgILBizq6QN7nvkAzRXjBqlOmQMVq
1UCTD4bBZ1fkQFbtAz9wYIfBNnvhQDypJEETn7TBmXi6QEHWAkGk/6/BAYKmQPFFJkH1GKfBGOuI
QAkG5D+VMqTBZq/vQDioFEHz2qLBGLikQB4tkkAOQZDBvD2jQKvCJkA6I5zBqK+IQIQacUAS0pfB
y+bLQOI2GEGMaKvBuBcEQZL780BwtZXBvUnnQFZIBEFwjprBWZGwQAhy3z88IJPB4GqMQNnTtkBW
OIzB+5H4QMzyBUCcvZTB9ih2QAhQk0CfbaDBR0IDQW7uub4wjbTB4iebQLc6RsBTPaTBxJ/UQKmQ
0j9kGa/BoFNoQAQCUr8aPqDBD5XjQCrVKMBNba7BuzUEQfFUy0DLA4jBb2qhQAHyBkEniZjBg8K+
QPXmDEEs+1fBJ+OTQOCb80C7UVnBm8SEQNylGEFo6HDB4Ku2QPamFEGWmX7BvWLqQKEo7kCeXXDB
hPzYQIwSzkC5KVrB6WdXQHwX6kC/kXzBtgJ2QMnuBEHroYnB5RDTQDp6qEA3un3BY/KgQEMgrUAO
2W/Bv5UDQRU+yT4Oj4bBZdLWQPxcWj93bX/BMN/VQMf05L5ooInBPB7uQPvnM0EHkLHBhd/7QFoT
G0Gu7bfBFNLJQMzcJ0Hn77rBpOqqQO9S80D7kqnBdAyjQKY+BkHAV7bB5RnVQGjq8kCHVbPBpl2W
QGjeHUGZgKDBb0yzQHaXNUFaLKTBH3WPQF5KKUEsk63B3XyCQLURGUAlV6vB8d9UQAj/vT88fqDB
E4EGQUv1D0F2HqfBAfv0QA4AJEGUwJ7BrKCuQHile0Dig4nBLD3BQJWYnUDBjJTBWbC/QBFfQECf
NqDBR/JZQB2+V0DNapPBxbmZQLjloj+S/o7BxQ1qQJ/kq0COfofBbkR/QOc8xkDldZLBGg5TQA9O
g0CkK6XB

>  <OMEGA_E>  (91) 
kKdGPgyZlD449zs+

>  <OMEGA_NBR>  (91) 
     84386

$$$$
50168355
     RDKit          3D

 71 73  0  0  1  0  0  0  0  0999 V2000
    8.5859    7.5365  -18.4603 C   0  0  0  0  0  0  0  0  0  0  0  0
    7.6487    7.0590  -17.5283 C   0  0  0  0  0  0  0  0  0  0  0  0
    8.1590    8.2047  -19.6210 C   0  0  0  0  0  0  0  0  0  0  0  0
    5.8464    7.8671  -18.9500 C   0  0  0  0  0  0  0  0  0  0  0  0
    6.3820    0.7991  -21.5792 C   0  0  0  0  0  0  0  0  0  0  0  0
    4.5939   -0.6573  -20.7719 C   0  0  0  0  0  0  0  0  0  0  0  0
    6.6523   -1.6229  -21.6562 C   0  0  0  0  0  0  0  0  0  0  0  0
    6.2617    7.2412  -17.7517 C   0  0  0  0  0  0  0  0  0  0  0  0
    6.7777    8.4001  -19.8700 C   0  0  0  0  0  0  0  0  0  0  0  0
    5.1009    0.6362  -21.0074 C   0  0  0  0  0  0  0  0  0  0  0  0
    7.1606   -0.3300  -21.8924 C   0  0  0  0  0  0  0  0  0  0  0  0
    5.3664   -1.7851  -21.1024 C   0  0  0  0  0  0  0  0  0  0  0  0
    6.8042    1.4317  -18.0767 C   0  0  0  0  0  0  0  0  0  0  0  0
    4.2133    7.8599  -16.3592 C   0  0  0  0  0  0  0  0  0  0  0  0
    5.7284    6.0291  -15.4810 C   0  0  0  0  0  0  0  0  0  0  0  0
    4.8826    8.8104  -15.3586 C   0  0  0  0  0  0  0  0  0  0  0  0
    6.2758    7.0571  -14.4675 C   0  0  0  0  0  0  0  0  0  0  0  0
    5.1791    6.7143  -16.7780 C   0  0  0  0  0  0  0  0  0  0  0  0
    7.0774    0.4118  -16.9755 C   0  0  0  0  0  0  0  0  0  0  0  0
    5.8779    7.9996  -22.1805 C   0  0  0  0  0  0  0  0  0  0  0  0
    7.3571   10.0025  -21.7959 C   0  0  0  0  0  0  0  0  0  0  0  0
    5.0382    9.9857  -20.8649 C   0  0  0  0  0  0  0  0  0  0  0  0
    4.3058    1.8441  -20.5710 C   0  0  0  0  0  0  0  0  0  0  0  0
    5.0810    4.5384  -17.9314 C   0  0  0  0  0  0  0  0  0  0  0  0
    5.0870    2.6291  -19.4972 C   0  0  1  0  0  0  0  0  0  0  0  0
    4.2322    3.7571  -18.9245 C   0  0  2  0  0  0  0  0  0  0  0  0
    6.2750    9.0888  -21.1585 C   0  0  0  0  0  0  0  0  0  0  0  0
    5.4846    1.7220  -18.4031 N   0  0  0  0  0  0  0  0  0  0  0  0
    4.3512    5.7395  -17.5099 N   0  0  0  0  0  0  0  0  0  0  0  0
    7.7399    2.0435  -18.5813 O   0  0  0  0  0  0  0  0  0  0  0  0
    5.2836    8.0650  -14.1929 O   0  0  0  0  0  0  0  0  0  0  0  0
    3.8134    4.6215  -19.9812 O   0  0  0  0  0  0  0  0  0  0  0  0
    8.4004   -0.1729  -22.4084 F   0  0  0  0  0  0  0  0  0  0  0  0
    4.8787   -3.0241  -20.8711 F   0  0  0  0  0  0  0  0  0  0  0  0
    9.6411    7.3892  -18.2836 H   0  0  0  0  0  0  0  0  0  0  0  0
    7.9874    6.5507  -16.6376 H   0  0  0  0  0  0  0  0  0  0  0  0
    8.8886    8.5716  -20.3277 H   0  0  0  0  0  0  0  0  0  0  0  0
    4.7910    7.9397  -19.1675 H   0  0  0  0  0  0  0  0  0  0  0  0
    6.7637    1.7901  -21.7759 H   0  0  0  0  0  0  0  0  0  0  0  0
    3.6128   -0.7825  -20.3381 H   0  0  0  0  0  0  0  0  0  0  0  0
    7.2484   -2.4900  -21.8997 H   0  0  0  0  0  0  0  0  0  0  0  0
    3.3175    7.4222  -15.8945 H   0  0  0  0  0  0  0  0  0  0  0  0
    3.9214    8.4285  -17.2544 H   0  0  0  0  0  0  0  0  0  0  0  0
    6.5392    5.3401  -15.7602 H   0  0  0  0  0  0  0  0  0  0  0  0
    4.9132    5.4630  -15.0066 H   0  0  0  0  0  0  0  0  0  0  0  0
    5.7671    9.2706  -15.8233 H   0  0  0  0  0  0  0  0  0  0  0  0
    4.1713    9.5968  -15.0658 H   0  0  0  0  0  0  0  0  0  0  0  0
    6.5373    6.5408  -13.5320 H   0  0  0  0  0  0  0  0  0  0  0  0
    7.1737    7.5360  -14.8852 H   0  0  0  0  0  0  0  0  0  0  0  0
    8.1583    0.3675  -16.7760 H   0  0  0  0  0  0  0  0  0  0  0  0
    6.5476    0.7109  -16.0591 H   0  0  0  0  0  0  0  0  0  0  0  0
    6.7232   -0.5787  -17.2971 H   0  0  0  0  0  0  0  0  0  0  0  0
    5.5176    8.4765  -23.1039 H   0  0  0  0  0  0  0  0  0  0  0  0
    6.7537    7.3742  -22.4085 H   0  0  0  0  0  0  0  0  0  0  0  0
    5.0799    7.3724  -21.7564 H   0  0  0  0  0  0  0  0  0  0  0  0
    6.9538   10.4688  -22.7069 H   0  0  0  0  0  0  0  0  0  0  0  0
    7.6438   10.7861  -21.0792 H   0  0  0  0  0  0  0  0  0  0  0  0
    8.2406    9.3997  -22.0531 H   0  0  0  0  0  0  0  0  0  0  0  0
    4.7013   10.4631  -21.7969 H   0  0  0  0  0  0  0  0  0  0  0  0
    4.2259    9.3674  -20.4553 H   0  0  0  0  0  0  0  0  0  0  0  0
    5.3129   10.7611  -20.1345 H   0  0  0  0  0  0  0  0  0  0  0  0
    4.1256    2.4949  -21.4393 H   0  0  0  0  0  0  0  0  0  0  0  0
    3.3429    1.5150  -20.1533 H   0  0  0  0  0  0  0  0  0  0  0  0
    5.2920    3.9097  -17.0538 H   0  0  0  0  0  0  0  0  0  0  0  0
    6.0277    4.8320  -18.4083 H   0  0  0  0  0  0  0  0  0  0  0  0
    5.9851    3.0630  -19.9612 H   0  0  0  0  0  0  0  0  0  0  0  0
    3.3631    3.3279  -18.4045 H   0  0  0  0  0  0  0  0  0  0  0  0
    4.7612    1.2903  -17.8642 H   0  0  0  0  0  0  0  0  0  0  0  0
    3.5973    5.4579  -16.9163 H   0  0  0  0  0  0  0  0  0  0  0  0
    3.9840    6.1873  -18.3252 H   0  0  0  0  0  0  0  0  0  0  0  0
    3.2839    4.1325  -20.6000 H   0  0  0  0  0  0  0  0  0  0  0  0
  1  2  2  0
  1  3  1  0
  2  8  1  0
  3  9  2  0
  4  8  2  0
  4  9  1  0
  5 10  2  0
  5 11  1  0
  6 10  1  0
  6 12  2  0
  7 11  2  0
  7 12  1  0
  8 18  1  0
  9 27  1  0
 10 23  1  0
 11 33  1  0
 12 34  1  0
 13 19  1  0
 13 28  1  0
 13 30  2  0
 14 16  1  0
 14 18  1  0
 15 17  1  0
 15 18  1  0
 16 31  1  0
 17 31  1  0
 18 29  1  0
 20 27  1  0
 21 27  1  0
 22 27  1  0
 23 25  1  0
 24 26  1  0
 24 29  1  0
 25 26  1  0
 25 28  1  0
 26 32  1  0
  1 35  1  0
  2 36  1  0
  3 37  1  0
  4 38  1  0
  5 39  1  0
  6 40  1  0
  7 41  1  0
 14 42  1  0
 14 43  1  0
 15 44  1  0
 15 45  1  0
 16 46  1  0
 16 47  1  0
 17 48  1  0
 17 49  1  0
 19 50  1  0
 19 51  1  0
 19 52  1  0
 20 53  1  0
 20 54  1  0
 20 55  1  0
 21 56  1  0
 21 57  1  0
 21 58  1  0
 22 59  1  0
 22 60  1  0
 22 61  1  0
 23 62  1  0
 23 63  1  0
 24 64  1  0
 24 65  1  0
 25 66  1  6
 26 67  1  1
 28 68  1  0
 29 69  1  0
 29 70  1  0
 32 71  1  0
M  CHG  1  29   1
M  END
>  <OMEGA_C>  (92) 
sF8JQWgr8UCurpPBL8L0QEzj4UD6OYzBPIsCQW9GA0HP95zBdRW7QHe/+0CLmZfBOTnMQKiTTD8k
oqzBHAGTQEhGKL/uLKbB69/UQP+6z7/vP63BCGDIQB+450CJA47BA+PYQOBmBkHD9Z7BSjqjQAfh
Ij8bD6jBAyTlQKr1qL6TI6/BY7mrQP1+5L+q0ajB47vZQHNAtz8UnZDBXNOGQP6D+0C434LBJE+3
QCbuwEAqsnfBZT6cQHL3DEHsvHXBptPIQNLT4UDGemfBTbulQDjb1kBrOYbBW3riQO3Q0j7AzYfB
2he8QMz8/0CkcbHBe23rQDEKIEEXXq7BRDmhQKDFH0FN66bBCsmJQDwK7D9UkaTBf5eiQGw6kUCI
c4/Bh8iiQHdDKEBe+pvBz22HQBR0cEBkZZfBaMzIQLdrEUGFRKnBn4GvQJFq3D+GOZPBrzyLQNap
t0BPFIzBT633QOXHAkB7ppTBYhOpQBIKAUE2FmPBPQ90QHPjk0B92Z/BDmgGQaoDMb5wRLPBWR6c
QEiLQcAc+KbB0EEaQX507EC6RJLBMJn/QH6f0UDfGYXBtTcOQRwlCUE3n6LB5E+ZQNkR/kAfV5nB
knDYQOIg5T8NNa7BmThnQB5VSL9atKLB8fLnQH1bH8CjMq/BHFFUQPuC7UAQUH7ByPd6QDvbBkEc
CYrB/EDRQOHhqkCbKXzBHzmdQN7QrkAkG3DB/ou4QEFUFEFoLH3BoXuFQFeMGUGPDXHBLzHRQBRO
0UArg1jB7I7lQMgm8UDrKW7BXIgCQWoivD44NYbBiIXRQEj/NT8MeYDBMyTXQKMnFL9xYIrBHpCw
QJmfB0Hj1LjB8R3YQM/560CfRLPBt46iQA7r60ANDa7BQIXeQCuAJ0HDp7XB/Jn0QOGTLEEloqjB
ltkDQVllFkGubLDBA3GWQLVoJ0ENYK7BujqHQNfgFUFypKPB7QKqQFItLEF2E6HB7ASEQHasH0Ca
g6vBR/FVQPHqwT/tOaHBZlipQPY3ekA3bojBTOPAQAOgmkA2RJPBtIW/QHYHREB1sJ/BRTxXQMT7
VEBcPJPB9luYQJ0ppT/T6Y7BfjpmQAKnrkB+VIfBIfp+QEb+xUD/mZLBLStSQAw9hEDFzKTBdFsJ
QQo48UAI55PBGfH0QDTq4UBXZ4zBHWUCQfNiA0F5IZ3B/Oq6QJ1J/EAUl5fBYzaUQHL7J79qLabB
RgXNQCPcTj+ywKzB5PrVQKNwzr8GZK3BxIHIQGAE6ECWEI7BbI7YQK+mBkGGAZ/BYS6kQPTEIz8Y
G6jBv/usQNPw479D4qjBtADmQJepor6XUK/BmOLZQNeCtj/EmZDB0FWHQDCB+0DCu4LBFU+4QIEI
wUCo0XfBzTGdQPL7DEETnHXB7mfKQMHw4UBJwWfB3iamQGD31kDSN4bBzEPiQClTwz7v84fB0oi+
QHk7AEGQuLHBsCbqQLtdIUHH+K3BSzGfQN3kHkEyKKfBPZCKQAs17D+Ko6TBCU+jQHDUkUBiro/B
dFWjQO57KEDoBZzBEOCHQN6vcEAwd5fBtXLIQManEUHtTqnBrcSvQOSk3D/RQZPBko+LQCCmt0A5
B4zBD/f3QD9bA0AgbJTBXMeqQEUSAUFOE2PBsZlzQFaYk0D87Z/BvXidQNxsQcCAFqfB6LEGQQjh
Hr4OmbPB5kEaQRZj7EDdkJLB6Pr/QLtn0UArVYXB/fsNQW85CUEM1qLBXxeZQF/W/kDtPZnBKPdp
QCIbSb/on6LBFxLZQPl75j/OVq7Byx/pQDSLHsDcXq/Bd+xVQJBj7UBnzn3Bd+56QKrZBkHY2YnB
fg/SQFXqqkB4eXzBC2ueQMj+rkDxBHDBOy25QJZpFEGfR33BKn+GQJ6DGUHstnDBZlXTQEBr0UB1
3ljBbN/mQElM8UC7sm7BLmICQToNrD5oP4bBxODQQKFYKD+JoIDBUC7XQIA1Gr9Uv4rBfQGzQNbS
B0FhHrnBocjbQLke7kBOb7PBDcKlQFHO6kAHma7B/WbdQLzSKEEnR7XBx0/xQIbaLUHWCKjBBs8D
QTCMGEFX56/B9o6UQNuCJkGmoa7B99uFQOM8FEG8KqTBw/mlQOxLK0HiJaHBbdqEQCe7H0Aul6vB
7XJXQPS1wT+YVKHBe2mrQB9Ue0A7wojBu+HAQNERnECbtZPBKC3AQK03REAGsJ/B+s9YQMYjVUBd
LJPBknmYQFzvpT/L947BdSdoQKXvrUCiKofBoNd9QCQkxkAwbJLBw1xRQAimg0BTyKTB

>  <OMEGA_E>  (92) 
AObuPSDf7j0=

>  <OMEGA_NBR>  (92) 
     86961

$$$$
50168361
     RDKit          3D

 70 73  0  0  1  0  0  0  0  0999 V2000
    8.5258    7.5189  -18.5367 C   0  0  0  0  0  0  0  0  0  0  0  0
    8.0470    8.0072  -19.7672 C   0  0  0  0  0  0  0  0  0  0  0  0
    7.6242    7.0932  -17.5433 C   0  0  0  0  0  0  0  0  0  0  0  0
    5.7671    7.6638  -19.0053 C   0  0  0  0  0  0  0  0  0  0  0  0
    6.4196    0.7581  -21.5491 C   0  0  0  0  0  0  0  0  0  0  0  0
    4.5866   -0.6507  -20.7585 C   0  0  0  0  0  0  0  0  0  0  0  0
    6.6418   -1.6700  -21.5890 C   0  0  0  0  0  0  0  0  0  0  0  0
    6.6514    8.0506  -20.0152 C   0  0  0  0  0  0  0  0  0  0  0  0
    6.2270    7.1964  -17.7618 C   0  0  0  0  0  0  0  0  0  0  0  0
    5.1245    0.6296  -21.0008 C   0  0  0  0  0  0  0  0  0  0  0  0
    7.1810   -0.3909  -21.8318 C   0  0  0  0  0  0  0  0  0  0  0  0
    5.3423   -1.7987  -21.0586 C   0  0  0  0  0  0  0  0  0  0  0  0
    6.8042    1.4910  -18.0271 C   0  0  0  0  0  0  0  0  0  0  0  0
    6.9965    8.7736  -22.4553 C   0  0  0  0  0  0  0  0  0  0  0  0
    4.2179    7.8993  -16.3911 C   0  0  0  0  0  0  0  0  0  0  0  0
    5.7309    6.0930  -15.4445 C   0  0  0  0  0  0  0  0  0  0  0  0
    7.3827   10.2241  -22.1979 C   0  0  0  0  0  0  0  0  0  0  0  0
    4.9209    8.8943  -15.4606 C   0  0  0  0  0  0  0  0  0  0  0  0
    6.2812    7.1635  -14.4740 C   0  0  0  0  0  0  0  0  0  0  0  0
    5.3184    9.8614  -21.1394 C   0  0  0  0  0  0  0  0  0  0  0  0
    6.0178    8.4974  -21.3302 C   0  0  2  0  0  0  0  0  0  0  0  0
    5.1646    6.7208  -16.7565 C   0  0  0  0  0  0  0  0  0  0  0  0
    7.0551    0.4244  -16.9653 C   0  0  0  0  0  0  0  0  0  0  0  0
    4.3450    1.8609  -20.5979 C   0  0  0  0  0  0  0  0  0  0  0  0
    5.0854    4.5423  -17.9247 C   0  0  0  0  0  0  0  0  0  0  0  0
    5.1186    2.6492  -19.5200 C   0  0  1  0  0  0  0  0  0  0  0  0
    4.2637    3.7891  -18.9655 C   0  0  2  0  0  0  0  0  0  0  0  0
    5.4933    1.7477  -18.4129 N   0  0  0  0  0  0  0  0  0  0  0  0
    4.3299    5.7109  -17.4453 N   0  0  0  0  0  0  0  0  0  0  0  0
    7.7567    2.0020  -18.6069 O   0  0  0  0  0  0  0  0  0  0  0  0
    6.1674   10.8660  -21.7512 O   0  0  0  0  0  0  0  0  0  0  0  0
    5.3098    8.2065  -14.2569 O   0  0  0  0  0  0  0  0  0  0  0  0
    3.9025    4.6727  -20.0278 O   0  0  0  0  0  0  0  0  0  0  0  0
    8.4337   -0.2659  -22.3249 F   0  0  0  0  0  0  0  0  0  0  0  0
    4.8249   -3.0248  -20.8221 F   0  0  0  0  0  0  0  0  0  0  0  0
    9.5892    7.4708  -18.3543 H   0  0  0  0  0  0  0  0  0  0  0  0
    8.7413    8.3481  -20.5210 H   0  0  0  0  0  0  0  0  0  0  0  0
    7.9967    6.6877  -16.6141 H   0  0  0  0  0  0  0  0  0  0  0  0
    4.7038    7.7254  -19.1843 H   0  0  0  0  0  0  0  0  0  0  0  0
    6.8256    1.7382  -21.7515 H   0  0  0  0  0  0  0  0  0  0  0  0
    3.5948   -0.7502  -20.3426 H   0  0  0  0  0  0  0  0  0  0  0  0
    7.2245   -2.5521  -21.8095 H   0  0  0  0  0  0  0  0  0  0  0  0
    6.5170    8.6570  -23.4384 H   0  0  0  0  0  0  0  0  0  0  0  0
    7.8722    8.1108  -22.3936 H   0  0  0  0  0  0  0  0  0  0  0  0
    3.3255    7.5016  -15.8857 H   0  0  0  0  0  0  0  0  0  0  0  0
    3.9164    8.4186  -17.3127 H   0  0  0  0  0  0  0  0  0  0  0  0
    6.5444    5.4003  -15.7059 H   0  0  0  0  0  0  0  0  0  0  0  0
    4.9252    5.5389  -14.9407 H   0  0  0  0  0  0  0  0  0  0  0  0
    8.1590   10.2847  -21.4210 H   0  0  0  0  0  0  0  0  0  0  0  0
    7.7507   10.6951  -23.1214 H   0  0  0  0  0  0  0  0  0  0  0  0
    5.8133    9.3004  -15.9594 H   0  0  0  0  0  0  0  0  0  0  0  0
    4.2341    9.7166  -15.2114 H   0  0  0  0  0  0  0  0  0  0  0  0
    6.5211    6.6882  -13.5114 H   0  0  0  0  0  0  0  0  0  0  0  0
    7.1933    7.6041  -14.9028 H   0  0  0  0  0  0  0  0  0  0  0  0
    4.3331    9.8517  -21.6283 H   0  0  0  0  0  0  0  0  0  0  0  0
    5.1938   10.0747  -20.0675 H   0  0  0  0  0  0  0  0  0  0  0  0
    5.2784    7.7509  -21.6559 H   0  0  0  0  0  0  0  0  0  0  0  0
    8.1371    0.2539  -16.8646 H   0  0  0  0  0  0  0  0  0  0  0  0
    6.6461    0.7629  -16.0019 H   0  0  0  0  0  0  0  0  0  0  0  0
    6.5625   -0.5128  -17.2637 H   0  0  0  0  0  0  0  0  0  0  0  0
    4.1952    2.5013  -21.4796 H   0  0  0  0  0  0  0  0  0  0  0  0
    3.3676    1.5571  -20.1951 H   0  0  0  0  0  0  0  0  0  0  0  0
    5.3025    3.8749  -17.0777 H   0  0  0  0  0  0  0  0  0  0  0  0
    6.0296    4.8784  -18.3781 H   0  0  0  0  0  0  0  0  0  0  0  0
    6.0262    3.0727  -19.9750 H   0  0  0  0  0  0  0  0  0  0  0  0
    3.3664    3.3699  -18.4867 H   0  0  0  0  0  0  0  0  0  0  0  0
    4.7586    1.2934  -17.9090 H   0  0  0  0  0  0  0  0  0  0  0  0
    3.6290    5.3929  -16.8069 H   0  0  0  0  0  0  0  0  0  0  0  0
    3.8917    6.1471  -18.2312 H   0  0  0  0  0  0  0  0  0  0  0  0
    3.3909    4.1997  -20.6736 H   0  0  0  0  0  0  0  0  0  0  0  0
  1  2  2  0
  1  3  1  0
  2  8  1  0
  3  9  2  0
  4  8  2  0
  4  9  1  0
  5 10  2  0
  5 11  1  0
  6 10  1  0
  6 12  2  0
  7 11  2  0
  7 12  1  0
  8 21  1  0
  9 22  1  0
 10 24  1  0
 11 34  1  0
 12 35  1  0
 13 23  1  0
 13 28  1  0
 13 30  2  0
 14 17  1  0
 14 21  1  0
 15 18  1  0
 15 22  1  0
 16 19  1  0
 16 22  1  0
 17 31  1  0
 18 32  1  0
 19 32  1  0
 20 21  1  0
 20 31  1  0
 22 29  1  0
 24 26  1  0
 25 27  1  0
 25 29  1  0
 26 27  1  0
 26 28  1  0
 27 33  1  0
  1 36  1  0
  2 37  1  0
  3 38  1  0
  4 39  1  0
  5 40  1  0
  6 41  1  0
  7 42  1  0
 14 43  1  0
 14 44  1  0
 15 45  1  0
 15 46  1  0
 16 47  1  0
 16 48  1  0
 17 49  1  0
 17 50  1  0
 18 51  1  0
 18 52  1  0
 19 53  1  0
 19 54  1  0
 20 55  1  0
 20 56  1  0
 21 57  1  6
 23 58  1  0
 23 59  1  0
 23 60  1  0
 24 61  1  0
 24 62  1  0
 25 63  1  0
 25 64  1  0
 26 65  1  6
 27 66  1  1
 28 67  1  0
 29 68  1  0
 29 69  1  0
 33 70  1  0
M  CHG  1  29   1
M  END
>  <OMEGA_C>  (93) 
0mkIQTab8EA+S5TBm8AAQWodAEExI57BT/nzQHL74kCWWIzBNIy4QPE99UDiCpjBeG3NQMoTQj+d
ZKzBPcWSQM6UJr9SEabBW4nUQO3B1b9FtqzBjtjUQETPAEElH6DBw0PHQP9I5kAsGI7Bh/ujQH8w
IT+SAajB4crlQG8kyL59p67BwfOqQCs85r/8d6jBDbzZQDbYvj9/N5DBDePfQIxgDEFwpLPB9viG
QO3G/EAKIYPBPmO3QHj5wkDRHHfBRT/sQB6WI0FhlbHBFXidQC1PDkGkXnfBif/IQIw75UB2lWfB
XTCqQDLIHUGLHanBk5HAQH31B0E/pKrBAkSlQKkQ10BgDYbBFsPhQFtK2T4HuYfBYAqLQCIz7j9+
yKTBs7uiQDFakUDiZY/BxMujQC+NKUD9KJzBGXCIQKuAckBGuZfB9MivQGO03z+VTZPBbo6KQNq/
tkDjj4vB0Tb4QCYhAEDi2pTBD1vFQBXbLUFrAq7BjOmpQLNNA0EcHGTBH8J5QLmGlUDtOKDBb/AG
QVMqiL5/mbLBqGWaQGmWQcChk6bBd20ZQTQR70CW1ZLBTNwLQcORBUHwKqTB/uT/QAQC1kDG6YTB
yYWWQFE290B0eZnBOGvaQGB+3j8SA67BqxFmQB4OQL+ovaLBbS/nQOpVI8DNea7BLYvQQECDCkHe
gbvBNun7QOHFAUESJrPBWtVUQLsM8EC3K37B36V6QL+yBkF9gIrBz2vRQOnOrEBoS3vBOZudQGQ+
sUDyDG/Bc4sCQfONJEEsXqvB2gX4QP8eK0Gs+LjBUga6QFDOFEHOWX/BbH2HQEB3G0EDYnPBy6zQ
QAgG1kC/LljB7C/mQIBU80DscW7BdKiKQISgHUHJBq3BsDOmQB0yIUFOiqDB3uioQJcH+EBVP63B
iDECQer+gT7A6obB4azUQDtPQz/6A4DBTwDSQERIA78mHIrBKj+GQNMVIEBH1qvBKoZXQFRPxz99
j6HBUq6pQLb9d0Axn4jBefLAQAocnEBNBpPBbdbAQIqnREDNzJ/B+nJXQBqtV0Dc5JPBzEaYQIaM
pT+qRY/B20BoQE2SrEB5dIbBdhF5QBq1xECG2ZHB2gRZQN1jhkCPY6XBC2sLQUMj8EBUQJLBUUcG
QWmXAEGCSpzBRlL2QK/K4kAvQ4vBPJXAQFm5+EAFS5jB90/MQPOITD8haKzB1dyTQBvBLr9k46XB
NcXVQEQ4z79tL63B5pzhQFk4AkEsjJ/Bcp/KQNmj50C2DY7BRJijQCUVHj+auKfBUoXlQOJPo769
Ca/BENGsQMZL5r9Er6jB9B7bQHZPwD/sP5DBOYXRQE/OIkEtmKrBsWWHQAZV/UB8qoPBv3G1QJ2e
wUA+/nfBdZ6hQIp7JEHnS6jBY+WaQDVODUF6MXbBKjLFQE/f4UCKBmfBSX2vQHCAAkH00K/BlvjY
QLbZCkFCzqrBjhemQLYH2EC2kobB4BflQGBf2j6p9IfBP7OJQDb15z88LqTBF/6iQEYkkkCsrY/B
y9+iQIPEJ0DIxpvBOFiHQFnlb0BzQJfBmZiwQIBD3j/r9JLBusyLQPsBuUB5i4zBNJf4QOrOAkAF
EpXBk/ONQANJEUFPqqzB1fqkQLryAEG0YmPB5SJxQOaKkkDqxp/BLnYGQSzfE74gSLPBuoKdQKPg
QsAt+6bBW/gbQW9A7UCI4I/Bt+ESQW3xBUHNj6HBirL+QFKm1ECAqYPBTISfQGPY/EC5lZrBYRXY
QG7R5T/e963BRFZpQL9TUr/NVqLBTxfpQDSSHsANN6/BaonZQH4eKkEEWLLBWWrkQJ93KkH4O6TB
DXBSQMHw70BZnYDBgfWAQMwmCEHU5orB+NXPQGWsq0AY5XvBqY6aQLFRr0AkQ3HBdAScQPxfJUG/
np/BvEGUQGvLMkHFLazBMku4QJutFEFQd3zBxcqDQCTnGUH6/nHB8sPLQDrd0EB5+FfBCq7iQINa
8UBcumzBAWiyQOoSAkFWlbjBIlioQJ+u5EDE0qzBAi70QDQVB0G0D7DBifYDQam1jz6ddYfBiczY
QEi3PT9yGoDBZ7vVQEqTBL8vU4rBSPSCQIjrHEBVI6vBP8NWQNzduz/7qKDB9FWqQFInfkAng4jB
YPfAQEMKm0B7uJPBgDO/QKnLQ0C+pp/BjX9YQJVhVEB2z5LBKuyZQJWCoz8/q47BGRhmQHV8sECm
8YfB0vaAQORGx0BbLJPBsJpOQDgmgkCtgKTBw1gKQSAG60Czc5PBgzsEQRCKAUHjc5zBUpL1QNaP
3EBzI4zBUtq9QMc3+0CXSZfBheXMQAfpST+bYazBDmSUQA4tLr9mt6XB2YHWQGCl0L8HyqzBrNTc
QO+4BUHbXJ7BE57JQACk5UCF4Y3B4xSkQGbhHT+XuqfBJDnmQDzjqr5+z67BmnmtQFCv5r+TUKjB
T4/aQNwKvz/lYJDBq3agQAz5F0EmwajBp/aGQNHm/ECmaIPB31O1QMzPwkDvJXfBE/CfQKXrJEEo
/7LBCxudQBhxDkFj4XfB4d/HQLgM5UCJ5GfBR7rgQOqjEUGc5bHBNDXQQA0iFkGkrqbBiHKlQDEN
10BGRYbB4ozjQFMK4T7W1ofBvyeKQAAD6T+qXqTBG6WiQKLgkUB9qY/BQxCjQCXCKECe9pvBRm+H
QEkFcUAyg5fBRT2wQKZG4T8ADpPB9OyKQPK+t0D4E4zB+2/4QMAr/T+Wa5XBYcbGQFAnH0G2wbjB
/lGpQMqEA0E9iGTBBo9zQBevk0ABCqDBKtgGQV6+Kr5BCbPBhzSeQFDmQsArd6bB0wQbQcWb40Cu
I5LBcTwQQeiOB0H+46HBmzT/QGl+ykCfLYXBNFicQLpt/0BHH5nBI6nYQJEW5D/XEq7BcEdqQCMY
UL/QLqLB8unpQL+AH8Blq67BuxqQQLtwIEGSNqLBwbGRQOYoCEFO5KnBUZlUQCwr8EAq1H7BXQx7
QA+4BkFnz4rB/VrOQDIeq0BSunrBBT+aQM7ZskCAOm/BS4WDQGXpIEGZybfBiNSfQB0jNkGZK7HB
0L65QAP3FEGTw3/B5viGQFOSG0FUBXTB44XPQFAT1kA5bljByTLlQIl38kDI8m7Bk2IBQenoFUHE
kbLBNXTcQGSrAEFA+LPBUTfcQBLfJUHIIaTBqhgDQTZLgT6AZYfBowjYQHbzTD+TCoDBweXSQO/v
/L6U64nBq9SDQHrmHEDGZqvB6D5XQOMQvj/q6KDBWGGqQApfe0DXt4jBhmzAQEj+m0BDnZPBk5K/
QGOCREAZyZ/BN4NXQFKeVUBSSpPBHUWZQKZiqj+hqo7BladmQOkmrkB8PIfBqOF8QNErxkA1gJLB
n5xRQHO3g0Bo66TBsJ8IQU6T7UCvt5TBEM4BQcc2BEE3DZ3B+LjzQEAS3kDxLY3B6XK6QBmgAUGe
hJbBeqDMQFkIOz/IfazBAWCSQHJ4Lb8M7aXBxQ3UQKcr2b/LoKzBy+vXQDELCkG6553BgsfHQH4Z
6UCt7o3BRlujQD4rGj/1AajBuhLlQHzl1b4nta7BO6CqQFup6b94SajBzoDZQB6Psz8InZDBrSOn
QJNvDkHNrq3BcQWGQMhM+kDGaILBBnK4QDpywUDA33fBXGDEQK9QAkHscbXBtZicQHcXDUE/7nXB
ghHMQAgd40BaqmjB6H7oQOdSIEH6u67BwiLHQCCmGUGCa6bB256lQJDk1kBbNYbByj3hQOMtwz5U
wYfBDY+KQLzS6j8kwqTBr+mjQFz7kUBU3o/Bk5qjQAS1J0DqKZzBE4qIQADYcEBprJfBPJCvQO+n
2z9bVJPBqrKLQI96t0AIKozB0fH3QGIeAEDwiZTB+wLtQKrHDUF3l7XBIdisQAXKAUHVh2PBw+h1
QKaek0AoMaDBuoIGQdZjlb6rvLLBQVKaQHhFQ8DAPqbBjkoZQU3M5EAmGZTBETsNQXMcCkHm0qLB
eY3+QNWbyUDDw4bB0NqYQMc+BUEGb5fBfmzZQFzr2j8VOK7BpoplQDjdRr9mhaLB1cLmQHMGJcB/
XK7BI+6SQJQOGkF98bHBD7ySQM9bA0HmIKnBcppWQHBG60DlKnzBNzlzQP7CBUHLbYnBK3bRQPGN
qkClmHzBuK+eQMVhsEBtcW/BtjfJQOKX40DNqLLB4zK2QCwYAkG3f73BxkG3QMu9FEGygX7BzLOF
QMtlGUH6tHDBSonWQJ1H00Dw11nBOcLnQDMt8kB1f3DBAkPdQIY6LkEnV7PBNY4DQTY5JEGa2qrB
PKK4QBXJJ0E/oqLBWtkBQUxupT5zBIbBRO/PQDZcMD+af4DB5KjVQGPoGr+yXIrBzqmFQOdsHkAm
zqvBKadWQOo6xD95fqHB10ysQPiEe0BB+ojBi1XBQK+cnEAk55PB+aXAQByFQkDr1Z/BEpxZQE8b
VkBuaJPBuQiYQP7Ipj/jB4/BskFoQKpSrUDBYofBoVB+QLUYxkCNjZLBAcRTQD+3g0BiEKXB

>  <OMEGA_E>  (93) 
7JS8PvhEvT40esU+6HK2Pg==

>  <OMEGA_NBR>  (93) 
     91694

$$$$
50167990
     RDKit          3D

 64 66  0  0  1  0  0  0  0  0999 V2000
    8.5378    7.4483  -18.5012 C   0  0  0  0  0  0  0  0  0  0  0  0
    7.5978    7.0395  -17.5412 C   0  0  0  0  0  0  0  0  0  0  0  0
    8.1136    8.0937  -19.6784 C   0  0  0  0  0  0  0  0  0  0  0  0
    5.8007    7.9107  -18.9436 C   0  0  0  0  0  0  0  0  0  0  0  0
    6.4460    0.8350  -21.6019 C   0  0  0  0  0  0  0  0  0  0  0  0
    4.6537   -0.6379  -20.8366 C   0  0  0  0  0  0  0  0  0  0  0  0
    6.7237   -1.5866  -21.7148 C   0  0  0  0  0  0  0  0  0  0  0  0
    6.2262    7.2742  -17.7625 C   0  0  0  0  0  0  0  0  0  0  0  0
    6.7379    8.3610  -19.9036 C   0  0  0  0  0  0  0  0  0  0  0  0
    5.1596    0.6633  -21.0431 C   0  0  0  0  0  0  0  0  0  0  0  0
    7.2298   -0.2891  -21.9276 C   0  0  0  0  0  0  0  0  0  0  0  0
    5.4333   -1.7604  -21.1762 C   0  0  0  0  0  0  0  0  0  0  0  0
    6.7931    1.3804  -18.1125 C   0  0  0  0  0  0  0  0  0  0  0  0
    4.5514    7.7546  -15.8306 C   0  0  0  0  0  0  0  0  0  0  0  0
    5.4859    6.6441  -15.3034 C   0  0  0  0  0  0  0  0  0  0  0  0
    5.1800    6.7576  -16.8021 C   0  0  0  0  0  0  0  0  0  0  0  0
    7.0453    0.3235  -17.0422 C   0  0  0  0  0  0  0  0  0  0  0  0
    5.9927    7.9162  -22.2610 C   0  0  0  0  0  0  0  0  0  0  0  0
    7.3159   10.0102  -21.7809 C   0  0  0  0  0  0  0  0  0  0  0  0
    4.9501    9.8354  -21.0004 C   0  0  0  0  0  0  0  0  0  0  0  0
    4.3524    1.8699  -20.5990 C   0  0  0  0  0  0  0  0  0  0  0  0
    5.0249    4.5366  -17.8401 C   0  0  0  0  0  0  0  0  0  0  0  0
    5.1023    2.6515  -19.4921 C   0  0  1  0  0  0  0  0  0  0  0  0
    4.2309    3.7785  -18.9144 C   0  0  2  0  0  0  0  0  0  0  0  0
    6.2580    9.0227  -21.2154 C   0  0  0  0  0  0  0  0  0  0  0  0
    5.4802    1.7253  -18.4105 N   0  0  0  0  0  0  0  0  0  0  0  0
    4.2967    5.7473  -17.4100 N   0  0  0  0  0  0  0  0  0  0  0  0
    7.7426    1.9737  -18.6139 O   0  0  0  0  0  0  0  0  0  0  0  0
    3.8829    4.6732  -19.9707 O   0  0  0  0  0  0  0  0  0  0  0  0
    8.4727   -0.1234  -22.4340 F   0  0  0  0  0  0  0  0  0  0  0  0
    4.9487   -3.0058  -20.9710 F   0  0  0  0  0  0  0  0  0  0  0  0
    9.5896    7.2671  -18.3358 H   0  0  0  0  0  0  0  0  0  0  0  0
    7.9248    6.5474  -16.6372 H   0  0  0  0  0  0  0  0  0  0  0  0
    8.8430    8.3885  -20.4182 H   0  0  0  0  0  0  0  0  0  0  0  0
    4.7453    8.0573  -19.1196 H   0  0  0  0  0  0  0  0  0  0  0  0
    6.8288    1.8292  -21.7793 H   0  0  0  0  0  0  0  0  0  0  0  0
    3.6675   -0.7730  -20.4175 H   0  0  0  0  0  0  0  0  0  0  0  0
    7.3250   -2.4483  -21.9645 H   0  0  0  0  0  0  0  0  0  0  0  0
    3.4726    7.7119  -15.6198 H   0  0  0  0  0  0  0  0  0  0  0  0
    4.8848    8.8028  -15.8254 H   0  0  0  0  0  0  0  0  0  0  0  0
    6.4864    6.8995  -14.9240 H   0  0  0  0  0  0  0  0  0  0  0  0
    5.0742    5.8086  -14.7184 H   0  0  0  0  0  0  0  0  0  0  0  0
    8.1264    0.2376  -16.8585 H   0  0  0  0  0  0  0  0  0  0  0  0
    6.5375    0.6161  -16.1113 H   0  0  0  0  0  0  0  0  0  0  0  0
    6.6535   -0.6456  -17.3846 H   0  0  0  0  0  0  0  0  0  0  0  0
    5.6500    8.3737  -23.2008 H   0  0  0  0  0  0  0  0  0  0  0  0
    6.9206    7.3545  -22.4437 H   0  0  0  0  0  0  0  0  0  0  0  0
    5.2186    7.2324  -21.8826 H   0  0  0  0  0  0  0  0  0  0  0  0
    6.9385   10.4592  -22.7115 H   0  0  0  0  0  0  0  0  0  0  0  0
    7.5084   10.8031  -21.0432 H   0  0  0  0  0  0  0  0  0  0  0  0
    8.2500    9.4676  -21.9882 H   0  0  0  0  0  0  0  0  0  0  0  0
    4.6399   10.2905  -21.9526 H   0  0  0  0  0  0  0  0  0  0  0  0
    4.1569    9.1645  -20.6391 H   0  0  0  0  0  0  0  0  0  0  0  0
    5.1282   10.6264  -20.2570 H   0  0  0  0  0  0  0  0  0  0  0  0
    4.1888    2.5326  -21.4616 H   0  0  0  0  0  0  0  0  0  0  0  0
    3.3818    1.5311  -20.2076 H   0  0  0  0  0  0  0  0  0  0  0  0
    5.1765    3.8787  -16.9716 H   0  0  0  0  0  0  0  0  0  0  0  0
    6.0015    4.8300  -18.2527 H   0  0  0  0  0  0  0  0  0  0  0  0
    6.0086    3.0955  -19.9298 H   0  0  0  0  0  0  0  0  0  0  0  0
    3.3294    3.3426  -18.4591 H   0  0  0  0  0  0  0  0  0  0  0  0
    4.7502    1.3215  -17.8592 H   0  0  0  0  0  0  0  0  0  0  0  0
    3.6044    5.4825  -16.7387 H   0  0  0  0  0  0  0  0  0  0  0  0
    3.8497    6.1519  -18.2079 H   0  0  0  0  0  0  0  0  0  0  0  0
    3.3919    4.2039  -20.6349 H   0  0  0  0  0  0  0  0  0  0  0  0
  1  2  2  0
  1  3  1  0
  2  8  1  0
  3  9  2  0
  4  8  2  0
  4  9  1  0
  5 10  2  0
  5 11  1  0
  6 10  1  0
  6 12  2  0
  7 11  2  0
  7 12  1  0
  8 16  1  0
  9 25  1  0
 10 21  1  0
 11 30  1  0
 12 31  1  0
 13 17  1  0
 13 26  1  0
 13 28  2  0
 14 15  1  0
 14 16  1  0
 15 16  1  0
 16 27  1  0
 18 25  1  0
 19 25  1  0
 20 25  1  0
 21 23  1  0
 22 24  1  0
 22 27  1  0
 23 24  1  0
 23 26  1  0
 24 29  1  0
  1 32  1  0
  2 33  1  0
  3 34  1  0
  4 35  1  0
  5 36  1  0
  6 37  1  0
  7 38  1  0
 14 39  1  0
 14 40  1  0
 15 41  1  0
 15 42  1  0
 17 43  1  0
 17 44  1  0
 17 45  1  0
 18 46  1  0
 18 47  1  0
 18 48  1  0
 19 49  1  0
 19 50  1  0
 19 51  1  0
 20 52  1  0
 20 53  1  0
 20 54  1  0
 21 55  1  0
 21 56  1  0
 22 57  1  0
 22 58  1  0
 23 59  1  6
 24 60  1  1
 26 61  1  0
 27 62  1  0
 27 63  1  0
 29 64  1  0
M  CHG  1  27   1
M  END
>  <OMEGA_C>  (94) 
xpoIQbZY7kBdApTBRiHzQOlD4UBZVIzBMNEBQZ9/AUFHbZ3Btp+5QEkk/UCFjJfBzUXOQODAVT+k
0KzB1eqUQO1NI79QsabBryjXQCAWy7/rt63ByDzHQBrG6ECxGY7BKZ3XQJDGBUF+Op/BcRulQNrQ
KT9cWKjBOlrnQOH/k77Ta6/B5N2tQCVV4b/1aKnBamHZQAGysD9d5pDBraSRQKIl+EA3Sn3B4Iyv
QICc1EDt2nTBvMKlQGI+2EDDaobBC3PhQBSlpT5iVojBFcS/QI9R/UCFFrLBiBvqQNspIEFIP67B
nGeeQPpdHUG/AKjBHkeLQDVa7z+qyqTB7sugQKIrkUCPuI7BJkajQKqyKUDm75vBpWOHQILTcUCc
UJfBpUHIQAhdEEEQuanBKV6vQN/V3D/NSJPBQH6JQOfpt0C7R4vBRMP3QE2h/D8v6ZTBGIJ4QNCK
lUD8w5/BAJAHQUnJ/L3QeLPBbVueQOpeQMCExKfB0W4ZQeWL6EDKr5LBW5j9QJOE0UDjGIXB2nwN
QXw3BkGGWKPBmtmXQNLqAEHX9JjBL4XaQCIi6j8XPK7B9LdqQPPhRb8iV6PBs2bqQIGwHMBTt6/B
2T5eQCTI9kC26nnBNVCcQGHYDEELNX3BTJDPQF3I3EDUyG7Bg1+iQMDfuUB+fmvB6AUCQXpGcz4/
3obBJzPRQNG5HT/z44DBVenUQJFHJb+dE4vBHc20QKP6BUFQm7nBwHXdQORX60DGjLPBqv6mQKhv
50CmD6/BcgjeQN5YJ0EusbXB/0TwQJjZLEFxWKjB2f8DQR97F0HV56/B3nmUQMWlJEHZnq/BEQWF
QMGhEkHTHKXB2xmkQNQFKkE8DqLBDAuGQGYWIkBLsavBB3BYQCX8wz8sqaHBkKWlQCg9eEDmxYfB
9QvAQJiPmkB7BZLBGEbAQHgdRkBIcJ/BOhVVQG/sVUBNrJPBOwGYQN4nqT+0347BWq5mQD5wr0Dz
6IXB7WF2QF3cxEC2qZHBkxRZQIaGhkA9FKXBaugIQTvO7kDS9JPB1pzzQBmA4UARVYzBpDECQU3J
AUFBXp3BCju6QFUL/UCWo5fB9nDPQMRRWj8WvKzBFcyVQGT3H7/T3KbBHWTYQOixyL9uuq3BLbnH
QO/a6EBWJ47B31fYQD/cBUHPQZ/BDw2mQAx8LT/0Z6jBnanoQN6yib6sUK/B7+GuQDhj378Dj6nB
4R/ZQDMxtz9LbJDBKCKSQPhO+EBGYH3BfvKvQCWv1ECq9XTBpCqmQFBk2EB1eIbBFLPgQI1xkj6A
lojB8qXrQOyUH0H+gq7B50KgQG48HkGX3qfBfbK+QLub/UAO/bHBTPyLQF7b8D/y5qTBIVChQMmy
kUBl647BFoqjQEBNKkD29pvBvl6HQDPMcUDATJfBqArJQG19EEE6vqnBGkWvQOGE3T8zT5PB+tyJ
QI0RuEC1UIvBmMP3QBqh+j804ZTBj4B1QCsXlUAOtp/BrlQIQeHAy73lNrPBCUefQIF6P8C5CKjB
9boZQeEV6UAOmJLBWfv9QKaw0UCXGYXBtOwNQfm0BkE8N6PBJ3aYQMqxAEEcH5nB1MDbQI6P7D/4
EK7BLCtsQBs6Q78vnKPBwrzrQKFjG8BHta/BMzhfQOAF90DTAHrBYuOcQI7pDEFTRn3BBfvPQDDD
3EBV4m7BvbOiQPT1uUDVnGvBk5oBQTFEpj2gA4jBJ1PUQOXFED+rqIDBwATQQMxcHb9DcIvBYIvf
QCXOJkGo8bXB9R/zQLpILEHitqjBrmQEQTFXFkFBQLDBPDiWQNaPJUGId6/BzWSGQCr+E0EzzqTB
YE+nQFvhKkHdAaLBUsKzQMIvBkGMfrnBHZ3bQJqC6kBIiLPBjlulQJXA6ECLzq7BAQiHQKv5IkCN
zavBb5tZQCUmxT8g3qHBN1qnQLeaeUAvAIjBB/2/QK+Tm0CRdZLBpqLAQAodR0BPXZ/BBWFWQIEW
VUCvb5PBkZ6XQEWxpD+kQY/BuiBoQO01r0C85IXBSj92QKolxUBXnpHB2mdVQIymhUBx4qTBUGgI
QbKo7kBGFpTBVejyQFOH4UDbXozBOYEBQVWOAUGigp3B9hi5QJbM/ED9lZfBfszNQJzIWj/CzazB
RfqUQC9RI78crabB70/XQLQPyL9d263BOPLGQP276EAFHo7Ba+nWQCCrBUG8Sp/BPcakQMIuKz/Q
S6jB+yPnQGr1hL5Sfq/B6S6uQEwy4L9KfKnB7u3YQEkVrj8p25DBtaqRQJ1J+EBSOH3BuaqvQJPV
1EAXyXTBy6alQBpF2EDLX4bB4u3gQIaxlj5MW4jBy7edQGRnHUGS9qfBtCu+QFD0/ECzErLBvjHp
QHPUH0GXba7BqMyKQPj47j+gpqTBEpOgQD8JkUCUlo7BZQejQPV8KUD21JvBvXyHQB+NckBqUpfB
+0jHQJA3EEF/xanBUveuQCmo3D8cJJPBllGJQEHXt0BSK4vBwWf3QCwn+T/G4pTB/nJ7QNkxlkBv
0p/BLGwHQdhOoL2VirPBbCWfQLknQMCn1afBWUIZQUsM6UDEyZLBF479QKD50UDwIIXBVB0NQQ5T
BkHxcqPBWEaXQOeTAEHY/JjBhb3ZQPw17T9KMK7BphZrQE61SL/QR6PB97PqQMa7GsDy86/Br1te
QDXv9kBTw3nBllKcQADrDEGdOn3BrrvPQGAR3UBpzm7B8JaiQJYqukAfV2vBHcUBQUYISj4c9IbB
4frQQMUIFj/33YDBswbUQDVLK79eHovBPJCTQD2oJEGQka/BbUuEQMHLEkFd+qTB7OGjQJQWKkF7
D6LBkwKzQDDGBUFLlLnB8KjbQAy46kB0l7PB3lqlQHdS50A69a7B9encQNv8JkGw27XBetLvQNGM
LEGHk6jBC28DQdUBF0EwJbDBriSFQDIKIkBphKvBhOJXQFqQwj/2c6HBTtekQId5d0DiqYfBpxfA
QBNKmkA5wJHBjSfAQAsfRUCzXZ/BzhZUQGbCV0D02ZPBHJaXQEwmqz/Ao47B0oNmQEV2r0AgxIXB
uNB1QIWpxEBvjZHB3WZcQHGKh0CdO6XB

>  <OMEGA_E>  (94) 
WBNKPrC/TD7gtE8+

>  <OMEGA_NBR>  (94) 
     95091

$$$$
50168372
     RDKit          3D

 64 66  0  0  1  0  0  0  0  0999 V2000
    8.4967    7.4471  -18.6915 C   0  0  0  0  0  0  0  0  0  0  0  0
    7.5985    7.0284  -17.6965 C   0  0  0  0  0  0  0  0  0  0  0  0
    8.0196    8.0712  -19.8597 C   0  0  0  0  0  0  0  0  0  0  0  0
    5.7359    7.8295  -19.0541 C   0  0  0  0  0  0  0  0  0  0  0  0
    6.3929    0.7961  -21.6449 C   0  0  0  0  0  0  0  0  0  0  0  0
    4.6488   -0.6910  -20.7993 C   0  0  0  0  0  0  0  0  0  0  0  0
    6.7004   -1.6228  -21.7369 C   0  0  0  0  0  0  0  0  0  0  0  0
    6.2150    7.2276  -17.8752 C   0  0  0  0  0  0  0  0  0  0  0  0
    6.6305    8.2957  -20.0466 C   0  0  0  0  0  0  0  0  0  0  0  0
    5.1268    0.6139  -21.0449 C   0  0  0  0  0  0  0  0  0  0  0  0
    7.1809   -0.3213  -21.9828 C   0  0  0  0  0  0  0  0  0  0  0  0
    5.4324   -1.8070  -21.1505 C   0  0  0  0  0  0  0  0  0  0  0  0
    6.8189    1.4143  -18.0941 C   0  0  0  0  0  0  0  0  0  0  0  0
    4.6166    7.7283  -15.8840 C   0  0  0  0  0  0  0  0  0  0  0  0
    5.5808    6.6345  -15.3759 C   0  0  0  0  0  0  0  0  0  0  0  0
    5.2140    6.7194  -16.8629 C   0  0  0  0  0  0  0  0  0  0  0  0
    7.1261    0.3159  -17.0819 C   0  0  0  0  0  0  0  0  0  0  0  0
    7.1241    9.9239  -21.9769 C   0  0  0  0  0  0  0  0  0  0  0  0
    4.3189    1.8149  -20.5890 C   0  0  0  0  0  0  0  0  0  0  0  0
    5.0313    4.4747  -17.8367 C   0  0  0  0  0  0  0  0  0  0  0  0
    4.7948    9.7658  -21.0820 C   0  0  0  0  0  0  0  0  0  0  0  0
    5.7426    7.8312  -22.3652 C   0  0  0  0  0  0  0  0  0  0  0  0
    5.0834    2.5952  -19.4927 C   0  0  1  0  0  0  0  0  0  0  0  0
    4.2174    3.7122  -18.8914 C   0  0  2  0  0  0  0  0  0  0  0  0
    6.0905    8.9442  -21.3455 C   0  0  0  0  0  0  0  0  0  0  0  0
    5.4936    1.6615  -18.4296 N   0  0  0  0  0  0  0  0  0  0  0  0
    4.3147    5.6934  -17.4139 N   0  0  0  0  0  0  0  0  0  0  0  0
    7.7279    2.1242  -18.5114 O   0  0  0  0  0  0  0  0  0  0  0  0
    3.8374    4.6054  -19.9381 O   0  0  0  0  0  0  0  0  0  0  0  0
    8.4042   -0.1452  -22.5315 F   0  0  0  0  0  0  0  0  0  0  0  0
    4.9728   -3.0560  -20.9120 F   0  0  0  0  0  0  0  0  0  0  0  0
    4.9900   10.6775  -20.0916 F   0  0  0  0  0  0  0  0  0  0  0  0
    6.8353    7.0802  -22.6661 F   0  0  0  0  0  0  0  0  0  0  0  0
    9.5570    7.2897  -18.5601 H   0  0  0  0  0  0  0  0  0  0  0  0
    7.9665    6.5557  -16.7979 H   0  0  0  0  0  0  0  0  0  0  0  0
    8.7183    8.3826  -20.6221 H   0  0  0  0  0  0  0  0  0  0  0  0
    4.6717    7.9369  -19.2031 H   0  0  0  0  0  0  0  0  0  0  0  0
    6.7568    1.7932  -21.8446 H   0  0  0  0  0  0  0  0  0  0  0  0
    3.6811   -0.8338  -20.3416 H   0  0  0  0  0  0  0  0  0  0  0  0
    7.3040   -2.4794  -21.9980 H   0  0  0  0  0  0  0  0  0  0  0  0
    3.5476    7.6811  -15.6292 H   0  0  0  0  0  0  0  0  0  0  0  0
    4.9412    8.7790  -15.9103 H   0  0  0  0  0  0  0  0  0  0  0  0
    6.5935    6.9042  -15.0415 H   0  0  0  0  0  0  0  0  0  0  0  0
    5.1998    5.8063  -14.7604 H   0  0  0  0  0  0  0  0  0  0  0  0
    8.2021    0.3177  -16.8533 H   0  0  0  0  0  0  0  0  0  0  0  0
    6.5551    0.4974  -16.1594 H   0  0  0  0  0  0  0  0  0  0  0  0
    6.8425   -0.6601  -17.5026 H   0  0  0  0  0  0  0  0  0  0  0  0
    6.7027   10.3613  -22.8940 H   0  0  0  0  0  0  0  0  0  0  0  0
    7.3539   10.7262  -21.2603 H   0  0  0  0  0  0  0  0  0  0  0  0
    8.0460    9.3761  -22.2221 H   0  0  0  0  0  0  0  0  0  0  0  0
    4.1397    2.4783  -21.4479 H   0  0  0  0  0  0  0  0  0  0  0  0
    3.3557    1.4710  -20.1840 H   0  0  0  0  0  0  0  0  0  0  0  0
    5.1894    3.8259  -16.9625 H   0  0  0  0  0  0  0  0  0  0  0  0
    6.0046    4.7569  -18.2646 H   0  0  0  0  0  0  0  0  0  0  0  0
    4.5086   10.2922  -22.0045 H   0  0  0  0  0  0  0  0  0  0  0  0
    3.9876    9.0798  -20.7857 H   0  0  0  0  0  0  0  0  0  0  0  0
    4.9674    7.1801  -21.9349 H   0  0  0  0  0  0  0  0  0  0  0  0
    5.3616    8.2954  -23.2868 H   0  0  0  0  0  0  0  0  0  0  0  0
    5.9768    3.0490  -19.9465 H   0  0  0  0  0  0  0  0  0  0  0  0
    3.3308    3.2681  -18.4153 H   0  0  0  0  0  0  0  0  0  0  0  0
    4.7794    1.1795  -17.9221 H   0  0  0  0  0  0  0  0  0  0  0  0
    3.6461    5.4444  -16.7132 H   0  0  0  0  0  0  0  0  0  0  0  0
    3.8401    6.0764  -18.2064 H   0  0  0  0  0  0  0  0  0  0  0  0
    3.3337    4.1332  -20.5907 H   0  0  0  0  0  0  0  0  0  0  0  0
  1  2  2  0
  1  3  1  0
  2  8  1  0
  3  9  2  0
  4  8  2  0
  4  9  1  0
  5 10  2  0
  5 11  1  0
  6 10  1  0
  6 12  2  0
  7 11  2  0
  7 12  1  0
  8 16  1  0
  9 25  1  0
 10 19  1  0
 11 30  1  0
 12 31  1  0
 13 17  1  0
 13 26  1  0
 13 28  2  0
 14 15  1  0
 14 16  1  0
 15 16  1  0
 16 27  1  0
 18 25  1  0
 19 23  1  0
 20 24  1  0
 20 27  1  0
 21 25  1  0
 21 32  1  0
 22 25  1  0
 22 33  1  0
 23 24  1  0
 23 26  1  0
 24 29  1  0
  1 34  1  0
  2 35  1  0
  3 36  1  0
  4 37  1  0
  5 38  1  0
  6 39  1  0
  7 40  1  0
 14 41  1  0
 14 42  1  0
 15 43  1  0
 15 44  1  0
 17 45  1  0
 17 46  1  0
 17 47  1  0
 18 48  1  0
 18 49  1  0
 18 50  1  0
 19 51  1  0
 19 52  1  0
 20 53  1  0
 20 54  1  0
 21 55  1  0
 21 56  1  0
 22 57  1  0
 22 58  1  0
 23 59  1  6
 24 60  1  1
 26 61  1  0
 27 62  1  0
 27 63  1  0
 29 64  1  0
M  CHG  1  27   1
M  END
>  <OMEGA_C>  (95) 
TPIHQYtO7kA8iJXBgibzQPjo4EBiko3Bd1AAQZsjAUGe4J7Broy3QDWL+kDAbpjBipLMQPzNSz/A
KK3BN8OUQHzmML8KZabBfWnWQGm3z78s5a3BcOHGQJJI50ByAI/BOy3UQDi7BEFaX6DBAg+kQN0o
HT8OXKjBNcrlQOp/pL7E3K/Ba9atQDpN578wNKnBRTTaQGgItT/KwJDBW7uTQDNO90DdJH7BypWy
QBVO1ECjA3bB8dimQAsF10Ai54bBHwnkQJu7oT6mp4jBifjjQE3IHkGo0K/BeTSKQCpN6D8stqTB
cwChQN0wj0B2sY7BTm+ZQM5AHEHip6jBx8O3QOeY+kDi67LBJauiQIYYJkAi8ZvBV/WGQGmUbUCg
IZfBeuXCQJgbD0GGw6rBa8uvQGOs1D/sb5PBIBKKQPAvtkC0T4vBU0v3QEvzB0BYF5TBx5d1QJlf
k0AigZ/Bx3cGQTi0FL6MQLTBdSGfQJiVQ8CwS6fBCa6fQN3WKkGqu6DBHLvaQDKR4kA0VLXBg+kY
QStF6UASe5TB4+3+QJzI0UASYobBDX4LQUAfBkEb+qTBL36VQP36/UDgn5nBjTfYQCGG5T/Dwa7B
KpdrQC91Vb+gu6LBu7rpQOOuHsDV+6/BvQtjQGHL9UACEXrBlB6eQLN2DEGSkH7Bmv3SQO7u3EAh
qnDB5WSmQOnMuUCRKmzByDsDQeKsoj5404bBU8PRQJ+t/j5lRoHBafXaQBX7KL9YBYzBaXzWQLLH
JUH1JrfB71LrQHOeK0EGFarBObwAQZ4EFkHExrHBYniEQIicHkA2lavBuMNWQIBJvD/VeKHBYA+m
QAncdEBCs4fBUCXAQOw4mEDfHZLBQEaQQOSsJEEfCbDBSDV/QMtGEUEqSabBKvWeQEfD5UCyeq/B
A5KrQMq5BEFGS7rB3UG/QDYjQ0B/kp/BTSxVQFMoUUCMUpPB8vCYQNf6lj9cYI/BW1ppQDI4rkCf
tIXBnsN1QJpxwkCuppHBClxVQIRDhECpuaTBzG0JQbXX7EDkDJTB/QT0QKDM4ED6c4zB6CIDQbtk
AEG9pJ3Babi7QITv+0AYJpjB7HTPQGqqTj/ClKzBlSGVQE5aIr9ejabBvWbXQEo1z79oOq3BwFjI
QNaE6EA2f47BPX/aQDTMBEGatp/BjfilQP5kKD9MQajBXzboQMcNqb7g/q7BicStQEOW4r/FEqnB
jmvZQC3hrz+yxZDBFvaRQF7V+UCso37BlQqvQKIf1kCosHXBgRGmQJYi2UBD4obBU7fgQF5IrD4d
BIjBuKDDQH9G+kBUh7LB+3CMQIBe8D+G5qTBOvKgQOnBkUAn7Y7BNf3uQPlSHkEJGa/BQy2iQPVu
HEGyDqnBFvOjQMMXKkAJ9JvBeISHQPhtcUBaWpfB/yvMQFAxD0ETXKrBraKvQHQI3j/5PpPByLyJ
QNLQuECjs4vBdTT4QECi9z/145TBaTB2QCi2lEDq0Z/BJhsIQW44Pr5Z9LLBbZedQOtvQMD/aKfB
XU37QOJrLUG74KfBt1ilQNjBKkEL5KDBjioaQUDI5kAAh5LB+bv9QEyu0UCtEoXBXBcPQWC9BEHJ
faPB2BqaQCQ8AEHQzZnB4jLcQMqz5T+zCa7BTaFqQAlxQL/hT6PB/G7qQM5oH8ACD6/BzaReQE0a
+UA7iHvBaCWdQLWaDUEpvH7BdPvOQLv/3UDcbW/BcyihQJ7ku0DuOWzBzJ4BQffuaz5ihobB1qzQ
QNpnKT+zoIDB33vTQHyUIb9AlIrBw1+5QMwnBEFMLrrBkRzhQE+v50DCwbPBBlGqQNIb5UCVdq/B
nR6IQDteIkDI3KvB0+xZQKMRxz8r7aHBMdWlQOq7ekCm24fBsi3AQE7PmkC0S5LBGoYFQQG9FEFS
ZLHBKu3hQM5ZJkFKN7bBB9mbQN8kJUHgibDBdYSHQM5tEUGNZqfB9gfBQE8MR0B4V5/B9X5WQN6I
VEBUjZPB9giYQArxqz/H147Bqo9mQLjSsEBCXYbBX6V3QM5+xUDDK5LBFLhWQE8bhUDBBaXBHAcM
QSW75kBSdZPBlnT3QLTR3EA2I4zB9QYHQVe4+kDkO53BxKHCQAHo+kAoZJjBYC7QQMT6Kz+mzavB
dMeSQDPRLb8QYKbBaNvUQHDI4b++HKzBTKfMQFbp5kAkoI7BPDfjQAwGA0FwvJ/BSbClQDQWFj9Q
AKjBZtDnQLuTAL8Wxa3BqkuqQF7+7L9sdKjBDErWQEbSrT8Aw4/BIlCUQLdU+0BDMoDBwgivQCHE
1kBrgXbBQ26oQNpW2UCoY4fBnknbQBT8eT6ShIfBkseuQF57G0EQ3qnB7iuNQFhB7D9GGaXBM82h
QGS8kUCGU4/Bxn7QQLvf9kAA/7LB2Ff8QGIVHEG+vq7BtiCkQP6TJ0CkBZzBCI6IQHAAckA+3JfB
uMXXQGJZDUEgn6rBnEqtQIuJ2T96GJPB2K+LQGbkuUD6cYzByDT2QJAg6j+QDZTBHDN9QFvFlEDK
kqDBK28IQVZl1r7KH7HBYiyYQJryQ8AIzKbBaoqwQKP520DM6q/BDkUDQQQtK0EqU6fBaXIcQUX/
3kBplZHB+Sb/QLeGzUDZoYTBE6ETQVDCAEFf5aLBraahQEDrAEEhTprBCI7eQAyy0T/6M63BfHBk
QJt+P78NiKPBX/PmQJZ9KsAwpa3BHNhiQCQd/EBBGX7B2t2gQKIbDkHDPIDBFanOQBOL3UCyj2/B
STefQPRwvUBsL23BF2v9QLJtpjumh4bB1f7NQOY4Ez+Dn3/B3ArKQKS0Jr8ERIrBQdKnQMJ8IkEq
wLHB9JSTQLiPEUE1TKfBfgC0QN1eKEHSBKTB2N6KQJmAH0D+MazBqKpZQIrayD8da6LBGgKlQHNd
e0B2I4jBwsTBQP1imUCOeZLB3ePHQGvHAkH2srrBBD3uQG9q5EC767PBA2UMQehHEkFubrDBf9Tx
QLQSJEHsIbbBSUzCQGGjQUCxLJ/B+1RWQPojWEDrQJTBHX6UQGUDpj+dMo/BQAdoQD4Ms0BxV4fB
peF+QAvUxkBUF5PB1PddQAZohUC316XB

>  <OMEGA_E>  (95) 
CAO4PoTcvT4wca4+

>  <OMEGA_NBR>  (95) 
     98488

$$$$
50168374
     RDKit          3D

 67 69  0  0  1  0  0  0  0  0999 V2000
    8.6715    7.4664  -18.3745 C   0  0  0  0  0  0  0  0  0  0  0  0
    7.7128    7.0392  -17.4418 C   0  0  0  0  0  0  0  0  0  0  0  0
    8.2718    8.1306  -19.5478 C   0  0  0  0  0  0  0  0  0  0  0  0
    5.9456    7.9496  -18.8554 C   0  0  0  0  0  0  0  0  0  0  0  0
    6.4219    0.7952  -21.5614 C   0  0  0  0  0  0  0  0  0  0  0  0
    4.5870   -0.6301  -20.8049 C   0  0  0  0  0  0  0  0  0  0  0  0
    6.6552   -1.6312  -21.6237 C   0  0  0  0  0  0  0  0  0  0  0  0
    6.3436    7.2748  -17.6840 C   0  0  0  0  0  0  0  0  0  0  0  0
    6.9017    8.4134  -19.7903 C   0  0  0  0  0  0  0  0  0  0  0  0
    5.1214    0.6543  -21.0284 C   0  0  0  0  0  0  0  0  0  0  0  0
    7.1916   -0.3474  -21.8472 C   0  0  0  0  0  0  0  0  0  0  0  0
    5.3509   -1.7710  -21.1083 C   0  0  0  0  0  0  0  0  0  0  0  0
    6.7775    1.5005  -18.0253 C   0  0  0  0  0  0  0  0  0  0  0  0
    5.5748    6.2630  -15.3437 C   0  0  0  0  0  0  0  0  0  0  0  0
    4.6442    7.4480  -15.6516 C   0  0  2  0  0  0  0  0  0  0  0  0
    5.2709    6.6613  -16.8004 C   0  0  1  0  0  0  0  0  0  0  0  0
    7.0371    0.3834  -17.0186 C   0  0  0  0  0  0  0  0  0  0  0  0
    5.1367    8.8560  -15.3046 C   0  0  0  0  0  0  0  0  0  0  0  0
    6.1000    7.9852  -22.1237 C   0  0  0  0  0  0  0  0  0  0  0  0
    5.1757    9.9724  -20.8635 C   0  0  0  0  0  0  0  0  0  0  0  0
    4.3317    1.8747  -20.6179 C   0  0  0  0  0  0  0  0  0  0  0  0
    5.0860    4.5571  -17.9691 C   0  0  0  0  0  0  0  0  0  0  0  0
    5.0958    2.6533  -19.5284 C   0  0  1  0  0  0  0  0  0  0  0  0
    4.2401    3.7904  -18.9738 C   0  0  2  0  0  0  0  0  0  0  0  0
    7.5719    9.9993  -21.6914 C   0  0  0  0  0  0  0  0  0  0  0  0
    6.4440    9.0950  -21.1014 C   0  0  0  0  0  0  0  0  0  0  0  0
    5.4677    1.7429  -18.4260 N   0  0  0  0  0  0  0  0  0  0  0  0
    4.3873    5.7665  -17.5388 N   0  0  0  0  0  0  0  0  0  0  0  0
    7.7273    2.0581  -18.5651 O   0  0  0  0  0  0  0  0  0  0  0  0
    3.8522    4.6592  -20.0381 O   0  0  0  0  0  0  0  0  0  0  0  0
    8.4492   -0.2124  -22.3251 F   0  0  0  0  0  0  0  0  0  0  0  0
    4.8365   -3.0011  -20.8880 F   0  0  0  0  0  0  0  0  0  0  0  0
    7.9281   10.9591  -20.7941 F   0  0  0  0  0  0  0  0  0  0  0  0
    7.1670   10.6058  -22.8383 F   0  0  0  0  0  0  0  0  0  0  0  0
    9.7199    7.2841  -18.1900 H   0  0  0  0  0  0  0  0  0  0  0  0
    8.0233    6.5313  -16.5407 H   0  0  0  0  0  0  0  0  0  0  0  0
    9.0151    8.4288  -20.2724 H   0  0  0  0  0  0  0  0  0  0  0  0
    4.8950    8.1154  -19.0427 H   0  0  0  0  0  0  0  0  0  0  0  0
    6.8252    1.7793  -21.7493 H   0  0  0  0  0  0  0  0  0  0  0  0
    3.5913   -0.7383  -20.4009 H   0  0  0  0  0  0  0  0  0  0  0  0
    7.2439   -2.5085  -21.8476 H   0  0  0  0  0  0  0  0  0  0  0  0
    6.5740    6.4421  -14.9199 H   0  0  0  0  0  0  0  0  0  0  0  0
    5.1624    5.3312  -14.9293 H   0  0  0  0  0  0  0  0  0  0  0  0
    3.5735    7.2645  -15.4785 H   0  0  0  0  0  0  0  0  0  0  0  0
    8.1210    0.2277  -16.9144 H   0  0  0  0  0  0  0  0  0  0  0  0
    6.6115    0.6626  -16.0434 H   0  0  0  0  0  0  0  0  0  0  0  0
    6.5656   -0.5454  -17.3721 H   0  0  0  0  0  0  0  0  0  0  0  0
    4.3678    9.5925  -15.5809 H   0  0  0  0  0  0  0  0  0  0  0  0
    5.3336    8.9195  -14.2242 H   0  0  0  0  0  0  0  0  0  0  0  0
    6.0629    9.0674  -15.8591 H   0  0  0  0  0  0  0  0  0  0  0  0
    5.7708    8.4445  -23.0674 H   0  0  0  0  0  0  0  0  0  0  0  0
    6.9915    7.3676  -22.3080 H   0  0  0  0  0  0  0  0  0  0  0  0
    5.2934    7.3541  -21.7222 H   0  0  0  0  0  0  0  0  0  0  0  0
    4.8727   10.4441  -21.8099 H   0  0  0  0  0  0  0  0  0  0  0  0
    4.3569    9.3396  -20.4907 H   0  0  0  0  0  0  0  0  0  0  0  0
    5.4033   10.7521  -20.1217 H   0  0  0  0  0  0  0  0  0  0  0  0
    4.1827    2.5240  -21.4932 H   0  0  0  0  0  0  0  0  0  0  0  0
    3.3540    1.5606  -20.2236 H   0  0  0  0  0  0  0  0  0  0  0  0
    5.2790    3.9185  -17.0945 H   0  0  0  0  0  0  0  0  0  0  0  0
    6.0414    4.8366  -18.4371 H   0  0  0  0  0  0  0  0  0  0  0  0
    6.0063    3.0798  -19.9746 H   0  0  0  0  0  0  0  0  0  0  0  0
    3.3575    3.3717  -18.4681 H   0  0  0  0  0  0  0  0  0  0  0  0
    8.4334    9.3478  -21.8996 H   0  0  0  0  0  0  0  0  0  0  0  0
    4.7328    1.2721  -17.9379 H   0  0  0  0  0  0  0  0  0  0  0  0
    3.6218    5.5073  -16.9499 H   0  0  0  0  0  0  0  0  0  0  0  0
    4.0402    6.2454  -18.3452 H   0  0  0  0  0  0  0  0  0  0  0  0
    3.3240    4.1778  -20.6640 H   0  0  0  0  0  0  0  0  0  0  0  0
  1  2  2  0
  1  3  1  0
  2  8  1  0
  3  9  2  0
  4  8  2  0
  4  9  1  0
  5 10  2  0
  5 11  1  0
  6 10  1  0
  6 12  2  0
  7 11  2  0
  7 12  1  0
  8 16  1  0
  9 26  1  0
 10 21  1  0
 11 31  1  0
 12 32  1  0
 13 17  1  0
 13 27  1  0
 13 29  2  0
 14 15  1  0
 14 16  1  0
 15 16  1  0
 15 18  1  0
 16 28  1  6
 19 26  1  0
 20 26  1  0
 21 23  1  0
 22 24  1  0
 22 28  1  0
 23 24  1  0
 23 27  1  0
 24 30  1  0
 25 26  1  0
 25 33  1  0
 25 34  1  0
  1 35  1  0
  2 36  1  0
  3 37  1  0
  4 38  1  0
  5 39  1  0
  6 40  1  0
  7 41  1  0
 14 42  1  0
 14 43  1  0
 15 44  1  6
 17 45  1  0
 17 46  1  0
 17 47  1  0
 18 48  1  0
 18 49  1  0
 18 50  1  0
 19 51  1  0
 19 52  1  0
 19 53  1  0
 20 54  1  0
 20 55  1  0
 20 56  1  0
 21 57  1  0
 21 58  1  0
 22 59  1  0
 22 60  1  0
 23 61  1  6
 24 62  1  1
 25 63  1  0
 27 64  1  0
 28 65  1  0
 28 66  1  0
 30 67  1  0
M  CHG  1  28   1
M  END
>  <OMEGA_C>  (96) 
a74KQWvs7kDp/pLBRc/2QHhB4UDkiIvBZVkEQdsWAkH1YZzBZkK+QCxj/kDz15bBjYDNQC2RSz+v
fazB5siSQINQIb+JcKbBQ/fUQNDL0L9t/azBD//KQPDK6EDpeI3Bv9rcQGydBkGYUp7BKOKjQOeA
Jz8+OqjB2SHmQMDksb4Mx67BejqrQFex4r+23ajB6ODYQFERwD/VM5DBjmSyQFRqyECkf3XBJJ2U
QLNV7kABbXrBnauoQKwp1UAnZ4bB1y/hQDxTxD4YJojBLWCkQD2yDUF233TBgzPDQHSG/0BR/bDB
nZ+lQPyOH0FZ6KbBMp2KQH/27z9u8aTBOMCiQGPTkUDNwI/B4RCjQLHPKUAaOpzBlK6HQJ6VckBI
ypfB90zyQEH9H0H8h63BATXOQDGFEUGcz6jBXPeuQLYX3z9gaJPBomSMQICHuEB2T4zBM0b3QBm4
A0BghZTBRop2QC8YlUD2TaDB7S8HQRB3Wb65mbLB1sSaQMsSQMCLGqfBP7P9QIpYL0FWWqbBylfl
QH6xKUHotLbBt4QbQVoX6UAzhZHBel8AQYcA0UBsU4TBBT4QQUjcBkHQLaLBdaOcQJrYAUFdV5jB
ZWjaQCi/4z+U/q3BAdhlQLMBPb8ONaPB3s3nQA+MIMD4x67B0V3SQKslzkD6t27BpjKlQNeYqkB9
3m7BPLRkQKV26EDVp3fBpO8BQUkdaT69UIfBkJHTQCyiKT/1WIDBOBnSQOueC7/5+YrBZMWLQOV6
GUGES3nBCq2qQHC2DkFDlmPBawPCQAwUEUHcvn3BWKq4QIkcB0EXirjBBrrfQFHD60DSdrLB3GOp
QC1V60AAx63Bfu2bQA4bJ0Gaeq7BdGuLQM9uFUHv7KPBMuisQL0ILEE0+aDBetiFQMSIIUAq8qvB
hKdWQEDDxz/+yaHBt+2oQAvIekCewYjBN1PBQCDFmkA3f5PBfTPAQMgbRUD5y5/BjeBWQHDJV0Cy
vpPBDO8GQWuQFUFMMq/B/nKXQF/Toj/JgI/BGctnQHs7sEB2mYfBlUmBQIHax0DmwpLB4bxUQCqw
hUDPT6XBPDUIQcLo80CrrpPB/ufzQIhB5EBA7YvBP2sAQWFDBEEF55zBE/a3QJ6E/UDqr5bBET/M
QKT0Xz85Cq3BO6OUQBr9Ir/sgabBYuXWQE/bxL8I5K3BQXTHQIXu6EAwcI3BYT7UQL1VB0EKcJ7B
CqWjQKAKLD/CWajBw/jlQPYwa75VuK/BviKuQAK73r8BV6nB7JbaQBSxwz++dZDBi4azQKDXx0BF
z3TBbb+TQCpe7EA3PXnBXV+nQBvO00Dn94XBWeHkQJQw3D7pZIjB4tyhQIQbDUGFOnTBxb3kQPJE
IUE02K3B2MG3QBaaAEGmBrHB0HSJQI9U7T9QqKTBN+WhQN4OkECDLY/BYWSiQFy2KEB3DZzBqLmG
QBZ5b0CDP5fBzI+aQGxvIEE/r6bBUtPCQLIpEkH/vajBLi2wQFnx2z/WdpPBSxGLQAQptkBziovB
h+33QMa2B0Ap8ZTBmC1yQMsNlECfip/BaKAGQbBtC71g+bPByZWfQFKfP8BjmqfB0/uhQC4mLkFR
cZ7BR3ttQKjKFEHQmaTBijwZQTca8EBRkJLBXQAAQQ2x1EB91ITB2okLQSvoCUE64qLBxtmVQJoj
AEF85JfBponXQEpT8D9Cka7BrCxrQMvKSr9v7KLBC5bqQMO5GMAj+q/BT77TQKANz0CMtG7BBTCo
QJGVqUAe1G3BrA9kQDAK5UDbwXXBJuUDQczwoj5FtYfBdnfXQFnUMj/9i4DBXcvWQCrnBL8kHIvB
ENiHQD5EGEEyOnjBo4OpQHl0DkEzGmPBsWG+QHcREUElwX3BTGHXQFGlKEFEGrXBTWXtQD3bLUFB
FqjBy7cAQUb8F0EY86/B0mGrQM4aCEFLXLjBXLnUQCW17kBw7bLBYk2fQEC560D0rK3BROqCQOzn
IEA9gavBjhJWQIW6vz/oRKHBEKaoQNKFdkATSIjBJy/AQJSsmUBY9pLBla++QBDsRUDkzZ/BiSBW
QM3FUkDlJ5PBRnKVQFnCKUGvCa7BFaOZQJ7KmT9Cko/B5EpnQP4+rUDlkIbBTdx8QOP+xEDa4pHB
qUpQQPbAhEBnj6TBAWQJQXXV70CRwpTBJ+D1QNzb4UD544zBZ94BQYsOAkHZFZ7BvJu6QBLJ/EBF
ppfB2jrLQArVNT+KgazBFbKSQO2mPb9Um6XBy0vUQOMF278XzKzBXJHJQDMu6EDIVo7Be1zXQAHX
BUG2lJ/BpIqiQP4SDT8uwafBWC/kQJwl177o8q7B2HqrQB9k779yLKjBNljZQN77vD/M4Y/BaAy1
QKAwyEAJdnbBrRKWQEla7UAK63rBKACpQHQw1EDbzYbBlqniQPV0xz7Ro4fBklylQORrDUEq+XXB
wnydQBTKHUE/z6fB2F7nQEGrH0HyGK/ByxOJQP6u4T/NXKTBIXKiQACfj0DTjY/ByFiiQNA1JEBK
75vBJEaHQDSQbUCahJfB7tW6QEru/EDHU7LBSCrGQKgeEEHOBqrBKDOvQI+E1j8hE5PBeEeMQG61
tkDpS4zBoTX3QK92AkAOZJTBmcl1QPNHkkDJF6DB4sMFQZNciL50RrPBxDqcQErnRsB0GKbB4eSc
QOyW4UBDXK7B7ijeQLvp5UB8BrXB6VoaQdn96kD7pZPB8McAQa9P0kCpv4XB9xkNQXsCB0F7KqTB
UaGYQLOlAEE0wZjByC7XQEeK2T90Q67BohlnQLAOXb87/qHBW2jnQNIRJcA/sa7BTHbVQBC+zkBE
bnDBTxepQKZCqkCUYm/BP3FoQATY5kBWW3fBBrwCQRpmgz4I34bBQDTVQE43Lz9ot3/BzAXUQJpn
Dr/qPorBAuWLQJzlGEH19nnBUimtQP+0DkHq22TBXgbCQHYAEUGOin/B4AmSQLXcJEGfV6/B1VOE
QCCLE0EnZqTBgVelQMSfKkEHHqLBLwLaQJ+aJkGidrbB1b/uQCyPLEGWZanBfmoCQVHVFkGiA7HB
7f2CQGCWGUAtYKvBBddUQGcPuD+S6KDBIV+oQNc0d0ABeIjBoyPBQAsZmEAKTpPBRhG/QGoRP0Dw
wZ/BqgZWQNNMU0AJbZPBOB2uQG6ZBkEgdLnByC+YQF3klz+uII/BP45oQOj3rkA4X4fBen6AQNAi
xUAZzZLB6txTQMW5gkDoDqXB

>  <OMEGA_E>  (96) 
AJFePgCwaD4Aq1A+

>  <OMEGA_NBR>  (96) 
    102012

$$$$
50168380
     RDKit          3D

 67 69  0  0  1  0  0  0  0  0999 V2000
    8.5873    7.4861  -18.5148 C   0  0  0  0  0  0  0  0  0  0  0  0
    7.6651    7.0574  -17.5452 C   0  0  0  0  0  0  0  0  0  0  0  0
    8.1453    8.1541  -19.6706 C   0  0  0  0  0  0  0  0  0  0  0  0
    5.8472    7.9593  -18.8953 C   0  0  0  0  0  0  0  0  0  0  0  0
    6.4220    0.8559  -21.5748 C   0  0  0  0  0  0  0  0  0  0  0  0
    4.6332   -0.6138  -20.7945 C   0  0  0  0  0  0  0  0  0  0  0  0
    6.6907   -1.5654  -21.6986 C   0  0  0  0  0  0  0  0  0  0  0  0
    6.2847    7.3075  -17.7222 C   0  0  0  0  0  0  0  0  0  0  0  0
    6.7670    8.4188  -19.8693 C   0  0  0  0  0  0  0  0  0  0  0  0
    5.1406    0.6858  -21.0045 C   0  0  0  0  0  0  0  0  0  0  0  0
    7.1996   -0.2688  -21.9104 C   0  0  0  0  0  0  0  0  0  0  0  0
    5.4047   -1.7371  -21.1486 C   0  0  0  0  0  0  0  0  0  0  0  0
    6.7981    1.4692  -18.0209 C   0  0  0  0  0  0  0  0  0  0  0  0
    5.4321    7.8624  -14.9342 C   0  0  0  0  0  0  0  0  0  0  0  0
    5.6586    6.3942  -15.3134 C   0  0  0  0  0  0  0  0  0  0  0  0
    4.3915    7.8858  -16.0619 C   0  0  0  0  0  0  0  0  0  0  0  0
    5.2147    6.7738  -16.7571 C   0  0  0  0  0  0  0  0  0  0  0  0
    7.0523    0.3137  -17.0592 C   0  0  0  0  0  0  0  0  0  0  0  0
    5.9795    7.9718  -22.2124 C   0  0  0  0  0  0  0  0  0  0  0  0
    7.3147   10.0638  -21.7620 C   0  0  0  0  0  0  0  0  0  0  0  0
    4.9631    9.8957  -20.9370 C   0  0  0  0  0  0  0  0  0  0  0  0
    4.3398    1.8926  -20.5563 C   0  0  0  0  0  0  0  0  0  0  0  0
    5.1078    4.5831  -17.8695 C   0  0  0  0  0  0  0  0  0  0  0  0
    5.1096    2.6725  -19.4657 C   0  0  1  0  0  0  0  0  0  0  0  0
    4.2600    3.8046  -18.8798 C   0  0  2  0  0  0  0  0  0  0  0  0
    6.2650    9.0803  -21.1738 C   0  0  0  0  0  0  0  0  0  0  0  0
    5.4864    1.7500  -18.3808 N   0  0  0  0  0  0  0  0  0  0  0  0
    4.3618    5.7587  -17.3964 N   0  0  0  0  0  0  0  0  0  0  0  0
    7.7464    2.0057  -18.5841 O   0  0  0  0  0  0  0  0  0  0  0  0
    3.8503    4.6778  -19.9322 O   0  0  0  0  0  0  0  0  0  0  0  0
    8.4386   -0.1045  -22.4263 F   0  0  0  0  0  0  0  0  0  0  0  0
    4.9157   -2.9814  -20.9484 F   0  0  0  0  0  0  0  0  0  0  0  0
    9.6417    7.3015  -18.3715 H   0  0  0  0  0  0  0  0  0  0  0  0
    8.0107    6.5366  -16.6644 H   0  0  0  0  0  0  0  0  0  0  0  0
    8.8630    8.4684  -20.4139 H   0  0  0  0  0  0  0  0  0  0  0  0
    4.7896    8.1107  -19.0533 H   0  0  0  0  0  0  0  0  0  0  0  0
    6.8054    1.8496  -21.7535 H   0  0  0  0  0  0  0  0  0  0  0  0
    3.6527   -0.7470  -20.3618 H   0  0  0  0  0  0  0  0  0  0  0  0
    7.2864   -2.4281  -21.9580 H   0  0  0  0  0  0  0  0  0  0  0  0
    5.0259    8.0235  -13.9248 H   0  0  0  0  0  0  0  0  0  0  0  0
    6.2995    8.5208  -15.0897 H   0  0  0  0  0  0  0  0  0  0  0  0
    6.7009    6.0533  -15.2280 H   0  0  0  0  0  0  0  0  0  0  0  0
    4.9962    5.6803  -14.8020 H   0  0  0  0  0  0  0  0  0  0  0  0
    3.3787    7.5836  -15.7572 H   0  0  0  0  0  0  0  0  0  0  0  0
    4.3397    8.8334  -16.6181 H   0  0  0  0  0  0  0  0  0  0  0  0
    8.1323    0.1120  -17.0048 H   0  0  0  0  0  0  0  0  0  0  0  0
    6.6783    0.5797  -16.0595 H   0  0  0  0  0  0  0  0  0  0  0  0
    6.5294   -0.5846  -17.4193 H   0  0  0  0  0  0  0  0  0  0  0  0
    5.6211    8.4279  -23.1471 H   0  0  0  0  0  0  0  0  0  0  0  0
    6.9032    7.4082  -22.4103 H   0  0  0  0  0  0  0  0  0  0  0  0
    5.2111    7.2900  -21.8191 H   0  0  0  0  0  0  0  0  0  0  0  0
    6.9208   10.5119  -22.6861 H   0  0  0  0  0  0  0  0  0  0  0  0
    7.5237   10.8578  -21.0299 H   0  0  0  0  0  0  0  0  0  0  0  0
    8.2432    9.5181  -21.9861 H   0  0  0  0  0  0  0  0  0  0  0  0
    4.6371   10.3502  -21.8842 H   0  0  0  0  0  0  0  0  0  0  0  0
    4.1749    9.2268  -20.5610 H   0  0  0  0  0  0  0  0  0  0  0  0
    5.1557   10.6873  -20.1979 H   0  0  0  0  0  0  0  0  0  0  0  0
    4.1644    2.5525  -21.4187 H   0  0  0  0  0  0  0  0  0  0  0  0
    3.3746    1.5569  -20.1492 H   0  0  0  0  0  0  0  0  0  0  0  0
    5.3460    3.9331  -17.0146 H   0  0  0  0  0  0  0  0  0  0  0  0
    6.0405    4.9117  -18.3513 H   0  0  0  0  0  0  0  0  0  0  0  0
    6.0160    3.1043  -19.9151 H   0  0  0  0  0  0  0  0  0  0  0  0
    3.3866    3.3754  -18.3671 H   0  0  0  0  0  0  0  0  0  0  0  0
    4.7531    1.2985  -17.8725 H   0  0  0  0  0  0  0  0  0  0  0  0
    3.6789    5.4545  -16.7323 H   0  0  0  0  0  0  0  0  0  0  0  0
    3.9020    6.1783  -18.1791 H   0  0  0  0  0  0  0  0  0  0  0  0
    3.3244    4.1945  -20.5586 H   0  0  0  0  0  0  0  0  0  0  0  0
  1  2  2  0
  1  3  1  0
  2  8  1  0
  3  9  2  0
  4  8  2  0
  4  9  1  0
  5 10  2  0
  5 11  1  0
  6 10  1  0
  6 12  2  0
  7 11  2  0
  7 12  1  0
  8 17  1  0
  9 26  1  0
 10 22  1  0
 11 31  1  0
 12 32  1  0
 13 18  1  0
 13 27  1  0
 13 29  2  0
 14 15  1  0
 14 16  1  0
 15 17  1  0
 16 17  1  0
 17 28  1  0
 19 26  1  0
 20 26  1  0
 21 26  1  0
 22 24  1  0
 23 25  1  0
 23 28  1  0
 24 25  1  0
 24 27  1  0
 25 30  1  0
  1 33  1  0
  2 34  1  0
  3 35  1  0
  4 36  1  0
  5 37  1  0
  6 38  1  0
  7 39  1  0
 14 40  1  0
 14 41  1  0
 15 42  1  0
 15 43  1  0
 16 44  1  0
 16 45  1  0
 18 46  1  0
 18 47  1  0
 18 48  1  0
 19 49  1  0
 19 50  1  0
 19 51  1  0
 20 52  1  0
 20 53  1  0
 20 54  1  0
 21 55  1  0
 21 56  1  0
 21 57  1  0
 22 58  1  0
 22 59  1  0
 23 60  1  0
 23 61  1  0
 24 62  1  6
 25 63  1  1
 27 64  1  0
 28 65  1  0
 28 66  1  0
 30 67  1  0
M  CHG  1  28   1
M  END
>  <OMEGA_C>  (97) 
iGUJQSCO70BJHpTBRkj1QPfV4UCFXIzBWVMCQRp3AkFMXZ3B8xu7QPiy/kCWKZfB34DNQO4cWz84
mazBjkOUQN0gHb8JW6bB4RnWQNddyL/Llq3BoxzJQHDX6UAex43BEIvYQIyzBkFt9J7Bt3+kQFyP
Lz89CajBvGLmQJifib6CSK/Bl/OsQLdX3r9IMKnBGorZQOwOvD/GKpDB89OtQASZ+0Ca8m7BKRO1
QFqdzEDIA3XBQIeMQHhY/EDFfoDB8t6mQB/D2ECcDobBe6zhQEyYoD5HeYjB9Fe/QB4Z/0AYs7HB
aBLqQIYFIUGGGK7Bl9GeQNtUHkECf6fBet+KQG5B8j9Ac6TBUXOjQLSokkCp9I7BPoKjQN0JK0C9
uZvBKVKIQKF+c0DiCZfBy3rIQN1IEUHsY6nB6JCvQDMA4D/sC5PBKpSLQPpGuEDtK4vB4+L3QCBd
AEBKrJTBiGp2QHiwlUAjdZ/BhgQHQaIC1r0labPBuU2dQIbPPsBhlqfBbUQaQe2l6UDc+JLBxisA
Qbor0UC5UIXBrM4NQbN+B0G/T6PBF0SZQJTFAUErbZjBnMXZQMTA7D8oB67BtsVpQGw+P78L5aLB
EirpQFxlG8Dxqa/BHdSgQBdgAEHHy17Bp5XJQClVCEGXb3HB+G3WQEm0wUALpnPB++CfQNnEtUDz
1GzBCTxYQDGt8kB6HXzB1d6KQIhVDUHz8YTB4x0CQelr5T3dCYjBlLTVQFBnFD/0eYDB0/DQQJ2q
Fb+lWovBvt+zQKTYBkE2LbnBzubcQBAQ7UBRSLPBRcGmQPNH6UB3ja7B+3bdQKgwKEEvfbXBRcLw
QIm5LUEsPajB/uMDQS5KGEFz46/B7WKUQEmaJUHhEq/B8piFQBmhE0HtfKTBZvukQBT/KkE7laHB
30KFQJVbI0CWWavBP/lXQD5Hxz+pMaHBkBKrQKS4e0DaHYjBs0vBQJ8snUByz5LBOYPAQJatRkAq
Up/Bkr5YQBsGWEC575LBmRmYQKEzpj/3+o7BCnNrQKGLrkC824XBJrp5QDq0xUC4bpHBcsNUQDU5
hkAUeKTBNxYJQSHy70C3NpTB+OH0QFwD4kDjbozBrtwBQW+PAkH3dJ3B6k26QGo5/kAJNZfBRg+U
QEUXIb/3KabBPNzMQGPtWD+Pi6zBCArWQKxOyb/1Y63BPp/IQA6I6UBA1Y3BFIbXQHWYBkH8A5/B
avijQBMvLD/97afBxgStQEr037/h7KjBovrlQJc/jL6tLq/B1kTZQG9Auj/jN5DBcKqvQPiE+0A6
BG/BNne1QOBIzEBjCnXBXD+NQN6Q/EAPSIDBOqymQJix2EAZAobBzozhQHMUsT4JGojBipe+QPDf
/kC8xbHB/mPoQPMzIUEUDq7BCCqdQAjmHUFUhKfBQECKQGtU8D+2U6TBmjCiQCgokkADsY7BvAWj
QCuiKkCmqpvBLvuHQEYndEBNIpfBWjPHQB8qEUFLbKnBbC+vQKNR4D8X7ZLBYs6KQH1xuECaEIvB
0o73QOg0/D/O55TBL3Z6QBuflkBbo5/B1MmdQNq7P8DIKqfBHMoGQWZk1L1qU7PBm/0ZQVhc6kDN
FpPBjxYAQcaN0UBLYYXBnEINQQ+rB0FsbaPBCmeYQOhdAUFDc5jB5G9pQNE6RL87saLBJN3YQMPV
6z9hDa7BGUPpQOG0G8B6cK/BP82jQFOZAEH+sF7B0K7LQM76B0FMB3LBcJLWQCKEwECD+nPBrQGg
QFwOtkCjm2zBURtaQLMz80AbNHvBylWLQPZvDUEdu4TBBBICQQR9HD5XlIfBg3rVQGjOJz8ZN4DB
Ef7QQCUkEr/Ep4rBA/CyQI23BkFfPLnBSWjcQL1J7UB6XrPBeE6mQCqo6EBWp67BI6nbQI9fKEFB
b7XB7qTuQOngLUFKJ6jBOy8DQYu1GEGG2q/BzpOSQC0qJUETFa/BUDqEQAD+EkE9i6TBRe6iQCuN
KkGFkqHBiFKEQPkhIkA0PKvBJQpXQDXoxD/AAKHBa/6nQJLteUAN0YfBi/rAQHDwm0CgL5LBigzA
QKCoRUCvUp/BWOtVQEjXWUARZZPBSsqXQB4gqT86so7B1U1pQEljr0ApwYXB0Pl4QD7PxUAbZJHB
ZPlZQFDDh0Ab4aTBFh0JQbyw70BwS5TBiAn1QEfQ4UD4eYzB8tUBQXZnAkHziZ3BF1a6QD6//UAK
QZfBdd7MQFZBXD/jiKzB5P2TQAbFHr9NQKbBsRPWQMaJx79Lda3BJ8HIQKJO6UAW2Y3Bl27XQF1c
BkGFFp/BOfKjQHDDLj8U8qfBGQLmQKOmhL6MM6/BE/usQJeQ3r/IC6nBJgLZQJYMsj8sopDBxm2u
QDyM+kDBkG7BJmm1QO/My0BGE3XB3EmNQBZ9/EAqVIDBTsemQMCS2EB9AobB5xrhQOttrT73CYjB
u7zoQA8JIEGXhq7B0C+eQFucHkG2WKfBu7i7QO5J/kBon7HBAziKQB1e8T/nUKTBOiiiQPsLkkDs
n47BBP+iQNzXKkCYoZvBNASIQB5adEAgGpfBjtLGQJrpEEGgeqnBxAivQDlB4D+N6JLBkOGKQKN2
uECBEovBZG73QG3k+z9FxpTBExR7QGzYlkDbmZ/BnMsGQSd9sL2CWLPB/rOdQIUhP8DlYafBKgYa
QdsZ6kBJMpPBzDYAQeRt0UAWbIXBojQNQVSMB0Hgg6PBpGiYQEYGAUHQf5jBEuHYQCCe7T+q/63B
uDZpQAl1Qr9Tz6LB513pQEa8GsAJga/BzlGhQGUc/0BEZF7Bj2PKQPy8B0GQwnDBhcTWQB/IwEC7
9nPBS1WgQArAtECp9WzBZkRZQLx380Am4XvB3mSMQOOIDUFOroTBtN4BQQgKdj4XrobBZWDRQEj1
JD8+joDBbwfUQB+zIL8KrorBmbPbQB4xJ0ES4LXBWs/wQFPJLEE+zqjBXdwCQarVFkGyd7DBzkCT
QAzdJUFi4q7BXbyEQD1aFEFfFaTBnc+lQGdPK0FEj6HBotqvQJlzBkHvDrnBfozYQLpR60CwW7PB
Td2iQPxX6UDmPq7BQk+EQFLbIkCpNKvByfRWQOzIxT91AaHBWpmnQLO0eUBHu4fBFh/BQJ2Zm0C/
D5LBXBTAQODJRUDBRJ/BQsJVQJsqWkDDZ5PBM7WXQJ0Xrz8EYI7BNhppQE+Zr0C0yYXBAZN5QPDQ
xUCAbpHBzqVaQB8biEBg3qTBR5EJQYGw7UA4I5TBoEn1QDTC4EDsX4zBeMACQTaJAUHsbZ3BT8m7
QHNI/kDKSJfBSTqVQD5aFL+bmabByIfOQEZlZT9JtqzBwWbXQPQuw78NsK3BPk3JQDyj6UD30o3B
wJLZQI0fBkEdE5/BAWylQDLEOD+MOajBziOuQCes2b+5XKnBoI/nQHDUZ77/X6/BOGDaQJ+quj+e
YJDBE7qrQLWy+0C+k27BPEW0QA5DzUDxDnXBIIuMQL/G/UAbvIDBQp2mQNOC2UDOG4bB7ZbiQDuU
qD5IbojBImvsQK4pIEFZN67BXvugQJJbHkETp6fBYCzAQH1c/kCU07HBdb+LQAJf9j9AlKTB06ei
QHHIkkD2r47BRuujQMEaLEAdq5vBE/SHQD7SckC/x5bBKg3KQIjUEEF2hqnBnFGwQDiu3z/DJZPB
rROLQGEjuUAxMYvBxLH4QMZI/z9V5pTBBFtzQMtPlUC7FZ/BNZWeQAyOPMA7w6fBkpgHQYzmbL1x
gLPBTF8aQfsp50CW9ZLBSfP/QI4I0ECiTIXByFwOQT1MBkF4XqPBMAqaQGTEAUFem5jBrWRrQEY3
N78cPKPBPsXaQEsN8j/yGa7BoqTqQGWuGMDDta/BTNWcQOer/0AiwV7Bu4vHQBqNCEFw5m/BXdbV
QNskw0CZe3PBuGCfQJWjtUB/PW3BX7lWQBAl9UD5e33BhNeMQB0oDkF1HIXBBpoCQf97Ej482YfB
OhvWQMlYHT+dhoDBBl/SQEWRFb+zL4vBSzzgQL9zJ0HSn7XB453zQKnNLEEFXajBrt4EQQIWF0HE
+q/BOeeWQEC2JUF5Pa/BzUWHQEz1E0Emo6TBB7SnQLz5KkGWwKHBVhS1QMuVBkEDULnBQ1TdQNmo
60BoZLPBJRWnQAoe6UChrq7BUpWGQEY8JkDYa6vB7k1ZQEf+yj/AeKHBnHOpQI/zfEAAtIfBt/DA
QNiTnED4cZLBFLvAQNxxSUDeJZ/BoihZQFRoVUCApZLB7fmYQC/CpD+OGY/BKFlpQNkxsEB474XB
TRx6QDNUxkAklZHBq0BSQPGRhUCVGaTB

>  <OMEGA_E>  (97) 
wGa9PSA4vj0An8U9IOviPQ==

>  <OMEGA_NBR>  (97) 
    106583

$$$$
50168375
     RDKit          3D

 64 66  0  0  1  0  0  0  0  0999 V2000
    8.6106    7.4277  -18.4455 C   0  0  0  0  0  0  0  0  0  0  0  0
    7.6477    7.0229  -17.5087 C   0  0  0  0  0  0  0  0  0  0  0  0
    8.2176    8.0811  -19.6280 C   0  0  0  0  0  0  0  0  0  0  0  0
    5.8872    7.9038  -18.9511 C   0  0  0  0  0  0  0  0  0  0  0  0
    6.4530    0.8650  -21.5856 C   0  0  0  0  0  0  0  0  0  0  0  0
    4.6532   -0.6180  -20.8583 C   0  0  0  0  0  0  0  0  0  0  0  0
    6.7448   -1.5537  -21.7004 C   0  0  0  0  0  0  0  0  0  0  0  0
    6.2835    7.2679  -17.7593 C   0  0  0  0  0  0  0  0  0  0  0  0
    6.8478    8.3538  -19.8882 C   0  0  0  0  0  0  0  0  0  0  0  0
    5.1578    0.6865  -21.0507 C   0  0  0  0  0  0  0  0  0  0  0  0
    7.2494   -0.2532  -21.8963 C   0  0  0  0  0  0  0  0  0  0  0  0
    5.4450   -1.7360  -21.1879 C   0  0  0  0  0  0  0  0  0  0  0  0
    6.7291    1.4176  -18.0380 C   0  0  0  0  0  0  0  0  0  0  0  0
    4.6035    7.7887  -15.8470 C   0  0  0  0  0  0  0  0  0  0  0  0
    5.5010    6.6539  -15.3087 C   0  0  0  0  0  0  0  0  0  0  0  0
    5.2155    6.7744  -16.8116 C   0  0  0  0  0  0  0  0  0  0  0  0
    6.9433    0.3011  -17.0211 C   0  0  0  0  0  0  0  0  0  0  0  0
    5.1395    9.9219  -20.9714 C   0  0  0  0  0  0  0  0  0  0  0  0
    6.0447    7.9212  -22.2275 C   0  0  0  0  0  0  0  0  0  0  0  0
    4.3449    1.8915  -20.6129 C   0  0  0  0  0  0  0  0  0  0  0  0
    5.0230    4.5574  -17.8521 C   0  0  0  0  0  0  0  0  0  0  0  0
    7.5294    9.9268  -21.7933 C   0  0  0  0  0  0  0  0  0  0  0  0
    5.0913    2.6692  -19.5009 C   0  0  1  0  0  0  0  0  0  0  0  0
    4.2418    3.8286  -18.9566 C   0  0  2  0  0  0  0  0  0  0  0  0
    6.3969    9.0287  -21.2062 C   0  0  0  0  0  0  0  0  0  0  0  0
    5.4279    1.7451  -18.4029 N   0  0  0  0  0  0  0  0  0  0  0  0
    4.3159    5.7833  -17.4289 N   0  0  0  0  0  0  0  0  0  0  0  0
    7.6992    1.9169  -18.5987 O   0  0  0  0  0  0  0  0  0  0  0  0
    3.9731    4.7340  -20.0271 O   0  0  0  0  0  0  0  0  0  0  0  0
    8.5045   -0.0781  -22.3675 F   0  0  0  0  0  0  0  0  0  0  0  0
    4.9667   -2.9855  -20.9915 F   0  0  0  0  0  0  0  0  0  0  0  0
    7.1081   10.6151  -22.8863 F   0  0  0  0  0  0  0  0  0  0  0  0
    9.6571    7.2372  -18.2583 H   0  0  0  0  0  0  0  0  0  0  0  0
    7.9512    6.5255  -16.5994 H   0  0  0  0  0  0  0  0  0  0  0  0
    8.9666    8.3791  -20.3468 H   0  0  0  0  0  0  0  0  0  0  0  0
    4.8364    8.0503  -19.1530 H   0  0  0  0  0  0  0  0  0  0  0  0
    6.8329    1.8615  -21.7565 H   0  0  0  0  0  0  0  0  0  0  0  0
    3.6599   -0.7590  -20.4583 H   0  0  0  0  0  0  0  0  0  0  0  0
    7.3546   -2.4114  -21.9431 H   0  0  0  0  0  0  0  0  0  0  0  0
    3.5216    7.7757  -15.6484 H   0  0  0  0  0  0  0  0  0  0  0  0
    4.9653    8.8275  -15.8384 H   0  0  0  0  0  0  0  0  0  0  0  0
    6.5036    6.8822  -14.9179 H   0  0  0  0  0  0  0  0  0  0  0  0
    5.0599    5.8305  -14.7279 H   0  0  0  0  0  0  0  0  0  0  0  0
    8.0187    0.0884  -16.9304 H   0  0  0  0  0  0  0  0  0  0  0  0
    6.5480    0.6146  -16.0437 H   0  0  0  0  0  0  0  0  0  0  0  0
    6.4174   -0.6053  -17.3557 H   0  0  0  0  0  0  0  0  0  0  0  0
    4.8389   10.3896  -21.9206 H   0  0  0  0  0  0  0  0  0  0  0  0
    4.3147    9.3011  -20.5914 H   0  0  0  0  0  0  0  0  0  0  0  0
    5.3780   10.7047  -20.2364 H   0  0  0  0  0  0  0  0  0  0  0  0
    5.7214    8.3824  -23.1724 H   0  0  0  0  0  0  0  0  0  0  0  0
    6.9307    7.2952  -22.4095 H   0  0  0  0  0  0  0  0  0  0  0  0
    5.2316    7.2981  -21.8267 H   0  0  0  0  0  0  0  0  0  0  0  0
    4.1864    2.5550  -21.4757 H   0  0  0  0  0  0  0  0  0  0  0  0
    3.3721    1.5521  -20.2277 H   0  0  0  0  0  0  0  0  0  0  0  0
    5.1327    3.8876  -16.9864 H   0  0  0  0  0  0  0  0  0  0  0  0
    6.0182    4.8290  -18.2339 H   0  0  0  0  0  0  0  0  0  0  0  0
    7.8520   10.6430  -21.0233 H   0  0  0  0  0  0  0  0  0  0  0  0
    8.3786    9.2886  -22.0793 H   0  0  0  0  0  0  0  0  0  0  0  0
    6.0171    3.0830  -19.9271 H   0  0  0  0  0  0  0  0  0  0  0  0
    3.3065    3.4289  -18.5376 H   0  0  0  0  0  0  0  0  0  0  0  0
    4.6765    1.3294  -17.8905 H   0  0  0  0  0  0  0  0  0  0  0  0
    3.6115    5.5332  -16.7646 H   0  0  0  0  0  0  0  0  0  0  0  0
    3.8857    6.1975  -18.2309 H   0  0  0  0  0  0  0  0  0  0  0  0
    3.4901    4.2834  -20.7099 H   0  0  0  0  0  0  0  0  0  0  0  0
  1  2  2  0
  1  3  1  0
  2  8  1  0
  3  9  2  0
  4  8  2  0
  4  9  1  0
  5 10  2  0
  5 11  1  0
  6 10  1  0
  6 12  2  0
  7 11  2  0
  7 12  1  0
  8 16  1  0
  9 25  1  0
 10 20  1  0
 11 30  1  0
 12 31  1  0
 13 17  1  0
 13 26  1  0
 13 28  2  0
 14 15  1  0
 14 16  1  0
 15 16  1  0
 16 27  1  0
 18 25  1  0
 19 25  1  0
 20 23  1  0
 21 24  1  0
 21 27  1  0
 22 25  1  0
 22 32  1  0
 23 24  1  0
 23 26  1  0
 24 29  1  0
  1 33  1  0
  2 34  1  0
  3 35  1  0
  4 36  1  0
  5 37  1  0
  6 38  1  0
  7 39  1  0
 14 40  1  0
 14 41  1  0
 15 42  1  0
 15 43  1  0
 17 44  1  0
 17 45  1  0
 17 46  1  0
 18 47  1  0
 18 48  1  0
 18 49  1  0
 19 50  1  0
 19 51  1  0
 19 52  1  0
 20 53  1  0
 20 54  1  0
 21 55  1  0
 21 56  1  0
 22 57  1  0
 22 58  1  0
 23 59  1  6
 24 60  1  1
 26 61  1  0
 27 62  1  0
 27 63  1  0
 29 64  1  0
M  CHG  1  27   1
M  END
>  <OMEGA_C>  (98) 
OMUJQRCw7UBokJPBprn0QFG74EDJEYzBYXsDQSpMAUERBp3BTmS8QEHs/EDam5fBCX/OQFlyXT9h
r6zB2OaUQOYzHr/D3abBz9XXQJ/fxr9ymq3BEhLJQKqS6EASE47B9CDbQBipBUEUG5/BGQ2lQCC/
Lz/mZ6jBxvrnQBKegb6dK6/BQj2uQDg23r/cgKnBHVXXQHV1tT/ATZDBnk+TQEI9+UBkjX3Bfwiw
QA/t1EBh8HTBKuWmQPrH2EASfobBvC/eQLokmj47K4jBl3akQAXAHkF/xafBL27BQER6/UD80bHB
zgmLQF0b8j8k56TBW7ygQNrVkUAO0Y7BMPHwQAjUHkHCWK7BU+yiQKvTKkC+AZzBgbyHQBsIdUAF
p5fBDbPMQHt1EEFSpqnBabGtQLBg3z8fOZPBAByKQKkQuUBObovBsF/2QHtd9T8mypTByEZ+QAt9
l0B/N6DBnxIIQXLjn72d8LLBEO+eQLQSP8CS7qfBcHXjQGvXKUEQF7fBboMaQSCX50DuEJLBLnD+
QMrQ0EB6y4TBG3cPQZwQBkEvxqLBL8SaQCLOAEFfOZnBGafaQCxE7j9pDa7BbjxqQL5LQr+TqqPB
zVjrQOFUGsCKi6/BXGJhQGfS+EDWX3rBIOSeQEk9DUEean3Brh3QQFw73EDPr27BvOqhQDGTukCH
pWvBzEwAQYD9tD1rcYfB9ojRQLlYHT92WYDBU1vNQMLyGr+G2IrBYdiaQNE7JkFeXa/BIxKKQH/R
FEEau6TB5BisQIxGK0Ex5KHBtBW3QCweBkEUYbnBnMjdQHRy6UCwRrPBXGmnQNSJ6UArna7BVPeF
QOGFI0BIzqvBC9BXQL6rxj9M0qHByD6kQDXOeEAr5IfBAJXAQByHmkAO35HBv0P7QJpJKkGsL6jB
jA4GQReeFEFUorDBXIzAQBNPRUC+ap/BE55TQBFzW0DtTJTB+qWVQOsqqj+lH4/BlSJnQJ4PsUDy
HYbBia94QCNSxkD12JHBmV1fQIoRiUDMraXBR10HQZ0E8EBITpTB7YzxQBck4kAzgIzBOAAAQTta
AkE+mp3BkJG2QDbl/EC7aJfB8uvNQDh0aj92O63BKu2VQOcAGr9/BKfBSl/YQOK6v7/oWq7BrF7F
QMXA6EA1CY7Biq3TQM0mBkH+Lp/BCyilQMAmNj/doKjBYJnnQKJlQL4CA7DBm3OvQF0c2r/W6anB
7kbaQMr4sj+yMZHBUDiRQAwq90CaaXzBQwuwQDT+00CFcnTBG/CkQD2n10CuJIbBVkfjQEOioj77
4IjB/je4QC4S/0DGyLHBsSTlQIxUIEHLZq7BAu2KQMKr8j/y0aTBkDygQK6MkEB+ao7BpzmaQBec
HkFHYKfBUA+jQPqjKkAz7ZvB9e2GQFB3cUCZGJfBQx/DQLoLEUGofqnBV/qvQNjM3D+PcZPBXbCI
QBjrtkA+04rByCj4QMThAUDaEJXByNR2QG3vlUD5ZJ/BAokHQeDfHjxTJ7TBHOWgQLx+PcBlSajB
vFOhQAE9LUF+g5/BZ0sYQUbM6kCpK5PBEu38QK900kCtWIXBY1cLQeV0B0HrmaPBPJeUQClRAEGT
rpjBS2fZQNG09T8Yn67Bi1VtQOPXQr+Rj6PBOxHsQMcIFsBrfbDBmtNdQDVM9UCylXjB8W2bQPJs
DEGeZ3zBokDQQI6Q3EBZyW7BfryjQN8CuUBt92rB3/gCQbpjgj7Rb4fBJ9bSQHTpET9AXYHBNInX
QKSwJr9/1ovBXWOsQIsQB0EHK7nBwx7VQLlM7ECLk7PBGmOfQKzW6UBdgq7BSy/YQAC9J0F0srXB
FzLtQFXiLEFXkqjB3w8BQe8tF0GiZ7DB2wOFQN2fJEDGmavBdGVYQKR/xD9YpKHB9DqlQIQtdkCl
jYfB5Wu/QAJVmkAGr5HBqDGRQA8EJ0E8xa7BFAiAQAntE0EL7KTBEba/QCI+SEAudJ/BHYdUQFV4
VECDf5PB6f6YQOoBpj8JDo/BxXJmQCMarkACUYXBIhZzQA2lw0AAHZHB2oFXQL40h0B4xKTBaZsI
Qfo+60A3MZXBX6TzQNNf30DxRY3BGZEBQeh5/0Bsnp7BmKW5QHLE+0DVP5jB7xnNQJbsOj9lwKzB
yGCTQDzQNL9XTabBmdLUQMYy2b9mba3B7sLHQCWp50Ah0Y7ByiPXQO5uBEG0MKDBpg6kQOrIFT/A
J6jBDYTlQNzF0b6JUq/BzLGrQOQg7L/P9qjBg9jZQDLOsT/GrJDBzS+TQLpJ+ECdc37BpU2xQKXz
1EDE+XXB5LmmQALU10By8YbBKG3iQCr5nD63WojBC27pQOzSHUFVmK/Bq1WeQIKAHEH55KjB0teK
QPm25z/FtKTBAhahQEj/j0Cg0o7Bili9QGSf+UC99bLBgkWjQHl4JkCD+JvB2YmHQDPfbkBlV5fB
fSfHQBywDkHsuKrBp6+vQE8J1z+XUpPBXCCKQMs6t0BzkYvBzLf3QOZnA0BNLpTBG0R4QK/Jk0C9
0p/BE5EGQQzfib7EhrPBX8WbQHsnRcDgHKfB4EyfQIr33UBbL6/BtW4ZQWvW5EBFDJTBs3z+QKP1
z0D4B4bBswgNQXj5A0GsuaTBeN2XQDGjAEHKcZnBbMbZQLes2z/KS67BA91nQPxPUr+21qLB0Y7n
QBmBJMB+Za/BDY9hQHUd90DByHrBbu2dQPvmDEHfu37BKIjRQDc+3UBOPXDBQGKkQLaNukAxSmzB
rm0CQYPriz48i4bBSXrQQBiqCD+CAYHBwx/YQKMhK7+KgovBaRzdQMrWJEEbDrfBjcHwQL6tKkHE
3qnBZloDQVmsFEEPT7HBovuTQNV/I0EHi7DBKZ6EQO1eEkGcqaXBvI+lQCVlKUHoLqPBtcGFQK2M
HUCZrqvBf2hXQDm/vj/nf6HB1pqlQJS7dkBiyIfBGnzAQAfVmECBIZLBhnuxQMorBEENYrrBtfPa
QFfR50B1pbTBIh3AQF2qQkB6lJ/BwJhVQLsbU0BioZPBIm+YQOKAnj/QHI/BNiNoQNBnr0DHHIbB
tXZ3QGarw0AwAJLB6KxYQGCUhEBbFqXB

>  <OMEGA_E>  (98) 
oJF9PvwphT6wgFo+

>  <OMEGA_NBR>  (98) 
    109980

$$$$
50168363
     RDKit          3D

 66 67  0  0  1  0  0  0  0  0999 V2000
    8.5290    7.4124  -18.5065 C   0  0  0  0  0  0  0  0  0  0  0  0
    8.0942    8.0340  -19.6896 C   0  0  0  0  0  0  0  0  0  0  0  0
    7.6027    7.0285  -17.5234 C   0  0  0  0  0  0  0  0  0  0  0  0
    5.7895    7.8468  -18.9339 C   0  0  0  0  0  0  0  0  0  0  0  0
    6.4749    0.8486  -21.6009 C   0  0  0  0  0  0  0  0  0  0  0  0
    4.6684   -0.6182  -20.8582 C   0  0  0  0  0  0  0  0  0  0  0  0
    6.7446   -1.5742  -21.7145 C   0  0  0  0  0  0  0  0  0  0  0  0
    6.7183    8.2941  -19.9057 C   0  0  0  0  0  0  0  0  0  0  0  0
    6.2189    7.2470  -17.7250 C   0  0  0  0  0  0  0  0  0  0  0  0
    5.1817    0.6819  -21.0562 C   0  0  0  0  0  0  0  0  0  0  0  0
    7.2575   -0.2784  -21.9207 C   0  0  0  0  0  0  0  0  0  0  0  0
    5.4483   -1.7436  -21.1893 C   0  0  0  0  0  0  0  0  0  0  0  0
    6.7864    1.3785  -18.1154 C   0  0  0  0  0  0  0  0  0  0  0  0
    7.0241    0.3166  -17.0463 C   0  0  0  0  0  0  0  0  0  0  0  0
    5.9919    7.8645  -22.2755 C   0  0  0  0  0  0  0  0  0  0  0  0
    7.2842    9.9710  -21.7618 C   0  0  0  0  0  0  0  0  0  0  0  0
    4.9161    9.7581  -21.0042 C   0  0  0  0  0  0  0  0  0  0  0  0
    5.7588    6.1540  -15.4133 C   0  0  0  0  0  0  0  0  0  0  0  0
    4.2795    7.9705  -16.2776 C   0  0  0  0  0  0  0  0  0  0  0  0
    4.3744    1.8921  -20.6167 C   0  0  0  0  0  0  0  0  0  0  0  0
    5.0267    4.5575  -17.8479 C   0  0  0  0  0  0  0  0  0  0  0  0
    5.1126    2.6706  -19.4984 C   0  0  1  0  0  0  0  0  0  0  0  0
    4.2362    3.7993  -18.9243 C   0  0  2  0  0  0  0  0  0  0  0  0
    6.2350    8.9620  -21.2155 C   0  0  0  0  0  0  0  0  0  0  0  0
    5.1602    6.7717  -16.7103 C   0  0  0  0  0  0  0  0  0  0  0  0
    5.4781    1.7401  -18.4155 N   0  0  0  0  0  0  0  0  0  0  0  0
    4.2968    5.7680  -17.3929 N   0  0  0  0  0  0  0  0  0  0  0  0
    7.7442    1.9594  -18.6151 O   0  0  0  0  0  0  0  0  0  0  0  0
    3.8921    4.6953  -19.9796 O   0  0  0  0  0  0  0  0  0  0  0  0
    8.5072   -0.1173  -22.4115 F   0  0  0  0  0  0  0  0  0  0  0  0
    4.9598   -2.9878  -20.9849 F   0  0  0  0  0  0  0  0  0  0  0  0
    9.5821    7.2288  -18.3525 H   0  0  0  0  0  0  0  0  0  0  0  0
    8.8161    8.3162  -20.4417 H   0  0  0  0  0  0  0  0  0  0  0  0
    7.9473    6.5651  -16.6107 H   0  0  0  0  0  0  0  0  0  0  0  0
    4.7321    7.9656  -19.1189 H   0  0  0  0  0  0  0  0  0  0  0  0
    6.8639    1.8414  -21.7724 H   0  0  0  0  0  0  0  0  0  0  0  0
    3.6763   -0.7502  -20.4524 H   0  0  0  0  0  0  0  0  0  0  0  0
    7.3452   -2.4378  -21.9590 H   0  0  0  0  0  0  0  0  0  0  0  0
    8.1040    0.2161  -16.8624 H   0  0  0  0  0  0  0  0  0  0  0  0
    6.5199    0.6146  -16.1152 H   0  0  0  0  0  0  0  0  0  0  0  0
    6.6197   -0.6468  -17.3902 H   0  0  0  0  0  0  0  0  0  0  0  0
    5.6476    8.3281  -23.2117 H   0  0  0  0  0  0  0  0  0  0  0  0
    6.9290    7.3188  -22.4596 H   0  0  0  0  0  0  0  0  0  0  0  0
    5.2260    7.1649  -21.9096 H   0  0  0  0  0  0  0  0  0  0  0  0
    6.9082   10.4251  -22.6905 H   0  0  0  0  0  0  0  0  0  0  0  0
    7.4599   10.7582  -21.0139 H   0  0  0  0  0  0  0  0  0  0  0  0
    8.2274    9.4437  -21.9675 H   0  0  0  0  0  0  0  0  0  0  0  0
    4.6072   10.2160  -21.9555 H   0  0  0  0  0  0  0  0  0  0  0  0
    4.1282    9.0756  -20.6530 H   0  0  0  0  0  0  0  0  0  0  0  0
    5.0797   10.5461  -20.2543 H   0  0  0  0  0  0  0  0  0  0  0  0
    4.9428    5.8416  -14.7450 H   0  0  0  0  0  0  0  0  0  0  0  0
    6.3742    5.2803  -15.6737 H   0  0  0  0  0  0  0  0  0  0  0  0
    6.3827    6.9035  -14.9045 H   0  0  0  0  0  0  0  0  0  0  0  0
    3.5249    7.6293  -15.5537 H   0  0  0  0  0  0  0  0  0  0  0  0
    4.9120    8.7408  -15.8121 H   0  0  0  0  0  0  0  0  0  0  0  0
    3.7765    8.3931  -17.1598 H   0  0  0  0  0  0  0  0  0  0  0  0
    4.2233    2.5573  -21.4797 H   0  0  0  0  0  0  0  0  0  0  0  0
    3.3981    1.5558  -20.2377 H   0  0  0  0  0  0  0  0  0  0  0  0
    5.1883    3.8921  -16.9870 H   0  0  0  0  0  0  0  0  0  0  0  0
    5.9986    4.8608  -18.2644 H   0  0  0  0  0  0  0  0  0  0  0  0
    6.0241    3.1150  -19.9247 H   0  0  0  0  0  0  0  0  0  0  0  0
    3.3335    3.3626  -18.4721 H   0  0  0  0  0  0  0  0  0  0  0  0
    4.7424    1.3460  -17.8647 H   0  0  0  0  0  0  0  0  0  0  0  0
    3.8792    6.2025  -18.1909 H   0  0  0  0  0  0  0  0  0  0  0  0
    3.5808    5.4831  -16.7555 H   0  0  0  0  0  0  0  0  0  0  0  0
    3.4031    4.2273  -20.6462 H   0  0  0  0  0  0  0  0  0  0  0  0
  1  2  2  0
  1  3  1  0
  2  8  1  0
  3  9  2  0
  4  8  2  0
  4  9  1  0
  5 10  2  0
  5 11  1  0
  6 10  1  0
  6 12  2  0
  7 11  2  0
  7 12  1  0
  8 24  1  0
  9 25  1  0
 10 20  1  0
 11 30  1  0
 12 31  1  0
 13 14  1  0
 13 26  1  0
 13 28  2  0
 15 24  1  0
 16 24  1  0
 17 24  1  0
 18 25  1  0
 19 25  1  0
 20 22  1  0
 21 23  1  0
 21 27  1  0
 22 23  1  0
 22 26  1  0
 23 29  1  0
 25 27  1  0
  1 32  1  0
  2 33  1  0
  3 34  1  0
  4 35  1  0
  5 36  1  0
  6 37  1  0
  7 38  1  0
 14 39  1  0
 14 40  1  0
 14 41  1  0
 15 42  1  0
 15 43  1  0
 15 44  1  0
 16 45  1  0
 16 46  1  0
 16 47  1  0
 17 48  1  0
 17 49  1  0
 17 50  1  0
 18 51  1  0
 18 52  1  0
 18 53  1  0
 19 54  1  0
 19 55  1  0
 19 56  1  0
 20 57  1  0
 20 58  1  0
 21 59  1  0
 21 60  1  0
 22 61  1  6
 23 62  1  1
 26 63  1  0
 27 64  1  0
 27 65  1  0
 29 66  1  0
M  CHG  1  27   1
M  END
>  <OMEGA_C>  (99) 
pnYIQTMy7UBhDZTBxIEBQSaLAEFnhJ3Bl0nzQCnp4EDlL4zBwkO5QNsY+0CueJfBfDLPQMA+WT+9
zqzBmGOVQHtCHr+y3abBxtPXQCp/yb9Bt63BUfzWQMW0BEHTPp/B7ADHQJXn50DQzI3BNdClQMqS
Lj8nc6jBYj3oQHaHjr6OXa/BY1iuQPQu37+3g6nBICrZQA5xsD9C7JDBtcXgQMYYoj7WXojBcr2/
QFGq+0AiNLLBfBjpQFSJH0E9GK7Bu1CdQF8hHEGmCKjBsEe4QKTtxED+nHbB6/GIQIsO/0BzOILB
BPuLQMYv8j8Y76TBtdqgQEjXkUB9yI7BmZqjQLbrKkC1/JvB646HQM0nc0ANZZfBvoTHQI1kD0FK
uanBHiClQA6y2EDGroXB10yvQNu73j/3UpPBnn+JQH2TuECaJIvBMdD3QIzO+j/O65TB7hh5QANA
lkBS1p/Bhh0IQdtR8L25SrPBobaeQGc3P8AU4afBGFAZQZBS50D80ZLBxQ4NQQAPBUGfiKPBHVD+
QAgV0kDD4oTBq22XQErm/kCH85jBS6XbQM2z6z/dLa7B7EhrQDcNQL9tnqPB/wvrQGMFHMAQrK/B
4qkBQW9CXT4a5obB1aLQQExTHT/y64DBTNTTQP+TJb86H4vBWLm0QPg/BUGZsbnBurrdQNEz6kBF
rbPBDjunQJBG5UDvRq/BuA/dQDHNJkEehrXBL7fuQMYhLEFrHKjBf6MDQTIZF0Fova/BDG6TQK50
I0HjpK/BQxqEQKU1EUFlOaXB8YyiQMG8KEHMCKLByCueQCHuukB562vBp/nLQAv4qEBux3rBET/M
QLPp3EDQeG7BWZdhQEwj9EDD23jBRS+dQEHaC0Fb/nzBXLFxQDZKBkFAR4nBZiWHQEmrI0BY1qvB
+nlZQM0jxz/B5qHBjQamQGUYeUBq5YfBPPS/QAqMm0B9HZLBUMXAQDxcR0DdZZ/BL1hVQKg1V0Dx
xpPBXsGXQC1LrD/96o7BN0R4QNJ6xkDfhpHBlyxlQGJ1r0BaC4bBt8tZQEpGh0BoK6XBBbsIQXSv
7UA7x5PB9P0BQVCjAEH2UZ3B/HLzQIBi4UCAAYzBzue5QKGv+kDZkJfB3XXPQP5JWz+r0KzB3reV
QBiPHb+g6qbB4UvYQH9dyL+ou63BkvvXQB6TBEECPJ/ByzfHQGr450B1zI3BvA6mQM6WLz9reqjB
LKToQFw0ib5pWq/BmMKuQMmF3r9JkqnBycDZQJS3sz9p/JDB2rfhQFTLtz6vUojBsqTrQJZOHkEi
eq7BP0ugQKI+HUFA2afBai++QCGD+0CKBrLBDL+3QCuVxUDfj3bBq/eIQHW8/0BlaoLBMBSMQHZM
8j+896TB6yihQARmkkBt9o7BrKqjQIBTK0C7C5zB2mWHQNPWckCgXJfBFs7IQFRMD0Fou6nB5QGl
QEMQ2UDGu4XB58WvQE333z/5ZZPBJneJQBm6uEDnKIvBkjP4QHYn/j+zEpXBNsZ1QImVlUDTxp/B
+FgIQaje0r3aOrPBGiGfQEXzPsCA/KfBbI8ZQR0O6EA2apLBbLENQec1BUGqQKPBviX+QJ3a0kAU
o4TBzCGYQLr//UBpM5nBftDbQODf7D+IL67BE+5rQCsRQL9HrqPBZZvrQL1YG8Bkrq/BHSgCQa3Z
iT6w3YbBMpjRQBx7Kj9c5YDB9vrUQN20HL9H9YrBravfQKeYJUEV6LXBRT/zQLr2KkFMqqjBZVYE
QUD7FEEfN7DBRF2WQAWeJEGnca/BsD2GQNMgE0EIx6TBmpynQPfaKUEs/aHB5l6zQMFEBUGhgrnB
tvLaQMo36ECbmLPBQa2kQKvJ5kDl367BiW2dQDTJu0Bb82vBWXjLQOCHqUCmiHrBhJrLQB2o3UCD
a27BWA1hQCct9UCYUXnBgj2dQJkuDEGxY33BcHVyQMyRBkHLiYnBHBaHQAaTI0Dm4KvBbNNZQArF
xj+56aHBvKCnQCukekBMGojBGp+/QEu4nEDdiZLBfZ/AQEplSEBQfJ/B12NWQIMHVkAnhZPBAmKY
QA4prD+qAI/B0hV3QPmkxkCBd5HBV/VlQGskr0Au/4XBoelVQIAghkAv+KTB

>  <OMEGA_E>  (99) 
pAKVPszolT4=

>  <OMEGA_NBR>  (99) 
    112412

$$$$
50168364
     RDKit          3D

 60 61  0  0  1  0  0  0  0  0999 V2000
    8.4517    7.3302  -18.4091 C   0  0  0  0  0  0  0  0  0  0  0  0
    7.4785    7.0032  -17.4517 C   0  0  0  0  0  0  0  0  0  0  0  0
    8.0807    7.9713  -19.6067 C   0  0  0  0  0  0  0  0  0  0  0  0
    5.7498    7.9461  -18.8986 C   0  0  0  0  0  0  0  0  0  0  0  0
    6.4510    0.8090  -21.6119 C   0  0  0  0  0  0  0  0  0  0  0  0
    4.6344   -0.6131  -20.8090 C   0  0  0  0  0  0  0  0  0  0  0  0
    6.6730   -1.6201  -21.6952 C   0  0  0  0  0  0  0  0  0  0  0  0
    6.1284    7.3113  -17.6949 C   0  0  0  0  0  0  0  0  0  0  0  0
    6.7266    8.3133  -19.8620 C   0  0  0  0  0  0  0  0  0  0  0  0
    5.1676    0.6740  -21.0371 C   0  0  0  0  0  0  0  0  0  0  0  0
    7.2054   -0.3371  -21.9312 C   0  0  0  0  0  0  0  0  0  0  0  0
    5.3852   -1.7577  -21.1406 C   0  0  0  0  0  0  0  0  0  0  0  0
    6.8642    1.4245  -18.1497 C   0  0  0  0  0  0  0  0  0  0  0  0
    7.1250    0.3818  -17.0674 C   0  0  0  0  0  0  0  0  0  0  0  0
    6.0472    7.8403  -22.2439 C   0  0  0  0  0  0  0  0  0  0  0  0
    7.4331    9.8894  -21.7681 C   0  0  0  0  0  0  0  0  0  0  0  0
    5.0352    9.8254  -21.0706 C   0  0  0  0  0  0  0  0  0  0  0  0
    4.3897    1.9045  -20.6040 C   0  0  0  0  0  0  0  0  0  0  0  0
    5.0740    6.8172  -16.7339 C   0  0  0  0  0  0  0  0  0  0  0  0
    5.0708    4.6142  -17.8778 C   0  0  0  0  0  0  0  0  0  0  0  0
    5.1535    2.6941  -19.5092 C   0  0  1  0  0  0  0  0  0  0  0  0
    4.2723    3.8075  -18.9138 C   0  0  2  0  0  0  0  0  0  0  0  0
    6.3171    8.9591  -21.2120 C   0  0  0  0  0  0  0  0  0  0  0  0
    5.5493    1.7744  -18.4296 N   0  0  0  0  0  0  0  0  0  0  0  0
    4.2707    5.7709  -17.4028 N   0  0  0  0  0  0  0  0  0  0  0  0
    7.8094    1.9999  -18.6787 O   0  0  0  0  0  0  0  0  0  0  0  0
    3.8485    4.6748  -19.9646 O   0  0  0  0  0  0  0  0  0  0  0  0
    8.4469   -0.2067  -22.4510 F   0  0  0  0  0  0  0  0  0  0  0  0
    4.8762   -2.9893  -20.9109 F   0  0  0  0  0  0  0  0  0  0  0  0
    9.4886    7.0894  -18.2265 H   0  0  0  0  0  0  0  0  0  0  0  0
    7.7658    6.5166  -16.5314 H   0  0  0  0  0  0  0  0  0  0  0  0
    8.8367    8.2060  -20.3414 H   0  0  0  0  0  0  0  0  0  0  0  0
    4.7072    8.1544  -19.0882 H   0  0  0  0  0  0  0  0  0  0  0  0
    6.8541    1.7918  -21.8068 H   0  0  0  0  0  0  0  0  0  0  0  0
    3.6492   -0.7203  -20.3795 H   0  0  0  0  0  0  0  0  0  0  0  0
    7.2522   -2.4983  -21.9395 H   0  0  0  0  0  0  0  0  0  0  0  0
    8.2084    0.2869  -16.9024 H   0  0  0  0  0  0  0  0  0  0  0  0
    6.6378    0.6946  -16.1321 H   0  0  0  0  0  0  0  0  0  0  0  0
    6.7165   -0.5883  -17.3869 H   0  0  0  0  0  0  0  0  0  0  0  0
    5.7560    8.2895  -23.2048 H   0  0  0  0  0  0  0  0  0  0  0  0
    6.9590    7.2404  -22.3811 H   0  0  0  0  0  0  0  0  0  0  0  0
    5.2346    7.1943  -21.8801 H   0  0  0  0  0  0  0  0  0  0  0  0
    7.1051   10.3262  -22.7228 H   0  0  0  0  0  0  0  0  0  0  0  0
    7.6326   10.6947  -21.0458 H   0  0  0  0  0  0  0  0  0  0  0  0
    8.3512    9.3050  -21.9286 H   0  0  0  0  0  0  0  0  0  0  0  0
    4.7791   10.2640  -22.0463 H   0  0  0  0  0  0  0  0  0  0  0  0
    4.2036    9.1953  -20.7224 H   0  0  0  0  0  0  0  0  0  0  0  0
    5.2152   10.6303  -20.3428 H   0  0  0  0  0  0  0  0  0  0  0  0
    4.2361    2.5572  -21.4760 H   0  0  0  0  0  0  0  0  0  0  0  0
    3.4140    1.5901  -20.2049 H   0  0  0  0  0  0  0  0  0  0  0  0
    5.5571    6.3968  -15.8395 H   0  0  0  0  0  0  0  0  0  0  0  0
    4.4215    7.6525  -16.4398 H   0  0  0  0  0  0  0  0  0  0  0  0
    5.3161    3.9664  -17.0233 H   0  0  0  0  0  0  0  0  0  0  0  0
    5.9999    4.9798  -18.3394 H   0  0  0  0  0  0  0  0  0  0  0  0
    6.0483    3.1490  -19.9592 H   0  0  0  0  0  0  0  0  0  0  0  0
    3.4037    3.3491  -18.4184 H   0  0  0  0  0  0  0  0  0  0  0  0
    4.8272    1.3774  -17.8630 H   0  0  0  0  0  0  0  0  0  0  0  0
    3.5864    5.4363  -16.7549 H   0  0  0  0  0  0  0  0  0  0  0  0
    3.8113    6.1814  -18.1905 H   0  0  0  0  0  0  0  0  0  0  0  0
    3.3547    4.1779  -20.6063 H   0  0  0  0  0  0  0  0  0  0  0  0
  1  2  2  0
  1  3  1  0
  2  8  1  0
  3  9  2  0
  4  8  2  0
  4  9  1  0
  5 10  2  0
  5 11  1  0
  6 10  1  0
  6 12  2  0
  7 11  2  0
  7 12  1  0
  8 19  1  0
  9 23  1  0
 10 18  1  0
 11 28  1  0
 12 29  1  0
 13 14  1  0
 13 24  1  0
 13 26  2  0
 15 23  1  0
 16 23  1  0
 17 23  1  0
 18 21  1  0
 19 25  1  0
 20 22  1  0
 20 25  1  0
 21 22  1  0
 21 24  1  0
 22 27  1  0
  1 30  1  0
  2 31  1  0
  3 32  1  0
  4 33  1  0
  5 34  1  0
  6 35  1  0
  7 36  1  0
 14 37  1  0
 14 38  1  0
 14 39  1  0
 15 40  1  0
 15 41  1  0
 15 42  1  0
 16 43  1  0
 16 44  1  0
 16 45  1  0
 17 46  1  0
 17 47  1  0
 17 48  1  0
 18 49  1  0
 18 50  1  0
 19 51  1  0
 19 52  1  0
 20 53  1  0
 20 54  1  0
 21 55  1  6
 22 56  1  1
 24 57  1  0
 25 58  1  0
 25 59  1  0
 27 60  1  0
M  CHG  1  25   1
M  END
>  <OMEGA_C>  (100) 
RzoHQUSR6kDlRZPBh0/vQB8a4EAOnYvBjkoBQYoU/0CW2pzBcP63QMFG/kBQMJfBVW7OQNQbTz8x
5azBtUyUQPT0HL+7eKbBUYnVQOZgz7/Ej63BwhvEQOf16UAzj43BL0DXQCoDBUFJ5Z7B91ylQD6N
LD/pS6jB1JLmQF2brL4Xc6/BVlOsQBf94L/iH6nBMKfbQKtVtj+RMpHB5//jQMx9wz4BiojB4ILB
QGzj+kCC87HBINztQOU6HkEBJa7BpyChQL80HUGrkKjBT3iMQBTF8z/41KTBcV6iQF4m2kAL34XB
1kOiQImnk0C+BY/BNumkQOJsLEDkEpzBd7aIQFGtc0CPT5fBeCXKQGpYD0EWsqnBp5OxQFQg4z++
b5PBzqmIQI6ruEDjOIvBxOb5QFf+/z//bZXBeE52QDGYlUCVt5/BgCYHQZagU761m7PB7gmcQENQ
P8CaSafBKtEXQfjb4kDsz5HBsYH4QLCH0EA3QITBS2MNQdhLA0Efu6LBRKGWQI94AkGetJjBDlXb
QPVZ5T9VdK7B6YxpQDxjOL87CaPBXBLoQJjkH8AfhK/Bm1UDQZfnkj4nOIfBBmnUQMjSMT95DoHB
yu3WQAuYFr9wGIvBSDG4QMShBEF+o7nBabDeQKKx50BoDLPBJ4KnQFI35kBiCq/ByVzjQEc4JUFT
yLXBoz70QIkdK0HcXajBWJ4FQXbhFEG3ba/BcO6YQIU5JEHhXrDBlYOGQNofE0Fqx6XB6eKmQIcV
KkEBvqLBy42HQHyoI0DQzqvBtH9aQCSHyz+co6HB3dOxQMKyzECvbn3BIX2NQE3h9EDHhIPBrx2q
QEPafUCqL4jBG/+/QORan0ARt5LBRYvBQCKJSUBwrJ/Bs9VZQLRXVkDxWJPBd3iaQCxNsD9/547B
BYhlQGj2rUAACobB8exzQDzOxUAWhpHBmbJWQKqxhUCe2aTB+S0HQYp060AzFJPBdRPvQB/e4EAQ
d4vBr0kBQeNm/0AivZzBgcW3QAaa/UBIRJfBukHOQEpHUj9h1KzBX2qUQELmHL9JaqbBH37VQJ2O
zb9AuK3BKc/DQE/36UAxi43BXCfXQN7HBEFw6p7Bx0ylQJhvLT9YMajBWm/mQJR2o76RgK/Brm2s
QFVJ4L+bNqnBtsXbQJfvvD8Wx5DBBk3kQLtJrz6V5IjBSZ/uQKu2HEEknq7BJKiiQPPqHUH+bajB
Fpe+QLn5+UCtvrHBfUWMQCB68z94sKTBXwaiQO9B2kC52oXB3vihQFuyk0CL8I7Bj82kQFKKLEAt
+pvB252IQMoFdEAcSJfBsgHKQJj1DkEJvqnBW5OxQM7o4z+LT5PB2VeIQNK8uEBtL4vBoNb5QNOC
/j+ykpXB3jB3QNjRlUA4u5/Bcg0HQa4aOL61rLPBqEKcQAAtP8B1dKfB2MoXQdZF5EAxhZHB7Df4
QEvI0UAFCYTB5nENQQqKA0E/kqLBC12WQMbJAUH/5ZjBEQzbQNpO5z/KU67BeRdqQP79Ob+/56LB
SfznQNC6HsDazq/BPmoDQS16Bj44n4jB2S/ZQFJCIz9n4oDBTQbTQIxAD79RfIvBRfTjQIOaI0F6
Q7bBIfL2QIGvKUHXC6nBsW8FQTKUEkFU/a/B1TGaQL3aJEFaPLDB2WeHQIOnFEHqVaXBsn+qQJLW
KkH1yKLBDju1QNwaBEERcrnB35LaQKgm5UDr7LLBuNejQGv55kCsjq7BiAiHQCJzI0ALqKvB1Wda
QE55yj81caHBnHGxQNnizEB/Xn3BmiSNQPYF9UA1h4PBrYypQLHVfUAEGIjB/9m/QCFWn0C1kZLB
3mjBQHZ4SUDXnJ/B9yVZQLwCV0AEZJPBzm+aQNX8rD/o+o7BE9FkQCgarkCtAIbBNGBzQH7KxUAJ
gZHB+M5XQBUAhkDJ5qTBvykHQbrW6UAqWJPBRCTvQFOX30DfrIvBYUEBQWUV/kB99pzBLtu3QPQv
/UA/WJfBuYKUQGLhGb/1g6bBK4POQKBsVT/706zBbhLWQMz4y7+oja3B4O7DQDpM6UCiqI3BDC3X
QOZwBEFjCp/BBlqlQHuBMD9KTajBws+sQMq83r9GKanB2uPmQBMDnb7bZa/BDoPbQNoGvT8F6JDB
yVjkQFR0qT5cKYnBFY7AQO3R+UBeCbLB9S3uQClRHUFMZa7B4LGhQAMNHUEkm6jBZTCMQD4F9T9m
2KTBMjGiQLUF2kDn5YXBM5WhQA8Zk0CDz47BsHykQLyyLECdCpzBxlKIQGzQc0CaRJfBmR3KQPrJ
DkEh1anBKESxQHy24j+cdZPBPT2IQPluuEC7HYvB7nv5QLwCAUBHjJXBhGh3QIQtlkA7qJ/B1qqc
QPRmPsAxZafB80gHQaKQKr55kLPBfb8XQQoq4kAo3JHBOFH4QEdM0EBMRoTBiV4NQaG/AkHC1qLB
snmWQHPIAUEe6pjBTeZpQMAYN7+IHaPBLE7bQAPl6D/iUa7B4M7oQCntHcCVga/B+HwDQWd/DT7z
04jBerzYQJQ8Gj+gJIHBjLDTQCUJE78f7YvBhEK3QFcgBEEYuLnBA1bdQCES5kBLLLPBUESmQGit
5UAPDq/Bq6jjQHJSJEE2B7bBCjb1QIwzKkETqqjBZJcFQa2zE0E9uK/B7GiZQM0ZJEELZrDB59OG
QM8+E0EkuqXBSjioQM7nKUEi0qLBMVOHQHh8JEDzzavBveRZQAQszD85sqHBfqyxQJ7XzEDZbX3B
1HuNQPT59EB3nIPBNXqoQFE6fEBt9YfBgNO/QP1enkB4UpLBTSDBQOf3SUAvnp/BCTtYQKumVkB3
eJPBxSiaQH3bqT9uN4/BhrBkQKkfrkDK4YXBlxJzQMdRxUAQc5HBZyVYQOawhkCw5qTBKSkHQdU4
6kD3N5PBxOzuQEMu4EColovBsmUBQRtX/kBd4JzBzQK4QAHR/UCuXZfB+R6VQH2hFr/Ij6bB/dnO
QMsQWj8/9KzB3rLWQNaRyb/6oq3BRczDQMP46UB6po3BW4rXQAahBEEeCJ/B0NClQGwRND9pX6jB
dH6tQHbT3L8lOKnB4VrnQHyYkr7ega/BRLfbQMA6uj+K5ZDB9CnkQHNvnj5UHYnBC1fvQMsRHUHn
fK7Bxu+iQPedHUE1pKjB+mHAQJMz+kCIBLLBm7WMQLpc9j/P2KTB0NOhQDSu2kAm9oXB7NGhQCCr
k0DU2o7B5OqkQLLZLEBR+JvBTYaIQISVc0DxK5fBQsXKQIXzDkGC26nBZIyxQGZK4j/OZ5PBhTSI
QOX3uEBsO4vB/tr5QCAm/T/RlpXBjPR1QAGdlUCNkJ/BR4idQCCGPcB2Z6fBw4YHQSjvEb4op7PB
mLcXQeF84kDRrJHBot/3QIb70ECGKITBupcNQXrIAkGPuaLB6bGWQCEtAkEN+5jBaTxrQOd/NL85
IqPBgXPbQHZb6z8ygK7Bi4TpQHedHMDDlq/Bl1oDQVHmzz0+z4jBJ9DYQO8+Fz8zGIHBFg3TQDkL
F7/P04vBZgblQE0RJEG1I7bBHOj2QK72KUEKzqjBHPsFQY4pE0HVyq/B0M+aQEqlJEEKc7DBeryH
QLwcFEHitKXBzAuqQOh6KkF256LBbk63QF1YBEG/tbnBmbzcQFfX5UCoJrPBHLelQL6o5kBC/67B
t++HQH+eJUAixKvBy9laQHM4zT8lvaHBmhGxQAqczUCXd33B4fGMQE2W9UBVvYPBayapQIg/fkC3
8ofBC9W/QCEMn0Cvd5LBq5fBQKZrSkBQfZ/B1H9ZQOXcVUCaPpPBaViaQNugqj84Io/B20dkQBSd
rkBpDIbBI2tzQF3FxUAPm5HBY6FWQDy5hUAQuqTB

>  <OMEGA_E>  (100) 
+JqQPihmkz5ofZQ+XKCWPg==

>  <OMEGA_NBR>  (100) 
    116616

$$$$
50168373
     RDKit          3D

 64 66  0  0  1  0  0  0  0  0999 V2000
    8.6217    7.3841  -18.4176 C   0  0  0  0  0  0  0  0  0  0  0  0
    7.6416    7.0091  -17.4858 C   0  0  0  0  0  0  0  0  0  0  0  0
    8.2517    8.0308  -19.6105 C   0  0  0  0  0  0  0  0  0  0  0  0
    5.9123    7.9224  -18.9463 C   0  0  0  0  0  0  0  0  0  0  0  0
    6.5110    0.8744  -21.6045 C   0  0  0  0  0  0  0  0  0  0  0  0
    4.6657   -0.5646  -20.9028 C   0  0  0  0  0  0  0  0  0  0  0  0
    6.7470   -1.5521  -21.7080 C   0  0  0  0  0  0  0  0  0  0  0  0
    6.2845    7.2800  -17.7506 C   0  0  0  0  0  0  0  0  0  0  0  0
    6.8916    8.3403  -19.8783 C   0  0  0  0  0  0  0  0  0  0  0  0
    5.2027    0.7267  -21.0920 C   0  0  0  0  0  0  0  0  0  0  0  0
    7.2850   -0.2642  -21.9010 C   0  0  0  0  0  0  0  0  0  0  0  0
    5.4348   -1.7015  -21.2170 C   0  0  0  0  0  0  0  0  0  0  0  0
    6.7606    1.3858  -18.1055 C   0  0  0  0  0  0  0  0  0  0  0  0
    4.5605    7.8061  -15.8737 C   0  0  0  0  0  0  0  0  0  0  0  0
    5.4588    6.6820  -15.3133 C   0  0  0  0  0  0  0  0  0  0  0  0
    5.1985    6.7918  -16.8204 C   0  0  0  0  0  0  0  0  0  0  0  0
    6.9590    0.3226  -17.0297 C   0  0  0  0  0  0  0  0  0  0  0  0
    6.2380    7.9162  -22.2589 C   0  0  0  0  0  0  0  0  0  0  0  0
    5.1649    9.8481  -21.0354 C   0  0  0  0  0  0  0  0  0  0  0  0
    4.4070    1.9471  -20.6679 C   0  0  0  0  0  0  0  0  0  0  0  0
    5.0455    4.5783  -17.8731 C   0  0  0  0  0  0  0  0  0  0  0  0
    5.1300    2.6986  -19.5229 C   0  0  1  0  0  0  0  0  0  0  0  0
    4.2488    3.8156  -18.9404 C   0  0  2  0  0  0  0  0  0  0  0  0
    7.6073    9.9732  -21.7090 C   0  0  0  0  0  0  0  0  0  0  0  0
    6.4782    9.0213  -21.2038 C   0  0  0  0  0  0  0  0  0  0  0  0
    5.4638    1.7488  -18.4474 N   0  0  0  0  0  0  0  0  0  0  0  0
    4.3176    5.7898  -17.4445 N   0  0  0  0  0  0  0  0  0  0  0  0
    7.7350    1.9681  -18.5704 O   0  0  0  0  0  0  0  0  0  0  0  0
    3.8747    4.7085  -19.9890 O   0  0  0  0  0  0  0  0  0  0  0  0
    8.5495   -0.1219  -22.3584 F   0  0  0  0  0  0  0  0  0  0  0  0
    4.9183   -2.9374  -21.0330 F   0  0  0  0  0  0  0  0  0  0  0  0
    7.8920   10.9117  -20.7651 F   0  0  0  0  0  0  0  0  0  0  0  0
    7.2441   10.6036  -22.8569 F   0  0  0  0  0  0  0  0  0  0  0  0
    9.6624    7.1757  -18.2182 H   0  0  0  0  0  0  0  0  0  0  0  0
    7.9266    6.5145  -16.5690 H   0  0  0  0  0  0  0  0  0  0  0  0
    9.0109    8.2953  -20.3316 H   0  0  0  0  0  0  0  0  0  0  0  0
    4.8674    8.0984  -19.1548 H   0  0  0  0  0  0  0  0  0  0  0  0
    6.9178    1.8612  -21.7689 H   0  0  0  0  0  0  0  0  0  0  0  0
    3.6638   -0.6810  -20.5167 H   0  0  0  0  0  0  0  0  0  0  0  0
    7.3406   -2.4249  -21.9365 H   0  0  0  0  0  0  0  0  0  0  0  0
    3.4755    7.7844  -15.6941 H   0  0  0  0  0  0  0  0  0  0  0  0
    4.9129    8.8480  -15.8649 H   0  0  0  0  0  0  0  0  0  0  0  0
    6.4524    6.9214  -14.9065 H   0  0  0  0  0  0  0  0  0  0  0  0
    5.0150    5.8578  -14.7357 H   0  0  0  0  0  0  0  0  0  0  0  0
    8.0314    0.2217  -16.8066 H   0  0  0  0  0  0  0  0  0  0  0  0
    6.4211    0.6196  -16.1173 H   0  0  0  0  0  0  0  0  0  0  0  0
    6.5672   -0.6403  -17.3893 H   0  0  0  0  0  0  0  0  0  0  0  0
    5.9421    8.3774  -23.2127 H   0  0  0  0  0  0  0  0  0  0  0  0
    7.1634    7.3391  -22.4024 H   0  0  0  0  0  0  0  0  0  0  0  0
    5.4378    7.2459  -21.9121 H   0  0  0  0  0  0  0  0  0  0  0  0
    4.9010   10.3174  -21.9946 H   0  0  0  0  0  0  0  0  0  0  0  0
    4.3501    9.1812  -20.7171 H   0  0  0  0  0  0  0  0  0  0  0  0
    5.3180   10.6285  -20.2754 H   0  0  0  0  0  0  0  0  0  0  0  0
    4.2943    2.6223  -21.5289 H   0  0  0  0  0  0  0  0  0  0  0  0
    3.4135    1.6278  -20.3199 H   0  0  0  0  0  0  0  0  0  0  0  0
    5.2014    3.9240  -17.0027 H   0  0  0  0  0  0  0  0  0  0  0  0
    6.0200    4.8714  -18.2907 H   0  0  0  0  0  0  0  0  0  0  0  0
    6.0524    3.1456  -19.9221 H   0  0  0  0  0  0  0  0  0  0  0  0
    3.3584    3.3674  -18.4753 H   0  0  0  0  0  0  0  0  0  0  0  0
    8.4959    9.3513  -21.8926 H   0  0  0  0  0  0  0  0  0  0  0  0
    4.7107    1.3403  -17.9317 H   0  0  0  0  0  0  0  0  0  0  0  0
    3.6162    5.5243  -16.7831 H   0  0  0  0  0  0  0  0  0  0  0  0
    3.8820    6.2012  -18.2452 H   0  0  0  0  0  0  0  0  0  0  0  0
    3.3818    4.2344  -20.6484 H   0  0  0  0  0  0  0  0  0  0  0  0
  1  2  2  0
  1  3  1  0
  2  8  1  0
  3  9  2  0
  4  8  2  0
  4  9  1  0
  5 10  2  0
  5 11  1  0
  6 10  1  0
  6 12  2  0
  7 11  2  0
  7 12  1  0
  8 16  1  0
  9 25  1  0
 10 20  1  0
 11 30  1  0
 12 31  1  0
 13 17  1  0
 13 26  1  0
 13 28  2  0
 14 15  1  0
 14 16  1  0
 15 16  1  0
 16 27  1  0
 18 25  1  0
 19 25  1  0
 20 22  1  0
 21 23  1  0
 21 27  1  0
 22 23  1  0
 22 26  1  0
 23 29  1  0
 24 25  1  0
 24 32  1  0
 24 33  1  0
  1 34  1  0
  2 35  1  0
  3 36  1  0
  4 37  1  0
  5 38  1  0
  6 39  1  0
  7 40  1  0
 14 41  1  0
 14 42  1  0
 15 43  1  0
 15 44  1  0
 17 45  1  0
 17 46  1  0
 17 47  1  0
 18 48  1  0
 18 49  1  0
 18 50  1  0
 19 51  1  0
 19 52  1  0
 19 53  1  0
 20 54  1  0
 20 55  1  0
 21 56  1  0
 21 57  1  0
 22 58  1  6
 23 59  1  1
 24 60  1  0
 26 61  1  0
 27 62  1  0
 27 63  1  0
 29 64  1  0
M  CHG  1  27   1
M  END
>  <OMEGA_C>  (101) 
VvIJQeZK7EAxV5PB2Yf0QIRK4EDo4ovBzAYEQVp+AEFY4pzB7TG9QDKE/UDukZfBwVnQQDLWXz/s
1azBjU2VQLmMEL/2OKfBxOfXQLCpxr8Kqq3BexrJQL316EAzAY7BKYjcQOxxBUHABp/B0XymQE8G
Oj9xvKjBvR7pQO1Ih75XNa/BEOqtQPTL2b9qvKnBfVbYQFxhsT8X2JDBgO+RQErL+UDE+n3Bt66u
QPLS1UBkA3XB9FmmQElW2UBHkIbB86/eQH4xpT7sPIjBx53HQN5R/UBRErLBLUelQPyRHUGASKjB
vwWNQKo5+T/HV6XBl3ShQJCBkkAI/I7BviikQOC1LED5LpzBN/aHQHYzdED3hZfBO2/zQFqSH0Ei
rK3BQU3PQDNXEEFIoanBnteuQK3Y3z9BlJPBlSmKQAFGuUBnjovB44T3QB7q+z8YkJTBsvp3QPur
lkB36Z/BqMoIQYWr+b3q3bLB9mKdQEX+O8CsQ6jBYYv8QHqWLkH7HqbB38/nQDyoKUHk2rbBUZka
QWmf5UDSvpHBe6b9QCl30EA2jYTBtSwQQYy5BEEsp6LBqMGbQPuSAUEMPZnBpV7dQJM77j+xJq7B
a3xqQPhULr8dIqTBlubqQEUxG8D2fa/BBW5eQBga+UAPG3vBczadQJyRDUHJ1n3BK3rOQAJ83UAp
gW7BunqgQONyu0BvxWvBgYAAQXkGYz78c4bB3XnNQK+eHj9F8IDBaSbSQFPoI79hHYvBUSW+QNgJ
BkG1s7nBazrlQNTZ6kAiOLPBsgKuQFDe50DiS6/BxNScQA0UJUEB9a/BXDSLQDnmEkGovKXBYC2q
QHoOKkEYNKLB6WqJQOLTJ0ApO6zB2HZaQO5a0D8Oj6LB4nGmQG4ie0CIBYjBzKPAQKPim0BYU5LB
La3BQElSSUBfYJ/BifBWQG2DV0B1zZPBE+8HQfCeFUEfJK/BZL6WQFCNqz8UdI/BO29nQAXHsEC7
Q4bBOXN4QGdwxkAf9pHBB29YQGGAh0DpL6XBC+AHQWr770Ar+ZPBHv/xQFNK4kCBSIzBht8AQUVN
AkGNWZ3BZeC3QLTS/ECnfJfB3BvPQNbDZT99Ia3BeA6WQCRVGL9mIqfBKojYQFWywr/2Na7BzvPF
QO/w6EBKBY7BkIzVQCIeBkE/Ip/B2fGlQEo4Nj9VsqjBBHPoQICQX74Yz6/BFEivQAPA2r+266nB
rwjbQMQltj88U5HB6qmQQOrF90Da4HzBTjavQMWs1EDvkXTBWOekQHkW2EBPQIbBly7kQHc0qD6h
I4nBNUboQDtlIEFbNq7BAFK7QDIh/0DXzbHBRN2LQC4/9D9BB6XB2dugQJBUkUDtto7BBYujQM5y
K0CHDpzBiuGGQFy6cEDhDpfB1EScQPlpHkGRNKfB0KDFQGQhEUHQeanBZLKwQPjv3T/boZPB6u6I
QEdBt0Cs/orB7MX4QA1jBEDxHJXBVmJxQCnFlEAtRJ/BIhwIQRjfJb1R07PBhBegQOBwPcAjXqjB
PsSNQJ0kKEGcObDBxjukQD6eLUHoqp/BQcEYQeqq6kAFsJLBTdb8QFC30kDkD4XB+28MQSVdB0H2
P6PBvf6VQEUwAEHI8JjBrCfbQLGs8j/Nd67BLAptQH+rPb9pzKPBFPbrQKsSGMB9RrDB1HdcQNnz
9UDYVHnBaOGaQJm6DEGP33zBGjvPQHFM3UBHqm7BnZWiQBnLuUCRH2vBfmwDQS7/iT62r4fBxKDT
QIgvED97moHBUqjYQL8AI78OOYzBAObbQPftJ0HtibXB8BzwQBLbLEGBUKjB8KACQdMqF0FiH7DB
b+qvQCsPB0EIPbnBemDYQNJr7ED4ebPB9FaiQEva6UCBnq7BEqOGQF5CJUDr26vBbp5ZQIeBxz+p
+KHBZ4enQJ29eEAd2IfBxDe/QCjDm0AlU5LBygDAQPBKSkCLg5/BNPJWQLLqUUDqGZPBafeDQHos
E0ESN6TBDMuZQNscpT/GUY/Bt1JnQN7zrUA/fYXBjBRzQLAWxEBHO5HBA0BRQDc9hUBBa6TBtuAH
QTAm70CkfpTBtgTzQAVI4UDklIzBvj0AQWm6AUFYzJ3Bqoa3QE4++0AjZZfBnVDNQAVjaD/ojq3B
kUSVQGAmG79PUafB3YDXQFbiwL/Wva7B7MTGQMB+50B/C47BWwnUQE1nBUGHR5/B0pKkQIPaND9f
7qjBCtDmQCyTSr4HZrDBAKquQI7t2r8/P6rBF13aQNbcuj/oGJHBAeWSQCos9kCibXzBBIKxQOLR
0kCAcXTBuGymQLt81kD8IYbBvArkQFaJrj4BLInBt3LkQD8eIEGvRq7BRVu6QIxi/UCNFrLBznuK
QOhj8j8xFqXB+cygQOy2j0DqjI7BidSiQL4HKkAoMpzBbu+GQClvcECpMJfBQluZQCqbHUFbx6fB
sAPDQGI1EEEAnKnBRAKwQAzA2T8a3JPBs72JQCEqtkBI14rBMl73QH5UDEDGJ5TBhat1QMymlUCu
Yp/BJxYHQQAhRLs8nbTBzQ6gQOzcPcCbnKjBI0ueQB0BK0E2SZ/BcmFsQMAgEUG7PabBttkYQf83
6kCecJPBWcj+QHry0UBAa4XBdWwLQRvIBkGZ4aPB03WVQPCZ/kColZjBZOvYQBeT9D84667BwBhs
QGOAQ7831aPByBLrQK2wFsCo6rDBKidhQO2H9EClmXjBI1CdQM3lC0FEcnzBkMXRQBM020B6ym7B
AgmlQGXwt0Dc8WrB7SgDQabhsz4pLIfBGR7RQEXM+z7J2YHBKanbQOrCIL8QxozBCIvXQMaFJ0EZ
lLXBlV3rQKuhLEGfVajBGgsBQThzF0GgNrDBzkGuQGgoBkH5dbnB6kHYQHQs7EBh1bPBNWeiQC/A
5kAA/67BnpmEQNisJECA2avBtHlXQEOaxD/b5aHB5PSlQA0qdECluofB6+a/QFFWmUCK5ZHB71y/
QAnpR0Agv5/B9Q1VQA4XU0BqgpPBeLaUQHY6J0EaDq/BVyuZQO5EmT9794/BDatoQG1drUAHUYXB
ex11QEFAw0C0E5HBPK9VQE4Ph0COuKTBb9QIQeM17EA0F5XBL//zQO454EAcMo3Bis4BQcjQ/0DQ
m57Buv+5QPMy+0BxYZjBpgjOQFxpRj+rvKzB2aWUQIIvLr+jXqbBTqfWQCET078KWq3BXQvIQILJ
50AC247ByobXQEs5BEE3TKDBp+ykQL+EHT+oNqjBqfPmQNhutr6PO6/Bn2ytQNm357+g+KjB+0nZ
QJC3tz/8GJDBmh6TQFe9+ECFsn7B3xCxQMpy1UBSCXbButOmQPMb2EB2/obBeabhQCa/mD7aO4jB
2f+eQMGTHEHwzKjB34fpQCroHUGNr6/B3FKLQDwg6j8nwaTB6DKhQI9hkEDP4I7B6lGjQEb+JkCW
5ZvBhFuHQEDkbkA8QpfBV+K7QAET+kCVKLPBuWrHQDyWDkHL0arBsFyvQIZj1z+3PJPBdDiKQIOH
t0CHnIvBU6L3QAEcAEBGXZTB8i92QLh6k0A+u5/BEloHQdjhTr74UrPBus6dQLg1Q8BKI6fBNDif
QMa43UAJCq/Bx1XfQMEk5EAgQ7bBb64ZQTRe5kBY25PBy9P+QHZK0UDK44XBpFANQQcwBEEssKTB
vSyYQE4IAEHJq5nB0FzaQPr14T9RSK7B4EtqQLY4Tr999aLB7sPpQIsMIcCTRK/BYlJhQJ2l90Bg
JXvB3eidQJEeDUFiBX/BsznRQFjA3UBSNXDBCPqjQNQou0BPVWzBPysCQZhODT65dofB8zDUQJMn
Dz/2X4DB0XDSQOpLH7/RMIvBUVKUQNK0I0H5Y7DBjkiFQNKJEkE5f6XBDdSmQIlfKUGYFaPBXg7d
QHP0JEExH7fBVMDwQLK6KkE076nBqHMDQQfdFEEucLHBOW2GQPFIH0BfsKvB7zRYQNr/vz9vqKHB
pTumQBDxd0Dh0YfBWlvAQIBPmUB2T5LBDVHAQFSDQ0ANY5/BcAlWQGSgUkCcapPBN7utQMM2BUEB
GrrBleqXQOjjmT+KYY/BX2loQDiqr0ACJobBZ4t3QA76w0AaCZLBKjhWQHL8g0BD6KTB

>  <OMEGA_E>  (101) 
rFmGPpgzkD7YH5I+sFtwPg==

>  <OMEGA_NBR>  (101) 
    121031

$$$$
50168420
     RDKit          3D

 63 66  0  0  1  0  0  0  0  0999 V2000
    8.6513    7.4690  -18.3189 C   0  0  0  0  0  0  0  0  0  0  0  0
    8.3460    7.9759  -19.5914 C   0  0  0  0  0  0  0  0  0  0  0  0
    7.6212    7.0968  -17.4415 C   0  0  0  0  0  0  0  0  0  0  0  0
    5.9639    7.7478  -19.1124 C   0  0  0  0  0  0  0  0  0  0  0  0
    6.4106    0.7984  -21.5614 C   0  0  0  0  0  0  0  0  0  0  0  0
    4.6531   -0.6964  -20.7587 C   0  0  0  0  0  0  0  0  0  0  0  0
    6.7155   -1.6190  -21.6809 C   0  0  0  0  0  0  0  0  0  0  0  0
    7.0076    8.0862  -20.0156 C   0  0  0  0  0  0  0  0  0  0  0  0
    6.2718    7.2585  -17.8203 C   0  0  0  0  0  0  0  0  0  0  0  0
    5.1397    0.6101  -20.9743 C   0  0  0  0  0  0  0  0  0  0  0  0
    7.2013   -0.3151  -21.9033 C   0  0  0  0  0  0  0  0  0  0  0  0
    5.4389   -1.8088  -21.1149 C   0  0  0  0  0  0  0  0  0  0  0  0
    6.8420    1.4561  -18.0502 C   0  0  0  0  0  0  0  0  0  0  0  0
    4.5184    7.8258  -15.9522 C   0  0  0  0  0  0  0  0  0  0  0  0
    5.3888    6.6917  -15.3781 C   0  0  0  0  0  0  0  0  0  0  0  0
    6.4294   10.0928  -21.4140 C   0  0  0  0  0  0  0  0  0  0  0  0
    4.9172   10.1138  -21.1881 C   0  0  0  0  0  0  0  0  0  0  0  0
    5.5085    8.0127  -22.0921 C   0  0  0  0  0  0  0  0  0  0  0  0
    6.7519    8.6119  -21.4305 C   0  0  2  0  0  0  0  0  0  0  0  0
    5.1529    6.8020  -16.8953 C   0  0  0  0  0  0  0  0  0  0  0  0
    7.1474    0.3547  -17.0391 C   0  0  0  0  0  0  0  0  0  0  0  0
    4.3237    1.8047  -20.5228 C   0  0  0  0  0  0  0  0  0  0  0  0
    4.9956    4.5490  -17.8488 C   0  0  0  0  0  0  0  0  0  0  0  0
    5.0909    2.6214  -19.4547 C   0  0  1  0  0  0  0  0  0  0  0  0
    4.2108    3.7510  -18.8971 C   0  0  2  0  0  0  0  0  0  0  0  0
    5.5131    1.7280  -18.3596 N   0  0  0  0  0  0  0  0  0  0  0  0
    4.2754    5.7915  -17.5038 N   0  0  0  0  0  0  0  0  0  0  0  0
    7.7652    1.9926  -18.6539 O   0  0  0  0  0  0  0  0  0  0  0  0
    4.3946    8.8629  -21.7168 O   0  0  0  0  0  0  0  0  0  0  0  0
    3.8489    4.6134  -19.9761 O   0  0  0  0  0  0  0  0  0  0  0  0
    8.4311   -0.1327  -22.4349 F   0  0  0  0  0  0  0  0  0  0  0  0
    4.9743   -3.0595  -20.8971 F   0  0  0  0  0  0  0  0  0  0  0  0
    9.6821    7.3649  -18.0139 H   0  0  0  0  0  0  0  0  0  0  0  0
    9.1440    8.2840  -20.2507 H   0  0  0  0  0  0  0  0  0  0  0  0
    7.8623    6.6851  -16.4726 H   0  0  0  0  0  0  0  0  0  0  0  0
    4.9331    7.8644  -19.4127 H   0  0  0  0  0  0  0  0  0  0  0  0
    6.7761    1.7974  -21.7480 H   0  0  0  0  0  0  0  0  0  0  0  0
    3.6772   -0.8433  -20.3201 H   0  0  0  0  0  0  0  0  0  0  0  0
    7.3216   -2.4731  -21.9444 H   0  0  0  0  0  0  0  0  0  0  0  0
    3.4308    7.8210  -15.7874 H   0  0  0  0  0  0  0  0  0  0  0  0
    4.8868    8.8622  -15.9381 H   0  0  0  0  0  0  0  0  0  0  0  0
    6.3796    6.9167  -14.9565 H   0  0  0  0  0  0  0  0  0  0  0  0
    4.9236    5.8756  -14.8058 H   0  0  0  0  0  0  0  0  0  0  0  0
    6.6925   10.5653  -22.3718 H   0  0  0  0  0  0  0  0  0  0  0  0
    6.9583   10.6033  -20.5957 H   0  0  0  0  0  0  0  0  0  0  0  0
    4.6962   10.1922  -20.1134 H   0  0  0  0  0  0  0  0  0  0  0  0
    4.4672   10.9661  -21.7182 H   0  0  0  0  0  0  0  0  0  0  0  0
    5.6272    8.0020  -23.1856 H   0  0  0  0  0  0  0  0  0  0  0  0
    5.3425    6.9869  -21.7313 H   0  0  0  0  0  0  0  0  0  0  0  0
    7.6341    8.4268  -22.0609 H   0  0  0  0  0  0  0  0  0  0  0  0
    8.2338    0.1882  -16.9944 H   0  0  0  0  0  0  0  0  0  0  0  0
    6.7817    0.6565  -16.0466 H   0  0  0  0  0  0  0  0  0  0  0  0
    6.6466   -0.5749  -17.3474 H   0  0  0  0  0  0  0  0  0  0  0  0
    4.1171    2.4491  -21.3900 H   0  0  0  0  0  0  0  0  0  0  0  0
    3.3743    1.4517  -20.0938 H   0  0  0  0  0  0  0  0  0  0  0  0
    5.1169    3.9368  -16.9431 H   0  0  0  0  0  0  0  0  0  0  0  0
    5.9858    4.8044  -18.2541 H   0  0  0  0  0  0  0  0  0  0  0  0
    5.9786    3.0674  -19.9270 H   0  0  0  0  0  0  0  0  0  0  0  0
    3.3161    3.3160  -18.4279 H   0  0  0  0  0  0  0  0  0  0  0  0
    4.8025    1.2922  -17.8071 H   0  0  0  0  0  0  0  0  0  0  0  0
    3.5455    5.5698  -16.8573 H   0  0  0  0  0  0  0  0  0  0  0  0
    3.8774    6.1734  -18.3379 H   0  0  0  0  0  0  0  0  0  0  0  0
    3.3625    4.1206  -20.6265 H   0  0  0  0  0  0  0  0  0  0  0  0
  1  2  2  0
  1  3  1  0
  2  8  1  0
  3  9  2  0
  4  8  2  0
  4  9  1  0
  5 10  2  0
  5 11  1  0
  6 10  1  0
  6 12  2  0
  7 11  2  0
  7 12  1  0
  8 19  1  0
  9 20  1  0
 10 22  1  0
 11 31  1  0
 12 32  1  0
 13 21  1  0
 13 26  1  0
 13 28  2  0
 14 15  1  0
 14 20  1  0
 15 20  1  0
 16 17  1  0
 16 19  1  0
 17 29  1  0
 18 19  1  0
 18 29  1  0
 20 27  1  0
 22 24  1  0
 23 25  1  0
 23 27  1  0
 24 25  1  0
 24 26  1  0
 25 30  1  0
  1 33  1  0
  2 34  1  0
  3 35  1  0
  4 36  1  0
  5 37  1  0
  6 38  1  0
  7 39  1  0
 14 40  1  0
 14 41  1  0
 15 42  1  0
 15 43  1  0
 16 44  1  0
 16 45  1  0
 17 46  1  0
 17 47  1  0
 18 48  1  0
 18 49  1  0
 19 50  1  6
 21 51  1  0
 21 52  1  0
 21 53  1  0
 22 54  1  0
 22 55  1  0
 23 56  1  0
 23 57  1  0
 24 58  1  6
 25 59  1  1
 26 60  1  0
 27 61  1  0
 27 62  1  0
 30 63  1  0
M  CHG  1  27   1
M  END
>  <OMEGA_C>  (102) 
vGsKQe4B70AHjZLBS4kFQdQ6/0Abu5zB3+DzQFYZ40A2iIvBgti+QFXu90BL5pjB9SPNQARmTD+4
fazBK+aUQNhGMr/MEabBO+XWQEs6z7+Tcq3BjD7gQP1gAUEBIKDBurLIQM9F6EASkI7BXHikQEAu
HD91y6fBtXDmQPhXob4HOq/BzQuuQCCG579U66jB1vHaQPxhuj+8ZpDBoJaQQB5t+kBXPH/BNHGs
QEYi1kC3DHbBf73NQAt8IUHMT6vBGVqdQPLRIUE8ganBREWwQA80AEGsvLDBjA/YQDHKCUG8cavB
4uSkQLSp2UB+KYfBrLfkQFyWtT4fUIjByluKQGf/5j+mLqTB1dufQL+RkUBqyo7BUeiiQDvFJ0A1
o5vBAb+GQNMQcEBBLZfB7mqwQBUv3T9h4JLBbNCIQDxUuUDWB4zBfXz4QKMO/z9GO5XBcaCMQHHO
DUHou63BGVR2QC+hk0D7zp/Bx+UGQaDqB76terPBVy2fQH3PQ8BRLafB5ukaQZSt60BlHJDBuk0S
QXWLBEFvAaLB/Zf7QHLs1UDtx4PBqdudQNuo+0AsTZvB6NXYQB0S5j/4+63Br1ZrQPngV7+Dj6LB
2UrqQK5HHsAPjq/Bd5JbQMpF+kBFmXzBvmCcQInLDUF8An/BkCXMQNdV3UDkTW/BDo6dQI8EvECt
5GzBESnWQI0LKUF4+bLBo6reQEOnKUH/w6TB/kaWQDMTI0FC6KDBT/OOQBd1L0HZvq3B5xG0QEoI
AEE0fLnBwfWqQNSU30Cp2a3B0kr0QCbUBkHNfLDBzr0DQf3DQD599IfBWgPZQPIPKD9rX4DB9bDU
QKkvE79hx4rBXr+DQEm9HEC8HqvBavRXQKTQuT8ewKDBh72jQCf0e0Bmi4fBs4u/QPi9mUBlCJLB
qlC/QMFPREBuap/BNjpUQKI4VEBpbJPB8a2ZQNJmpT8FdY7B0ehiQCk8skDH24bB6iZ4QCCMxUAd
tJLB+zNXQNXbg0AaA6XBjDYIQTxd7kAi65TBxYgAQdie/ECe557BtH3zQEKH40Dmu4zBXgK4QOWh
9kB4apjBlenPQLwgQD8AWazBaj6UQL+gI79bX6bB2GvWQKZA178xiazBsFXUQMTw/0AxwqDBfCbH
QAgz6EB/go7ByfqlQHuEIz/mNqjBjiXoQAoN0b4rcq7B22OsQFr85b+rj6jBVsvYQMcduT/PVpDB
fHOSQFfE+kCbi37Bhh6wQMD810CGLnXBVgHgQEUoCUESkLTB9GfwQEMgIEHL77LBaHCtQEzQHEFv
sarBEmDAQG5PBkGYdqvBN06mQDUR2UAPmIbBtpHfQLz7tD4+/4fBNvKMQJpV8T+CKqXB23mhQMvU
kUA6AY/BYz2kQEffKkAkM5zB5TCIQLNhc0AZrpfBgDGvQHz03z9UapPB2tSJQMTtt0AoK4vB0NT3
QGar9z+O5pTBf3fRQNP5KkGmH6zB3ER6QPQ3lkCbJ6DBIEYIQTIOmb7POLLBMlqbQG42QcBYv6bB
jDkZQdrB60CTjJPBQq4LQTCFAkGRKaXBFCD/QHe610DlJoXBiAaWQHGg+kAEoZnBL2jdQG3h3D+V
5q3B9TRoQCW4Or+RR6PBZw3pQOlyJMBWHq7BV9xfQMkF+kDsH3vBxFydQHYYDkExYn/BcjXQQJSS
4EAHXG/B2saiQHBnvkDCGWvBeRjQQClxB0GbXbzBQVH6QM8N+0Dv97PBDf0HQezeH0ERDK/BJ9/y
QPtcKEFesLrB5nqVQOthH0HDArHBtYyeQA1ZH0EK0qLBCmGnQOiK9UDcuK3BPP0AQb1TEz5MNIfB
gc7SQDFiMD9cP4DBVczOQOqLD79khYrBQKuJQNMCIkDNPazBLQRaQJ6Nyz9hUaLBqyenQBtceECV
NojBeFXAQPEnnEBuXJLB2afBQJDfRkBdiJ/B3YhWQMuCV0B9EpTBPzGXQF9/qD/dao/BWSxqQM+w
rkA7iIXB+7JzQC2mxECnU5HB2RdbQD4fh0AteqXB0cAIQaMu6kDbApXBNzkCQZUBAkGHpp3BhYnz
QFG53EAsVY3Bn1S7QIZtAUEe75bBfpvOQADiOD8ee6zBTIeTQI6BLb/XSqbBJDLVQFbK2r/95KzB
uB/ZQK+iCEFWkZ7Bxk/IQPDT6ECGZI7BQgWlQCZgGj+aJKjBXb3mQD233b4Ux67BMYmrQE5l6r8n
s6jBCmDZQJNZtz88WJDBYpGSQD0c+UDgU37B6YuwQNbP1UCLm3XBglmmQCRXDkFh6a3BEdy/QNfz
AEHq9LXBKS7qQFmAHUFE6a/BdnvJQOlpGEGGJKfB18SmQOqs2EBkxobBJyThQFzCrz6wBYjB/wSM
QPj46z898aTBC8ehQHmikUD9LI/BK86jQDZ4KECwFZzBQuOHQGsUcUCviZfBtH2vQGew2z/wUZPB
NXOKQFZLuECvpIvBi/n3QAh/+T8G5JTBd77pQFIDC0FB5bbBYnN3QA1tlECQDaDBOHcHQUXgor5T
rrLBnsqaQJGdQ8A326bBmk4ZQbGz4EBfSZTBEL8NQZDkBkGFm6PBIZX9QBM3yUBeqIbByByaQOr3
BUGCqZfBvOjbQLmT2T+kCa7BLV1nQMz7Rb9YBqPBIbDnQFQKJsC9qq7BIRZgQHPU90D59HrBbzWd
QJ5UDUHRhn7BtI7QQK0x3kAdm2/BVWSjQORcu0BECWzB4iaTQIejGkEt/LHBOEORQKMxBEGUBanB
wT/DQMHd4ECTCrPBSZ+vQL/bAEGsw73BicPgQKr6K0GhU7TBJhgFQQjQH0HVb6zBYPy9QDFBJ0Gy
YqPBDN0BQWr5Jz6bO4fBDhTUQIA4Kj8uRIDBLzXRQPCrFb+YkIrBRAiIQA9hH0CK/avB4sNYQLo7
xT9P8KHBXqunQBHjeUDsNYjBfYbAQO9Lm0CrtpLBzvXAQNyIREDJjJ/B5vVWQFs9VUC+rZPBXtiX
QIfSoj+BRI/BIepoQJelr0DLP4bB1uZ3QClUxUCq/JHBG3VXQBHchEBxNqXBBEPVQDAJB0FUNaDB
9HwAQQkPBkH2b53B/D62QPr//UD1DJnBBMXuQD7V5EDQQ43Bm+nMQNnBOD9AjazBupuSQE6ZJ79/
maXBoOTRQBMC278iSa3BXbgGQasT+EDRuJPBTGrDQGMy6kDsa4/BGXSkQCquHT8OnafB4LXjQIgD
4r5hUa/B0iepQHl+6L8NhqjBogfaQGrTqz/EKpDBVfyQQMFR+UBgdn7BUAKwQCI01kB50HbBjb0Z
QZXsEkGOxobBUe0dQYjcJUEDOY7BoectQVHPBkGpsJXBNwkcQeVb/0D/Qo7BSrGjQBjR2UAxVYfB
fizgQA1/lT5EcofB7ZqMQAAn7j/2QqTBmFGiQBYLkkAM0o7B1p+lQJQDKUC/nJvBHvyJQPSzckCo
Z5fBXqCwQJPV3z+yoJLBOvaIQHy4t0Bln4vBhMb4QA422D92mZXBDPQrQWTrHUEwpZbBIs9/QNh2
lUA0DaDBFEEFQeSBrb77BrTBD4iXQOEWQsAJ1abBepXLQD7kDUHcwqfBSGsMQazjDEHzq6LBWZ6U
QG1nAEGc6prBKqf4QNqV0UAWh4bBjl/aQHTq2D8WNa7B00xnQNFpPL+O0KHBAXfjQJ+eJsDlYK/B
G8NdQJeP90AQMnrBK0ybQK98DUGlln7BdX/QQDS43kDyi3HB2BSkQGxOu0BeJ23BKpwlQd9QEkEB
SYDBRo8JQbW3E0EdVoPBNc4OQYWqK0FRqpHBWMMlQW3uMkHt0YnBXJA9QUCOAkE+SJLBLR0sQd9t
/kDrk53BwN8gQRzK4kDKuYnBVe0AQa1r3bzORofBaXTXQKbFOD8LSn/BkKHLQMZ9E78VIYnBTRiI
QIR7IEDkSavBdWRaQIdDyT+9BqHBlYynQCqdekCx1IfBXWLBQG2InECBBZLBkvfCQBpTQ0AMMZ/B
ghpZQAEyWEA25ZPBoMiYQN4RtT95Ao7Bq8hnQKjcrkAMBobBR5NyQGjKwkBQBpLBjnphQK8lhkA0
aaXB

>  <OMEGA_E>  (102) 
4FLnPniR6T70v+E+4A8gPw==

>  <OMEGA_NBR>  (102) 
    125400

$$$$
50168387
     RDKit          3D

 59 61  0  0  1  0  0  0  0  0999 V2000
    8.5448    7.4965  -18.5159 C   0  0  0  0  0  0  0  0  0  0  0  0
    8.1074    8.0438  -19.7349 C   0  0  0  0  0  0  0  0  0  0  0  0
    7.6045    7.0889  -17.5518 C   0  0  0  0  0  0  0  0  0  0  0  0
    5.7874    7.7738  -19.0316 C   0  0  0  0  0  0  0  0  0  0  0  0
    6.4368    0.7753  -21.5625 C   0  0  0  0  0  0  0  0  0  0  0  0
    4.6158   -0.6641  -20.8019 C   0  0  0  0  0  0  0  0  0  0  0  0
    6.6804   -1.6511  -21.6510 C   0  0  0  0  0  0  0  0  0  0  0  0
    6.7279    8.1600  -19.9980 C   0  0  0  0  0  0  0  0  0  0  0  0
    6.2231    7.2509  -17.8012 C   0  0  0  0  0  0  0  0  0  0  0  0
    5.1433    0.6279  -21.0133 C   0  0  0  0  0  0  0  0  0  0  0  0
    7.2072   -0.3629  -21.8707 C   0  0  0  0  0  0  0  0  0  0  0  0
    5.3822   -1.8011  -21.1240 C   0  0  0  0  0  0  0  0  0  0  0  0
    5.6458    7.8782  -22.1821 C   0  0  0  0  0  0  0  0  0  0  0  0
    6.2722    8.7032  -21.2741 C   0  0  0  0  0  0  0  0  0  0  0  0
    6.7907    1.4447  -18.0432 C   0  0  0  0  0  0  0  0  0  0  0  0
    4.5724    7.7887  -15.8684 C   0  0  0  0  0  0  0  0  0  0  0  0
    5.4943    6.6773  -15.3242 C   0  0  0  0  0  0  0  0  0  0  0  0
    5.1824    6.7642  -16.8241 C   0  0  0  0  0  0  0  0  0  0  0  0
    7.0443    0.3410  -17.0209 C   0  0  0  0  0  0  0  0  0  0  0  0
    4.3487    1.8509  -20.5895 C   0  0  0  0  0  0  0  0  0  0  0  0
    5.0192    4.5360  -17.8458 C   0  0  0  0  0  0  0  0  0  0  0  0
    5.1045    2.6450  -19.4954 C   0  0  1  0  0  0  0  0  0  0  0  0
    4.2409    3.7913  -18.9412 C   0  0  2  0  0  0  0  0  0  0  0  0
    6.5502   10.1491  -21.6126 C   0  0  0  0  0  0  0  0  0  0  0  0
    5.4774    1.7342  -18.3974 N   0  0  0  0  0  0  0  0  0  0  0  0
    4.2911    5.7469  -17.4109 N   0  0  0  0  0  0  0  0  0  0  0  0
    7.7410    1.9595  -18.6234 O   0  0  0  0  0  0  0  0  0  0  0  0
    3.9404    4.6904  -20.0088 O   0  0  0  0  0  0  0  0  0  0  0  0
    8.4575   -0.2194  -22.3653 F   0  0  0  0  0  0  0  0  0  0  0  0
    4.8774   -3.0374  -20.9118 F   0  0  0  0  0  0  0  0  0  0  0  0
    7.0295   10.8278  -20.5339 F   0  0  0  0  0  0  0  0  0  0  0  0
    7.4722   10.1929  -22.6076 F   0  0  0  0  0  0  0  0  0  0  0  0
    5.3927   10.7348  -22.0156 F   0  0  0  0  0  0  0  0  0  0  0  0
    9.6014    7.3892  -18.3197 H   0  0  0  0  0  0  0  0  0  0  0  0
    8.8276    8.3746  -20.4685 H   0  0  0  0  0  0  0  0  0  0  0  0
    7.9383    6.6525  -16.6219 H   0  0  0  0  0  0  0  0  0  0  0  0
    4.7313    7.8778  -19.2320 H   0  0  0  0  0  0  0  0  0  0  0  0
    6.8354    1.7621  -21.7462 H   0  0  0  0  0  0  0  0  0  0  0  0
    3.6232   -0.7810  -20.3926 H   0  0  0  0  0  0  0  0  0  0  0  0
    7.2717   -2.5236  -21.8866 H   0  0  0  0  0  0  0  0  0  0  0  0
    5.3486    8.2634  -23.1463 H   0  0  0  0  0  0  0  0  0  0  0  0
    5.4520    6.8461  -21.9298 H   0  0  0  0  0  0  0  0  0  0  0  0
    3.4944    7.7648  -15.6512 H   0  0  0  0  0  0  0  0  0  0  0  0
    4.9199    8.8323  -15.8857 H   0  0  0  0  0  0  0  0  0  0  0  0
    6.4999    6.9269  -14.9548 H   0  0  0  0  0  0  0  0  0  0  0  0
    5.0744    5.8593  -14.7203 H   0  0  0  0  0  0  0  0  0  0  0  0
    8.1252    0.1514  -16.9458 H   0  0  0  0  0  0  0  0  0  0  0  0
    6.6580    0.6543  -16.0398 H   0  0  0  0  0  0  0  0  0  0  0  0
    6.5322   -0.5788  -17.3399 H   0  0  0  0  0  0  0  0  0  0  0  0
    4.1924    2.5002  -21.4635 H   0  0  0  0  0  0  0  0  0  0  0  0
    3.3745    1.5285  -20.1933 H   0  0  0  0  0  0  0  0  0  0  0  0
    5.1544    3.8677  -16.9826 H   0  0  0  0  0  0  0  0  0  0  0  0
    6.0033    4.8297  -18.2398 H   0  0  0  0  0  0  0  0  0  0  0  0
    6.0142    3.0740  -19.9409 H   0  0  0  0  0  0  0  0  0  0  0  0
    3.3184    3.3744  -18.5109 H   0  0  0  0  0  0  0  0  0  0  0  0
    4.7427    1.2991  -17.8769 H   0  0  0  0  0  0  0  0  0  0  0  0
    3.6114    5.4833  -16.7263 H   0  0  0  0  0  0  0  0  0  0  0  0
    3.8290    6.1447  -18.2035 H   0  0  0  0  0  0  0  0  0  0  0  0
    3.4592    4.2293  -20.6857 H   0  0  0  0  0  0  0  0  0  0  0  0
  1  2  2  0
  1  3  1  0
  2  8  1  0
  3  9  2  0
  4  8  2  0
  4  9  1  0
  5 10  2  0
  5 11  1  0
  6 10  1  0
  6 12  2  0
  7 11  2  0
  7 12  1  0
  8 14  1  0
  9 18  1  0
 10 20  1  0
 11 29  1  0
 12 30  1  0
 13 14  2  0
 14 24  1  0
 15 19  1  0
 15 25  1  0
 15 27  2  0
 16 17  1  0
 16 18  1  0
 17 18  1  0
 18 26  1  0
 20 22  1  0
 21 23  1  0
 21 26  1  0
 22 23  1  0
 22 25  1  0
 23 28  1  0
 24 31  1  0
 24 32  1  0
 24 33  1  0
  1 34  1  0
  2 35  1  0
  3 36  1  0
  4 37  1  0
  5 38  1  0
  6 39  1  0
  7 40  1  0
 13 41  1  0
 13 42  1  0
 16 43  1  0
 16 44  1  0
 17 45  1  0
 17 46  1  0
 19 47  1  0
 19 48  1  0
 19 49  1  0
 20 50  1  0
 20 51  1  0
 21 52  1  0
 21 53  1  0
 22 54  1  6
 23 55  1  1
 25 56  1  0
 26 57  1  0
 26 58  1  0
 28 59  1  0
M  CHG  1  26   1
M  END
>  <OMEGA_C>  (103) 
gbcIQYjj70CKIJTB3bcBQUezAEH64J3BI1jzQAPY4kAGaozBVjK5QPvC+ECmQJjBavrNQAt5Rj/5
f6zBt7STQDUDKr85aqbBscXVQN9V0788Na3BLkvXQGmPAkHh+5/B2yPHQCUH6EDCaI7BIZakQBrB
ID83G6jBBaHmQKTLub4e967B3zqsQLuK5r/t/ajBq6q0QBca/EDodLHBz7XIQF1AC0FQMarBCk3Z
QOjsuD9mWJDBb1GSQDk9+UAM5X3BXdGvQGqs1UDPL3XBZdalQIF02EC6l4bBy2rhQACTrj7aKojB
kSiLQBTp7D9Ft6TBTp2gQOsmkUA2xI7BL1ijQMhHKUB+9pvBV7WHQHqlckCuh5fB2JrRQJJiIkGP
5qzBr0avQE773T/3LZPBZ1CJQGnmt0CBSYvBC7b3QBXQ+j+g/JTBki98QPgXlkD4EaDB8FEHQRGr
YL467LLBxBOcQDVlQsBiS6fBnvHgQJ0+LUFlRaTBbxzvQAMWI0Fy3LTBEpGsQMHBK0HpH7DBVJ8Z
QQJ07EDUjpLB5z0NQUj+BUF9v6PBrQb+QHXh1EC++YTBl2aXQC4X/EAz25nBp7vaQNGL4T9J+K3B
IONnQD7yR7/5I6PBebHoQFOCIcCtF6/B7yerQOE2BEGVK7nBZ3auQGcT20A4cK/Bz6NfQNV4+EA1
a3rBnW+dQPtQDUHpK37Blf/PQNao3UALR2/B32GiQLZ/u0BXhmvB5wACQYUHGz79kIfBoQ7VQHF9
Jz90UYDBZwfRQNErFL8suIrBDSiGQGYDIEBFtavBf/dXQDmnwz/Ii6HBr/CkQDyId0Bp3IfBUBvA
QCONmkAN65HBAXTAQFC8RED6hp/B+2BUQH71V0BkFpTBT8SXQLZIpj/6A4/BIiFnQIx3r0COz4XB
2A11QJKhxEC2oJHB0GJdQLRWh0BqfKXBLgUJQdaL7UB4FpTBOMACQTtkAUHUfp3BSkfzQAx14ED6
nIzB3fC6QBPg+kBZX5jBk5zNQO+7Rz/Gt6zBrWKVQDQxMb9096XBYVrXQK730b83J63BNanZQGWI
BUHEsJ/B1qHHQDpu50Deu47BoeikQHPZGz8H/6fB6ePmQCKur74iOK/Bg4GuQPVC6L9xlqjB0X7r
QJ7pHEGzb6/Bgb3MQDvCEkGWQqnBGdfaQJi/tD+V/ZDBmmqRQFMH+kBdRX/BvdKuQCoI10DJ6HXB
fImlQEmS2EAHAIfBDgjkQNZDxD6FSIjBN+2KQPyc6D+RkKTBrp2gQPYAkUAW847BnRujQPpLKEDe
7JvB4bqGQFBSb0DQO5fBmdudQDqoFEEU0azBSX2wQHxM3T94OZPBGy2JQDGvt0DUjovBPZ34QMGU
AECAPpXBRflyQFBqk0A0rZ/BORkHQaPONL6WirPBX5GfQHHQQ8A5oKbBX6qCQAi0GEFEmKTB9iWY
QDsiJUGIw7PBBxyTQKIQAkE0wrHBAcIZQRtL50BtnZLBnMoOQcF7BkFCJaPBygj9QJUa0UBTRIXB
CEyZQB2H/UDpO5rBaVvZQDkG4z9Eaa7Be2lsQBK5U788ZqLBo8HqQOQWIMC/Ea/BFx3iQKTEJUGb
ebbBnmoGQU/3G0FbNa3BjqVdQJ9F+UDuCXzBNWWcQJ65DUFj4n/B8crOQL5130Bj3m/BgzihQCJI
vUDuBWzBzmEDQRHRoj7584bBgCjUQL5PMD+G0YDBwsrXQGBbGb+4y4rB4iWFQCZsHUByj6vBfkJY
QC83vT8MR6HBqX6mQPg/eUAs7YfBBl+/QD6KmkAugZLBx3e/QG3BRUBfnZ/BM7VVQK4gUkAgSpPB
67eZQPkOqT84po7BDC5nQO5cr0DhB4bBfV10QB0IxEBp6pHBafNSQJqag0BdyaTBb/sIQY6x7EBu
L5TBh8YCQVDkAEHmoJ3B9CTzQOsH4EB7qozBSgC7QFl//EAqLJjBEobOQD7sUT/GsazBdgSWQGAk
K7+nU6bBj4TYQBKezL/GWq3Bf87ZQDxhBUG4t5/BAo7HQK0R6EAVpo7BkpKlQNkCIz9zI6jBYwzo
QOvcl75KOq/BomuvQKhY5L9y9ajBzXHqQEadGkGlUrDBt2PMQNIgEkErXKnBNH/aQMY0uT+DgJDB
alaRQPOh+UAa1n7BiOOuQCBV1kBk3HXBX3GlQD3R2EBw9IbBDV/jQHXBpD6+kYjBo2CLQDgH6z9x
n6TB82+gQMYUkUDQ0Y7BszajQCCJKEBr1JvBQ6aGQL8Kb0AIFpfBfuycQOjtFkHySavBYDywQIfv
2z+jMJPBjyOJQH4duEAunYvBd3L4QIR5/T8zMpXBRBtyQBc4k0BYgJ/BptIHQYG/870hWrPBx42g
QFwdQsBFIqfBtj+HQO04BEGfhKzBE/yMQIwOIkFn06LBIUyWQO/1IkHoL7TBD7MZQf425kBAt5LB
sswOQYGiBUHbXKPBtdX8QMgr0EC6YYXBsGSZQEO0AEHtxJnBiUTaQAid6D93PK7BwjBtQKrlT7/5
6qLBBR7sQKAYHcDZSa/B0z/gQOlqJEE297bBnwcGQXtsF0EKG6/B0IddQB2r+EANkHvBdzycQHmM
DUFvI3/BjuDOQK6X3kCJyW/B/2ehQNkpvEAnNmzBSQMDQbfiCj79KYjB547XQLVjHD/em4DBqevS
QMLGF783NovBxMyFQCF0H0BLjavBGPtYQB6Rvj8rcqHB++KlQJoMekCgt4fBv2a/QL0ymkBuVJLB
O7m/QOBjRkAvZZ/BE+pVQIlaUUBpHpPBqDSZQI64oT9F/o7BNftlQHkrsEA2MYbB26p1QHh1xEAP
EpLBwDRSQLZPg0DImqTBsADUQCXDBkF4dKDBNv3/QN41BkGV8p3Basq1QIfM/UCFCpnBhozvQO0B
6UAMGo3BHN7MQOgePD/ksqzBbr2SQDsiKL+v2aXBpFvSQMki2b8NhK3BU9sGQYkd+0AyCZTBCtPD
QI2u60B2R4/BbFWkQAFjHj92z6fBaPHjQAgs2L7efK/B5KepQOAD6L8bwKjB/qglQeff30CDuInB
JuAcQWQbAEGl4o/BLgHZQK7Ppz8iE5DBXD+RQFK890Akt33BOsCwQNKg1EDlnnbBaHSkQKaa2UDs
NofBwJ3eQN0TUz79xofB1lyMQJLH7T/GWaTBUtSiQMfckUB41o7BUkelQNfiJ0ATlpvBMgOKQC75
cUCFU5fBtTsnQTFCFkHjxI/BFLevQOhP2z8frpLB3riJQK3Bt0Ddr4vBii34QC/z2T+xJZXBsXx/
QNUGlUCY+J/BwnsFQfSHnr7fELTBfKSYQDYvQsDN6abBUTwkQXD8IEFgGJnBBjUeQQXMIUGNtYfB
qqA8Qc/EFEEc/Y3BiXbJQMYvDUHPB6jBSJcLQbBdDEGzkKPB6wOUQD+X/0Dn0JrBLkT6QJG82EAz
94XBlSzaQDUM2z+FTK7BO2FnQD4RP7/1H6LBqRTkQGNhJcBOqK/BlaozQRAb5kD/54TByYEeQS5q
wEDjuYnBh1NeQFYw9UAJgnnBdQ6bQNTDDEHHRn3BdhfRQAdI3UAPL3HBxTKlQLbwuEBRam3BdzAA
Qca00719hYfBePHUQM6hFD9yun/B/Y/KQHPbJ78c9onBW/OHQOwNIUCWT6vBKtFZQFAeyD+gLaHB
gS+oQLC3ekCuz4fBNdfBQCsUnEAtIJLBHeLCQOvIQUCZE5/B/VVZQBvmV0CSuJPBbZSXQFyNrj/z
O47BTldoQDn6rkAdMobBojt1QHIjw0DZI5LBV5VgQPi2hUCpR6XBVDTaQJzFB0Hu1Z/BcpgCQV9s
BUH2cpzBk524QMJcAEEJNJnByuvsQDx530C/mY3Bma7LQLwqPj8ctKzBdBeTQKCxKL+ZNKXBD9nR
QJju178lYq3B5QYHQYCe9EDlzJLB3r/CQCGu6UBZ0I/BUvujQFpKHj+QbafB6bHiQLDN0b6Lnq/B
iuGpQP26579xQKjBogguQQjLAEEmzpHB6ucaQePv+kBakozBlmLbQOgBrD+QYJDBIQ2PQBAq+0Am
x3/BAditQABL2EDxo3fBB9yhQE/n2kBtzIfBT7fiQJtHkz7LwYfBhAKMQJfQ7D/I6qPBGBahQJTy
kUB3jY7Bv4SlQG7nKEBiaZvBSpGJQK8CckCYNJfB8hwZQZ0AAEF2MoDBt6yxQDSy4D/GdZLBdI6H
QPkxuEDG2ovBH2T5QNW32D+rDZbB0XJ/QEwQlUDe4p/BR2sEQUNwlL48oLTBQE+ZQNovQsDfRabB
8ZgTQSDl2kA2WXbBEcYrQWGJBkFYgHfB99oJQZv1DkGA0nvBZxbTQPgsD0Heb6fBfXwPQTIGDEGG
KaHBLKqXQNt5A0H2SpvBSyH0QHHqxkBuy4fBIWTYQHFg3D9jgK7BUl9pQGHSQL8HK6HB0pLjQOiU
JMB+mq/BRSA8QfU8BUGFU43BTu0uQcXn/UBvYprBHcVZQES0+UCBm3vBm3uZQK9iDkFkHYDBj0nO
QE3u4EBHWnLBg7ChQDPdvUAAu23BnDICQdj0Ab0h5IfB3xXbQKBlNj/6u3/B+fDNQFNHFL8STInB
9YuGQAnIH0Ch56rBuBhaQKgzxj8Kf6DBavukQMyZe0ASZ4fB5L/AQJG/m0Deg5HBymHCQH/XQ0Bi
KJ/BpBVYQPwAV0AyzpPBO3+aQGhVtz9nlo3B0BxkQKZCsEBwRYbBx8NwQOU2wkACcJLBLRRiQDee
hUBHTqXB

>  <OMEGA_E>  (103) 
lPfIPhgKyT7wP8o+9A0WPwydGD8=

>  <OMEGA_NBR>  (103) 
    130513

$$$$
50212883
     RDKit          3D

 75 77  0  0  1  0  0  0  0  0999 V2000
    8.6096    7.6594  -18.4499 C   0  0  0  0  0  0  0  0  0  0  0  0
    7.6824    7.0920  -17.5589 C   0  0  0  0  0  0  0  0  0  0  0  0
    8.1655    8.3640  -19.5821 C   0  0  0  0  0  0  0  0  0  0  0  0
    5.8633    7.8709  -18.9724 C   0  0  0  0  0  0  0  0  0  0  0  0
    6.3192    0.7939  -21.5442 C   0  0  0  0  0  0  0  0  0  0  0  0
    4.5585   -0.6720  -20.6916 C   0  0  0  0  0  0  0  0  0  0  0  0
    6.6373   -1.6203  -21.5429 C   0  0  0  0  0  0  0  0  0  0  0  0
    6.2900    7.2049  -17.8073 C   0  0  0  0  0  0  0  0  0  0  0  0
    6.7787    8.5026  -19.8392 C   0  0  0  0  0  0  0  0  0  0  0  0
    5.0415    0.6193  -20.9708 C   0  0  0  0  0  0  0  0  0  0  0  0
    7.1224   -0.3250  -21.8151 C   0  0  0  0  0  0  0  0  0  0  0  0
    5.3523   -1.7917  -20.9873 C   0  0  0  0  0  0  0  0  0  0  0  0
    6.7883    1.4977  -18.0056 C   0  0  0  0  0  0  0  0  0  0  0  0
    4.8739    8.7338  -15.5051 C   0  0  0  0  0  0  0  0  0  0  0  0
    4.2086    7.7304  -16.4358 C   0  0  0  0  0  0  0  0  0  0  0  0
    5.8065    5.9346  -15.5935 C   0  0  0  0  0  0  0  0  0  0  0  0
    5.4245    7.9793  -14.2823 C   0  0  2  0  0  0  0  0  0  0  0  0
    5.2154    6.6280  -16.8569 C   0  0  2  0  0  0  0  0  0  0  0  0
    7.0837    0.5300  -16.8625 C   0  0  0  0  0  0  0  0  0  0  0  0
    6.1231    8.9585  -13.3513 C   0  0  0  0  0  0  0  0  0  0  0  0
    5.8673    8.1606  -22.1394 C   0  0  0  0  0  0  0  0  0  0  0  0
    7.2942   10.1931  -21.7030 C   0  0  0  0  0  0  0  0  0  0  0  0
    4.9900   10.0770  -20.7383 C   0  0  0  0  0  0  0  0  0  0  0  0
    4.2446    1.8160  -20.5443 C   0  0  0  0  0  0  0  0  0  0  0  0
    5.0983    4.4752  -17.9713 C   0  0  0  0  0  0  0  0  0  0  0  0
    5.0536    2.5924  -19.4958 C   0  0  1  0  0  0  0  0  0  0  0  0
    4.2220    3.7286  -18.9440 C   0  0  2  0  0  0  0  0  0  0  0  0
    6.2467    9.2276  -21.0880 C   0  0  0  0  0  0  0  0  0  0  0  0
    6.3921    6.9399  -14.6939 N   0  0  0  0  0  0  0  0  0  0  0  0
    5.4654    1.6988  -18.3892 N   0  0  0  0  0  0  0  0  0  0  0  0
    4.3863    5.6689  -17.5690 N   0  0  0  0  0  0  0  0  0  0  0  0
    7.7056    2.1433  -18.5021 O   0  0  0  0  0  0  0  0  0  0  0  0
    3.8299    4.6014  -20.0064 O   0  0  0  0  0  0  0  0  0  0  0  0
    8.3629   -0.1529  -22.3236 F   0  0  0  0  0  0  0  0  0  0  0  0
    4.8850   -3.0305  -20.7196 F   0  0  0  0  0  0  0  0  0  0  0  0
    9.6681    7.5536  -18.2636 H   0  0  0  0  0  0  0  0  0  0  0  0
    8.0312    6.5678  -16.6815 H   0  0  0  0  0  0  0  0  0  0  0  0
    8.8842    8.8016  -20.2591 H   0  0  0  0  0  0  0  0  0  0  0  0
    4.8096    7.8986  -19.2077 H   0  0  0  0  0  0  0  0  0  0  0  0
    6.6782    1.7862  -21.7742 H   0  0  0  0  0  0  0  0  0  0  0  0
    3.5808   -0.8016  -20.2515 H   0  0  0  0  0  0  0  0  0  0  0  0
    7.2504   -2.4825  -21.7601 H   0  0  0  0  0  0  0  0  0  0  0  0
    5.6980    9.2376  -16.0315 H   0  0  0  0  0  0  0  0  0  0  0  0
    4.1363    9.4814  -15.1780 H   0  0  0  0  0  0  0  0  0  0  0  0
    3.3579    7.2644  -15.9169 H   0  0  0  0  0  0  0  0  0  0  0  0
    3.8484    8.2535  -17.3339 H   0  0  0  0  0  0  0  0  0  0  0  0
    5.0056    5.3961  -15.0656 H   0  0  0  0  0  0  0  0  0  0  0  0
    6.5866    5.2224  -15.9005 H   0  0  0  0  0  0  0  0  0  0  0  0
    4.5854    7.5113  -13.7468 H   0  0  0  0  0  0  0  0  0  0  0  0
    8.1588    0.5526  -16.6308 H   0  0  0  0  0  0  0  0  0  0  0  0
    6.5106    0.8284  -15.9722 H   0  0  0  0  0  0  0  0  0  0  0  0
    6.7943   -0.4885  -17.1604 H   0  0  0  0  0  0  0  0  0  0  0  0
    6.5161    8.4178  -12.4777 H   0  0  0  0  0  0  0  0  0  0  0  0
    6.9529    9.4440  -13.8857 H   0  0  0  0  0  0  0  0  0  0  0  0
    5.4054    9.7222  -13.0172 H   0  0  0  0  0  0  0  0  0  0  0  0
    5.4834    8.6562  -23.0434 H   0  0  0  0  0  0  0  0  0  0  0  0
    6.7569    7.5670  -22.3966 H   0  0  0  0  0  0  0  0  0  0  0  0
    5.0916    7.4989  -21.7267 H   0  0  0  0  0  0  0  0  0  0  0  0
    6.8656   10.6839  -22.5892 H   0  0  0  0  0  0  0  0  0  0  0  0
    7.5709   10.9554  -20.9597 H   0  0  0  0  0  0  0  0  0  0  0  0
    8.1893    9.6246  -21.9958 H   0  0  0  0  0  0  0  0  0  0  0  0
    4.6270   10.5856  -21.6436 H   0  0  0  0  0  0  0  0  0  0  0  0
    4.2005    9.4192  -20.3459 H   0  0  0  0  0  0  0  0  0  0  0  0
    5.2543   10.8266  -19.9778 H   0  0  0  0  0  0  0  0  0  0  0  0
    4.0492    2.4606  -21.4139 H   0  0  0  0  0  0  0  0  0  0  0  0
    3.2892    1.4891  -20.1081 H   0  0  0  0  0  0  0  0  0  0  0  0
    5.3034    3.8465  -17.0923 H   0  0  0  0  0  0  0  0  0  0  0  0
    6.0472    4.7495  -18.4555 H   0  0  0  0  0  0  0  0  0  0  0  0
    5.9491    3.0085  -19.9804 H   0  0  0  0  0  0  0  0  0  0  0  0
    3.3423    3.3258  -18.4207 H   0  0  0  0  0  0  0  0  0  0  0  0
    6.7298    6.4764  -13.8747 H   0  0  0  0  0  0  0  0  0  0  0  0
    4.7508    1.2108  -17.8879 H   0  0  0  0  0  0  0  0  0  0  0  0
    3.6301    5.4002  -16.9725 H   0  0  0  0  0  0  0  0  0  0  0  0
    4.0232    6.1119  -18.3887 H   0  0  0  0  0  0  0  0  0  0  0  0
    3.2778    4.1285  -20.6179 H   0  0  0  0  0  0  0  0  0  0  0  0
  1  2  2  0
  1  3  1  0
  2  8  1  0
  3  9  2  0
  4  8  2  0
  4  9  1  0
  5 10  2  0
  5 11  1  0
  6 10  1  0
  6 12  2  0
  7 11  2  0
  7 12  1  0
  8 18  1  0
  9 28  1  0
 10 24  1  0
 11 34  1  0
 12 35  1  0
 13 19  1  0
 13 30  1  0
 13 32  2  0
 14 15  1  0
 14 17  1  0
 15 18  1  0
 16 18  1  0
 16 29  1  0
 17 20  1  0
 17 29  1  0
 18 31  1  6
 21 28  1  0
 22 28  1  0
 23 28  1  0
 24 26  1  0
 25 27  1  0
 25 31  1  0
 26 27  1  0
 26 30  1  0
 27 33  1  0
  1 36  1  0
  2 37  1  0
  3 38  1  0
  4 39  1  0
  5 40  1  0
  6 41  1  0
  7 42  1  0
 14 43  1  0
 14 44  1  0
 15 45  1  0
 15 46  1  0
 16 47  1  0
 16 48  1  0
 17 49  1  1
 19 50  1  0
 19 51  1  0
 19 52  1  0
 20 53  1  0
 20 54  1  0
 20 55  1  0
 21 56  1  0
 21 57  1  0
 21 58  1  0
 22 59  1  0
 22 60  1  0
 22 61  1  0
 23 62  1  0
 23 63  1  0
 23 64  1  0
 24 65  1  0
 24 66  1  0
 25 67  1  0
 25 68  1  0
 26 69  1  6
 27 70  1  1
 29 71  1  0
 30 72  1  0
 31 73  1  0
 31 74  1  0
 33 75  1  0
M  CHG  1  31   1
M  END
>  <OMEGA_C>  (104) 
6sAJQQQa9UBQmZPB6dX1QJHx4kC6eIzB/6UCQfHSBUErqJzBDqC7QK7e+0CHx5fB+jbKQD88Sz+Z
WqzBON+RQE4FLL9viKXBCGXUQOpkz7/hV6zB4kfJQEGO5kBpdY7B5urYQLcKCEGZtp7B11OhQPOL
Hj86xKfBDOvjQLBkpr5Pha7B2UWrQMBV5b/x5afB6jnZQN61vz9wC5DBY/ebQIu9C0HvFHjB7ayG
QCNf90CRfIPBvM65QAzovUADf3nB0pWtQIpW/0A5hGTB3+SmQIsY1EDc2obBsK3iQDyuBz9N5obB
PvDDQAZWD0HLnlXB+cC7QAWSAkGRHbHBZWrpQAQXI0Gnn63BT66fQHk7IUH056XB+9OHQJhy6D+2
WqTBOSWjQH80j0BRxY/Bs7ahQGjqJUBW95vBZxqHQGShbkBajZfBoOTHQEukE0EitKjB0YvMQJUT
3kBKGmvBROSuQLdx2T8pHZPB9VyMQK9ntUBcjYzB6JP2QC0rCUBKBJTBSR11QAk/k0ASDaDBn84F
QQyeHL7OlrLBCVKcQFD0QcDIwaXBsLAaQfy28UDXG5LB538AQUAr0kC7c4XBxyUOQXPTDEG2EqLB
MuiZQBzB/EBrqZnB2bPVQNuh5D94Ma7BzitlQFk0Tb8UA6LBQwPoQKrgHsCuFK7B1FW2QETNE0GW
QIDB7lyEQMizF0EM2XLBpOhWQNh16EDHq37Bs0t2QFsOBEHXq4rBRy6gQPGsrECWDHHBOcXSQOYd
p0CaaH7BYLuSQJ1c8EDI8lvBbYoCQYl0DT/eC4XBxVbQQMATVD9Fjn/BgmrZQPIh+r6OSInBJYTQ
QICvBkF5pEfBgX7eQJkaF0HWK17Bz/isQFaOG0GFRlDBFHivQJ9/CkHSWLjBmTjYQKYk8kBULLPB
be6iQLX270BW0K3BpbLbQB/xKkGltrTBFUXyQExJL0GKrafBMQcDQV7+GUFO96/BvRCUQKVeKUEG
Jq3Bu2qGQPe0FkFrxKLBHSOoQJ45LUF40p/BPpOBQA97HUC3T6vBvoFSQPiavj9x3aDBxLWpQM4s
dkATvYjBioLBQJn7l0DGpJPB4l6+QOyLQEDj15/BkOdVQMbZVECgXZPBm1rXQMw+z0DE/l3B2waY
QCz8mj9qGo/BEFNoQHjOrECtx4fB5L2AQASVw0ACHJPB4cZRQAgdhECI8aTBfsQJQcDB9UBShJPB
meT1QDxh40AEbIzBiqYCQVMXBkHzlpzBt6i7QDHp+0CsyJfBukXKQFRlSz9zQazB5hCSQGFpLL9W
ZKXBprbUQM4iz7+GKKzBllnJQA+y5kBkc47BquvYQEgXCEG2tZ7BW2mhQF4+Hj9cqafBhBvkQNMX
pb74X67BLJSrQC1a5b95uafB3e3YQAYxxj+Np4/BvE+cQDOGC0GXoXfBWP6GQB6I90DAaoPBKv65
QFx4vUBWpXnBRYGtQIsj/kDrNmTBDAOnQPUq1EC024bBG3riQM/Y/j7VIIfB44bDQBxkDkEr2lTB
RtzpQHFdIkHh763B4s2gQLD8IUFGw6XBObC5QJGWAkGB7LDBH9SHQDM+6D9jSqTBoROjQEl3j0Cf
0o/BuLOhQEQ1JkAu8ZvBowaHQLr5bkAYkpfBz8rHQA+pE0G8sqjB6JnMQI833UAxAmvBg9OuQM3E
2j82DZPBdGCMQIOxtUDzmIzBL7H2QC9IB0DjLZTBzNF0QPtMk0CdFaDByuQFQTs4F77fcbLBebKc
QIcCQsA2lKXBRrQaQW6i8kC+/ZHBaYgAQUqp0kAcZYXB2iMOQVg3DUGA+KHB6PKZQHGq/EDBrZnB
kKPVQOq65D8II67BRJNlQN3rTb+d3qHBynDoQIerHsBr263BOeW2QHOgE0HK13/BcM6EQKV7F0Hp
R3LB7A5XQAqc6EBXvX7B1qF3QNJjBEGjj4rBg2mgQAPoq0AlVnHBjQnTQD/ppkDJt37B3nmSQD3G
7kBL9lvBQagCQbdDyD6CM4bBx1jUQDitTz/i737BYKTUQM/x7r40kYnBT8XPQNttBUE+/0bBoUne
QIZVFkGFE13BFHSsQAiAGkE0X0/BBgXcQIw3KkELA7XBCRb0QN6XLkGtJajBfNICQTK2GEGFXbDB
kgeVQE0cKkE6/qzB4CuHQK36F0FeZaLBa6SqQDkALkEc0p/BgVCtQNuJCkHDI7jBGEbVQH0S8UC4
ErPBPHGgQAwS8UA8aa3BQn6BQGUWHUAQRavBapdSQLBevj+mx6DBwrepQGfMdkA0yYjBOGbBQIk4
mEAkuJPBflu+QPG6QEDl1J/Bg9FVQFo9VUCgXZPBpGnXQMwGzkBNAV7BpAaYQL6tmD8sQI/BESto
QDgjrUCE2YfBXOSAQCMAxEDuJpPB+nFRQGIYhEBm9aTB

>  <OMEGA_E>  (104) 
oIlRPlC5Uj4=

>  <OMEGA_NBR>  (104) 
    133206

$$$$
50212888
     RDKit          3D

 77 79  0  0  1  0  0  0  0  0999 V2000
    8.5956    7.5118  -18.4278 C   0  0  0  0  0  0  0  0  0  0  0  0
    7.6350    7.0304  -17.5172 C   0  0  0  0  0  0  0  0  0  0  0  0
    8.1936    8.2134  -19.5805 C   0  0  0  0  0  0  0  0  0  0  0  0
    5.8727    7.8592  -18.9638 C   0  0  0  0  0  0  0  0  0  0  0  0
    6.3169    0.8070  -21.6057 C   0  0  0  0  0  0  0  0  0  0  0  0
    4.5703   -0.6559  -20.7210 C   0  0  0  0  0  0  0  0  0  0  0  0
    6.5803   -1.6130  -21.7159 C   0  0  0  0  0  0  0  0  0  0  0  0
    6.2547    7.2301  -17.7649 C   0  0  0  0  0  0  0  0  0  0  0  0
    6.8162    8.4217  -19.8420 C   0  0  0  0  0  0  0  0  0  0  0  0
    5.0672    0.6369  -20.9733 C   0  0  0  0  0  0  0  0  0  0  0  0
    7.0781   -0.3180  -21.9655 C   0  0  0  0  0  0  0  0  0  0  0  0
    5.3229   -1.7800  -21.0999 C   0  0  0  0  0  0  0  0  0  0  0  0
    7.3823    7.1991  -14.0780 C   0  0  0  0  0  0  0  0  0  0  0  0
    6.8842    1.4432  -18.0604 C   0  0  0  0  0  0  0  0  0  0  0  0
    4.7701    8.9802  -15.6530 C   0  0  0  0  0  0  0  0  0  0  0  0
    4.1265    7.8957  -16.5279 C   0  0  0  0  0  0  0  0  0  0  0  0
    5.1855    8.3482  -14.3281 C   0  0  0  0  0  0  0  0  0  0  0  0
    5.6028    6.1384  -15.4683 C   0  0  0  0  0  0  0  0  0  0  0  0
    5.1299    6.7373  -16.8220 C   0  0  2  0  0  0  0  0  0  0  0  0
    8.1098    5.8699  -13.8451 C   0  0  0  0  0  0  0  0  0  0  0  0
    7.1928    0.3207  -17.0735 C   0  0  0  0  0  0  0  0  0  0  0  0
    5.9010    8.0997  -22.1481 C   0  0  0  0  0  0  0  0  0  0  0  0
    7.3880   10.0901  -21.7052 C   0  0  0  0  0  0  0  0  0  0  0  0
    5.0754   10.0450  -20.7595 C   0  0  0  0  0  0  0  0  0  0  0  0
    4.2955    1.8361  -20.4996 C   0  0  0  0  0  0  0  0  0  0  0  0
    5.1268    4.5334  -17.9057 C   0  0  0  0  0  0  0  0  0  0  0  0
    5.1217    2.6121  -19.4556 C   0  0  1  0  0  0  0  0  0  0  0  0
    4.2766    3.7338  -18.8730 C   0  0  2  0  0  0  0  0  0  0  0  0
    6.3103    9.1561  -21.0976 C   0  0  0  0  0  0  0  0  0  0  0  0
    6.0909    7.2166  -14.5927 N   0  0  0  0  0  0  0  0  0  0  0  0
    5.5541    1.7076  -18.3707 N   0  0  0  0  0  0  0  0  0  0  0  0
    4.3524    5.7142  -17.5181 N   0  0  0  0  0  0  0  0  0  0  0  0
    7.9538    8.2477  -13.8025 O   0  0  0  0  0  0  0  0  0  0  0  0
    7.8043    1.9825  -18.6663 O   0  0  0  0  0  0  0  0  0  0  0  0
    3.8320    4.5875  -19.9298 O   0  0  0  0  0  0  0  0  0  0  0  0
    8.2898   -0.1538  -22.5416 F   0  0  0  0  0  0  0  0  0  0  0  0
    4.8418   -3.0195  -20.8597 F   0  0  0  0  0  0  0  0  0  0  0  0
    9.6457    7.3419  -18.2410 H   0  0  0  0  0  0  0  0  0  0  0  0
    7.9519    6.5073  -16.6271 H   0  0  0  0  0  0  0  0  0  0  0  0
    8.9360    8.5936  -20.2666 H   0  0  0  0  0  0  0  0  0  0  0  0
    4.8242    7.9117  -19.2173 H   0  0  0  0  0  0  0  0  0  0  0  0
    6.6878    1.8000  -21.8128 H   0  0  0  0  0  0  0  0  0  0  0  0
    3.6130   -0.7832  -20.2374 H   0  0  0  0  0  0  0  0  0  0  0  0
    7.1626   -2.4782  -21.9967 H   0  0  0  0  0  0  0  0  0  0  0  0
    5.6546    9.3912  -16.1617 H   0  0  0  0  0  0  0  0  0  0  0  0
    4.0454    9.7869  -15.4685 H   0  0  0  0  0  0  0  0  0  0  0  0
    3.2497    7.4865  -16.0047 H   0  0  0  0  0  0  0  0  0  0  0  0
    3.8085    8.3451  -17.4802 H   0  0  0  0  0  0  0  0  0  0  0  0
    5.7031    9.0965  -13.7100 H   0  0  0  0  0  0  0  0  0  0  0  0
    4.2923    7.9880  -13.7965 H   0  0  0  0  0  0  0  0  0  0  0  0
    4.7606    5.6249  -14.9814 H   0  0  0  0  0  0  0  0  0  0  0  0
    6.4149    5.4192  -15.6504 H   0  0  0  0  0  0  0  0  0  0  0  0
    9.1114    6.0664  -13.4349 H   0  0  0  0  0  0  0  0  0  0  0  0
    7.5360    5.2577  -13.1337 H   0  0  0  0  0  0  0  0  0  0  0  0
    8.2039    5.3314  -14.7996 H   0  0  0  0  0  0  0  0  0  0  0  0
    8.2782    0.1441  -17.0460 H   0  0  0  0  0  0  0  0  0  0  0  0
    6.8426    0.6075  -16.0710 H   0  0  0  0  0  0  0  0  0  0  0  0
    6.6798   -0.5987  -17.3920 H   0  0  0  0  0  0  0  0  0  0  0  0
    5.5360    8.6053  -23.0544 H   0  0  0  0  0  0  0  0  0  0  0  0
    6.7722    7.4776  -22.4011 H   0  0  0  0  0  0  0  0  0  0  0  0
    5.1033    7.4637  -21.7368 H   0  0  0  0  0  0  0  0  0  0  0  0
    6.9805   10.5901  -22.5963 H   0  0  0  0  0  0  0  0  0  0  0  0
    7.6791   10.8465  -20.9615 H   0  0  0  0  0  0  0  0  0  0  0  0
    8.2696    9.4966  -21.9890 H   0  0  0  0  0  0  0  0  0  0  0  0
    4.7324   10.5586  -21.6698 H   0  0  0  0  0  0  0  0  0  0  0  0
    4.2649    9.4128  -20.3679 H   0  0  0  0  0  0  0  0  0  0  0  0
    5.3572   10.7910  -20.0018 H   0  0  0  0  0  0  0  0  0  0  0  0
    4.0801    2.4926  -21.3555 H   0  0  0  0  0  0  0  0  0  0  0  0
    3.3505    1.5052  -20.0443 H   0  0  0  0  0  0  0  0  0  0  0  0
    5.3580    3.9269  -17.0177 H   0  0  0  0  0  0  0  0  0  0  0  0
    6.0634    4.8412  -18.3936 H   0  0  0  0  0  0  0  0  0  0  0  0
    6.0033    3.0452  -19.9507 H   0  0  0  0  0  0  0  0  0  0  0  0
    3.4189    3.3028  -18.3358 H   0  0  0  0  0  0  0  0  0  0  0  0
    4.8469    1.2574  -17.8256 H   0  0  0  0  0  0  0  0  0  0  0  0
    3.6110    5.4192  -16.9153 H   0  0  0  0  0  0  0  0  0  0  0  0
    3.9668    6.1221  -18.3457 H   0  0  0  0  0  0  0  0  0  0  0  0
    3.2988    4.0886  -20.5375 H   0  0  0  0  0  0  0  0  0  0  0  0
  1  2  2  0
  1  3  1  0
  2  8  1  0
  3  9  2  0
  4  8  2  0
  4  9  1  0
  5 10  2  0
  5 11  1  0
  6 10  1  0
  6 12  2  0
  7 11  2  0
  7 12  1  0
  8 19  1  0
  9 29  1  0
 10 25  1  0
 11 36  1  0
 12 37  1  0
 13 20  1  0
 13 30  1  0
 13 33  2  0
 14 21  1  0
 14 31  1  0
 14 34  2  0
 15 16  1  0
 15 17  1  0
 16 19  1  0
 17 30  1  0
 18 19  1  0
 18 30  1  0
 19 32  1  6
 22 29  1  0
 23 29  1  0
 24 29  1  0
 25 27  1  0
 26 28  1  0
 26 32  1  0
 27 28  1  0
 27 31  1  0
 28 35  1  0
  1 38  1  0
  2 39  1  0
  3 40  1  0
  4 41  1  0
  5 42  1  0
  6 43  1  0
  7 44  1  0
 15 45  1  0
 15 46  1  0
 16 47  1  0
 16 48  1  0
 17 49  1  0
 17 50  1  0
 18 51  1  0
 18 52  1  0
 20 53  1  0
 20 54  1  0
 20 55  1  0
 21 56  1  0
 21 57  1  0
 21 58  1  0
 22 59  1  0
 22 60  1  0
 22 61  1  0
 23 62  1  0
 23 63  1  0
 23 64  1  0
 24 65  1  0
 24 66  1  0
 24 67  1  0
 25 68  1  0
 25 69  1  0
 26 70  1  0
 26 71  1  0
 27 72  1  6
 28 73  1  1
 31 74  1  0
 32 75  1  0
 32 76  1  0
 35 77  1  0
M  CHG  1  32   1
M  END
>  <OMEGA_C>  (105) 
mYcJQZxg8EAobJPB+1H0QDL54EBOI4zB5hgDQT9qA0HrpJzBRO27QFd++0D0tZfBTSTKQJCZTj94
2KzBmT+SQLzqJ7+TxKXBHJLSQHh3zr8euq3BiSbIQJpc50B4Ho7B/B3aQDS/BkF7vJ7BdyaiQLcI
Iz9SyafBZX/iQMXQor5lua/BklWqQJnX47+JzKjBEzzsQBJf5kBXP2HBbUvcQMm6uD/De5DBxKSY
QPmuD0GkcnrBRgyEQI+p/EArOYTBUu+lQDiSBUHQP2XB7kmzQLhtxEAqfnfB1yekQPyX10CCk4bB
0MEBQf3Vu0BthV3ByivmQJw1pD6DlojBttS8QGyYAUFhL7HBn2rsQCZxIUFZpK3BqGmiQHi4IEFw
E6bBInWJQK8E6z8z/6PBqg6kQAQSkUDzPo/BrOSjQAwsJ0AJpZvBStqIQEz3bkDg+5bB0+3JQHt/
EkHQx6jBgujCQHXu5kC5e2nBgLuxQOOR2j9E95LB0kaLQJ7atkAkJYzB34X+QI/2A0EP11zB9rz5
QB/E/T+UVJXBOD91QADNkkAwcJ/B+6IEQdR3Hb5LVbTB6u+aQOw/QcCo4KbBs1QaQRrx6kCZ7ZHB
/HX+QKo70EBZBIXB9fkOQU9/CUHzIaLBtF+aQIEs/UD6vJnBfALWQA5m5j+XgK7BFDtnQNd/SL9J
5qHBUjTlQDCaHsA7+a/BYvK0QE5CFkE0S4HB53OBQCqXHEHlfnfBn/pPQCaR70C3CYDBzr5zQLSF
BUF+14vBxX+2QGmLEUEVXFvBvlqJQIGd/0CUvlzBvFaYQCT/s0D0s2/BL0fNQBZqrUDqZ3rBMMgR
QeAfwkA/9VbBFSfxQEI/qEC0I1LBB0MDQXWaqkA9y2zBnXMEQUKSEz4iXojBsPbaQE+HGz9SkYDB
QMHVQGVGGb/GIovBOSexQDivCUFQb7jBw7XYQMpI70B1NbPBJE6jQGnW7kAL5a3B/V/fQBZxKUEp
xbTBd7v1QCmLLUEfsafBSlAEQQ/yF0GH6a/BL3CXQDHwKEGsW63B0XmIQOSaFkF38aLBEm6rQBOo
LEG0A6DBFZCCQMSGH0AT2KrBE25WQA6qwD+qWqDBvHSrQKlRe0BGJIjBpAfCQPnqmkASJpPBFhvA
QG/kQkD3mp/B0c9aQJVhU0C+r5LBLhqbQAjyoD/Dmo7BNxtnQB5qrUCZUofB4t99QCXow0ASxJLB
+x9TQGvVgkC1TKTBbLQJQcKs8UDYJJPBAHf0QI634UB2/4vBl2EDQU4ABEGaZZzB9UW8QMKI+0C1
xpfBWlDKQJSbTz/i0azBJtORQEg6Jr/wAKbBPKnSQPPxzb96rK3BfUHIQLNK50A1M47B67TaQOz3
BkHYqp7BEPOhQBBuJD9l8qfBcNTiQK0hob4BlK/B6RKqQKwa47/H7KjBu1jmQEwt30BRFFzB4fzb
QHFiuz9VZZDB7FaYQEm9D0GDHnzBL1SDQOY5+0CiYITB2uapQA8QB0GS/mbBZRK0QMwpxUA8CHjB
nimkQKE010AwwYbBEQT6QJpFskA2ZlrBcM7lQMEIrz5KfojBjBHuQNKzIEFF6a3BGgilQDQIIkEY
xKXBvwm7QMYIAkGt4rDBTEeJQES76z/ULaTB26SkQNvPkEDqdY/B28GjQOvoJkBLyZvBbdOIQBUe
bkBOApfBFrnKQFDOEkEyr6jB2SLFQGnT50DEZ2rBTIixQCby2D9IKpPBoYuLQPL7tUBAL4zBK8zy
QGbJ+kBmoE/BrIT5QHM1AkBg+ZTBIPtyQI85kkBsX5/BQwIFQfhFG77g9rPBuo6aQN3TQMC0CKfB
c38aQXfD7EDhhJHB5WH+QM0y0UA904TB31QPQQhSCkFYx6HBt86aQF4A/UDT5pnB71XWQJrW5j/8
bK7Blc5lQFlqRr8xR6LBUGHlQCplHsCw2q/BOLSyQCqUFkE+yILBvHaAQPM8HEFMzHjBfGlRQOjv
7UAYWn/BRQFuQA77A0EH+4vBhh69QE6YE0FmOV/BSe2OQJ2yAkFckFzBQ0iZQH1/tUDnuW/BsoPN
QDqarUClDnvBDecIQXPGsUDubU3BUKngQLHYmkCa9FbBctUEQQAEqkASnWnBAVEEQTofRz7D/4fB
+k/ZQHNIHD9KjYDBj4rWQAafFr8nO4vBXQbhQAbLKEFxA7XBg0L5QNW9LEFIIqjBMoMEQRtwFkGg
S7DBlPyZQIBdKkEyAq3BkIeKQFSiGEFkYaLBXfSvQM3ZLUE62J/BbHavQNY4CkEjHrjBTKTVQNWk
7kC8ArPBe9mgQG488UDlXK3Bp5iCQKUZIEC7BKvBJtpVQCq8wT/Vk6DBIS2tQF/cekBkbojB7vzB
QJ8wm0APkpPBBfm/QEPjQkCdt5/BYedbQLIcUkAXiJLBvNyaQJINmz9nDY/BLgNpQFMDrEBCOYfB
fJN8QPHTwkAwuJLBqRFQQNoagkAOHaTB

>  <OMEGA_E>  (105) 
sNBBPoAFRD4=

>  <OMEGA_NBR>  (105) 
    135952

$$$$
50212887
     RDKit          3D

 77 79  0  0  1  0  0  0  0  0999 V2000
    8.6359    7.6398  -18.4558 C   0  0  0  0  0  0  0  0  0  0  0  0
    7.7048    7.0483  -17.5842 C   0  0  0  0  0  0  0  0  0  0  0  0
    8.1972    8.3816  -19.5666 C   0  0  0  0  0  0  0  0  0  0  0  0
    5.8931    7.9001  -18.9614 C   0  0  0  0  0  0  0  0  0  0  0  0
    6.2822    0.7814  -21.5384 C   0  0  0  0  0  0  0  0  0  0  0  0
    4.5421   -0.6882  -20.6497 C   0  0  0  0  0  0  0  0  0  0  0  0
    6.6133   -1.6302  -21.5256 C   0  0  0  0  0  0  0  0  0  0  0  0
    6.3134    7.2029  -17.8118 C   0  0  0  0  0  0  0  0  0  0  0  0
    6.8113    8.5306  -19.8232 C   0  0  0  0  0  0  0  0  0  0  0  0
    5.0150    0.6030  -20.9437 C   0  0  0  0  0  0  0  0  0  0  0  0
    7.0875   -0.3341  -21.8130 C   0  0  0  0  0  0  0  0  0  0  0  0
    5.3371   -1.8051  -20.9505 C   0  0  0  0  0  0  0  0  0  0  0  0
    6.8136    1.5803  -17.9638 C   0  0  0  0  0  0  0  0  0  0  0  0
    4.8320    8.7307  -15.5594 C   0  0  0  0  0  0  0  0  0  0  0  0
    6.3350    6.9143  -14.5829 C   0  0  0  0  0  0  0  0  0  0  0  0
    4.2027    7.7104  -16.4823 C   0  0  0  0  0  0  0  0  0  0  0  0
    5.7848    5.9131  -15.5986 C   0  0  0  0  0  0  0  0  0  0  0  0
    5.2927    8.0142  -14.2844 C   0  0  1  0  0  0  0  0  0  0  0  0
    5.2291    6.6208  -16.8735 C   0  0  2  0  0  0  0  0  0  0  0  0
    7.1489    0.5440  -16.8947 C   0  0  0  0  0  0  0  0  0  0  0  0
    7.3514   10.1520  -21.7416 C   0  0  0  0  0  0  0  0  0  0  0  0
    5.0792   10.1807  -20.6960 C   0  0  0  0  0  0  0  0  0  0  0  0
    5.8037    8.1949  -22.0862 C   0  0  0  0  0  0  0  0  0  0  0  0
    4.2213    1.7965  -20.5107 C   0  0  0  0  0  0  0  0  0  0  0  0
    5.8935    9.0508  -13.3497 C   0  0  0  0  0  0  0  0  0  0  0  0
    5.1279    4.4841  -18.0049 C   0  0  0  0  0  0  0  0  0  0  0  0
    5.0511    2.5839  -19.4893 C   0  0  1  0  0  0  0  0  0  0  0  0
    4.2259    3.7185  -18.9325 C   0  0  2  0  0  0  0  0  0  0  0  0
    6.2766    9.2596  -21.0690 C   0  0  0  0  0  0  0  0  0  0  0  0
    5.4914    1.7031  -18.3824 N   0  0  0  0  0  0  0  0  0  0  0  0
    4.4126    5.6704  -17.6023 N   0  0  0  0  0  0  0  0  0  0  0  0
    7.7239    2.1720  -18.5347 O   0  0  0  0  0  0  0  0  0  0  0  0
    6.2223    8.4209  -12.1222 O   0  0  0  0  0  0  0  0  0  0  0  0
    3.7888    4.5728  -19.9928 O   0  0  0  0  0  0  0  0  0  0  0  0
    8.3195   -0.1576  -22.3399 F   0  0  0  0  0  0  0  0  0  0  0  0
    4.8807   -3.0443  -20.6670 F   0  0  0  0  0  0  0  0  0  0  0  0
    9.6937    7.5238  -18.2712 H   0  0  0  0  0  0  0  0  0  0  0  0
    8.0506    6.4736  -16.7377 H   0  0  0  0  0  0  0  0  0  0  0  0
    8.9188    8.8396  -20.2268 H   0  0  0  0  0  0  0  0  0  0  0  0
    4.8385    7.9525  -19.1880 H   0  0  0  0  0  0  0  0  0  0  0  0
    6.6312    1.7741  -21.7816 H   0  0  0  0  0  0  0  0  0  0  0  0
    3.5716   -0.8198  -20.1945 H   0  0  0  0  0  0  0  0  0  0  0  0
    7.2279   -2.4905  -21.7461 H   0  0  0  0  0  0  0  0  0  0  0  0
    5.6958    9.1971  -16.0557 H   0  0  0  0  0  0  0  0  0  0  0  0
    4.0938    9.5051  -15.3038 H   0  0  0  0  0  0  0  0  0  0  0  0
    6.5797    6.3854  -13.6500 H   0  0  0  0  0  0  0  0  0  0  0  0
    7.2448    7.3794  -14.9902 H   0  0  0  0  0  0  0  0  0  0  0  0
    3.3513    7.2375  -15.9709 H   0  0  0  0  0  0  0  0  0  0  0  0
    3.8486    8.2165  -17.3925 H   0  0  0  0  0  0  0  0  0  0  0  0
    6.5926    5.2283  -15.8959 H   0  0  0  0  0  0  0  0  0  0  0  0
    4.9726    5.3396  -15.1280 H   0  0  0  0  0  0  0  0  0  0  0  0
    4.4200    7.5534  -13.7985 H   0  0  0  0  0  0  0  0  0  0  0  0
    8.2408    0.4723  -16.7824 H   0  0  0  0  0  0  0  0  0  0  0  0
    6.7011    0.8474  -15.9369 H   0  0  0  0  0  0  0  0  0  0  0  0
    6.7462   -0.4349  -17.1940 H   0  0  0  0  0  0  0  0  0  0  0  0
    6.9181   10.6476  -22.6229 H   0  0  0  0  0  0  0  0  0  0  0  0
    7.6964   10.9128  -21.0259 H   0  0  0  0  0  0  0  0  0  0  0  0
    8.2027    9.5288  -22.0530 H   0  0  0  0  0  0  0  0  0  0  0  0
    4.7133   10.6910  -21.5992 H   0  0  0  0  0  0  0  0  0  0  0  0
    4.2698    9.5731  -20.2650 H   0  0  0  0  0  0  0  0  0  0  0  0
    5.4078   10.9291  -19.9599 H   0  0  0  0  0  0  0  0  0  0  0  0
    5.4166    8.6939  -22.9868 H   0  0  0  0  0  0  0  0  0  0  0  0
    6.6504    7.5486  -22.3607 H   0  0  0  0  0  0  0  0  0  0  0  0
    5.0078    7.5845  -21.6346 H   0  0  0  0  0  0  0  0  0  0  0  0
    4.0018    2.4326  -21.3809 H   0  0  0  0  0  0  0  0  0  0  0  0
    3.2782    1.4682  -20.0494 H   0  0  0  0  0  0  0  0  0  0  0  0
    6.8016    9.4753  -13.8026 H   0  0  0  0  0  0  0  0  0  0  0  0
    5.1637    9.8539  -13.1696 H   0  0  0  0  0  0  0  0  0  0  0  0
    5.3701    3.8720  -17.1235 H   0  0  0  0  0  0  0  0  0  0  0  0
    6.0566    4.7615  -18.5250 H   0  0  0  0  0  0  0  0  0  0  0  0
    5.9337    2.9992  -19.9978 H   0  0  0  0  0  0  0  0  0  0  0  0
    3.3686    3.3160  -18.3730 H   0  0  0  0  0  0  0  0  0  0  0  0
    4.7964    1.1638  -17.9069 H   0  0  0  0  0  0  0  0  0  0  0  0
    3.6489    5.3961  -17.0179 H   0  0  0  0  0  0  0  0  0  0  0  0
    4.0597    6.1204  -18.4226 H   0  0  0  0  0  0  0  0  0  0  0  0
    6.5993    9.0600  -11.5289 H   0  0  0  0  0  0  0  0  0  0  0  0
    3.2191    4.0867  -20.5774 H   0  0  0  0  0  0  0  0  0  0  0  0
  1  2  2  0
  1  3  1  0
  2  8  1  0
  3  9  2  0
  4  8  2  0
  4  9  1  0
  5 10  2  0
  5 11  1  0
  6 10  1  0
  6 12  2  0
  7 11  2  0
  7 12  1  0
  8 19  1  0
  9 29  1  0
 10 24  1  0
 11 35  1  0
 12 36  1  0
 13 20  1  0
 13 30  1  0
 13 32  2  0
 14 16  1  0
 14 18  1  0
 15 17  1  0
 15 18  1  0
 16 19  1  0
 17 19  1  0
 18 25  1  0
 19 31  1  6
 21 29  1  0
 22 29  1  0
 23 29  1  0
 24 27  1  0
 25 33  1  0
 26 28  1  0
 26 31  1  0
 27 28  1  0
 27 30  1  0
 28 34  1  0
  1 37  1  0
  2 38  1  0
  3 39  1  0
  4 40  1  0
  5 41  1  0
  6 42  1  0
  7 43  1  0
 14 44  1  0
 14 45  1  0
 15 46  1  0
 15 47  1  0
 16 48  1  0
 16 49  1  0
 17 50  1  0
 17 51  1  0
 18 52  1  1
 20 53  1  0
 20 54  1  0
 20 55  1  0
 21 56  1  0
 21 57  1  0
 21 58  1  0
 22 59  1  0
 22 60  1  0
 22 61  1  0
 23 62  1  0
 23 63  1  0
 23 64  1  0
 24 65  1  0
 24 66  1  0
 25 67  1  0
 25 68  1  0
 26 69  1  0
 26 70  1  0
 27 71  1  6
 28 72  1  1
 30 73  1  0
 31 74  1  0
 31 75  1  0
 33 76  1  0
 34 77  1  0
M  CHG  1  31   1
M  END
>  <OMEGA_C>  (106) 
ziwKQX159ECSpZPB3o32QFeL4UCArIzBkicDQSUbBkF+iJzBjZS8QI7N/EAIsZfBsQfJQOsHSD+s
TqzBD1mRQLYqML+fMqXB9Z/TQDiq0L9+NKzBdQfKQE9+5kCEfo7BL/bZQE19CEHnlZ7BFXugQLVe
Gj+vjKfB3sziQJQTq74Mga7BhsmqQGcM57+zmqfBAAnaQB9Iyj/ptY/BsZ+aQO6wC0Fc83jBDbjK
QENC3UC/U2nBanyGQE279kCv24PBxBy5QE44vUCzk3nBiF2pQD86AEEWjWTBg1SnQLnd00D9/IbB
+cPkQDBCCz9YKIfB9j7rQK5uIkG+7q3BlIiiQATkIkGBkaXB9re5QE0eA0GZsLDBgxSHQK/y5T/a
FaTBy5e8QPjPEEFWmFXBuRekQFp9j0DvCZDB8KKhQNVdJUAV6pvBojqHQOr7bUC1dZfBP9rIQHQn
FEE+jajBO7mvQJ3+2T85D5PBLTSNQAt0tUCJ0YzBFir3QPUBC0AAR5TBYx3HQC+8BkGT9EHBCHty
QL1UkkBM8Z/BzhwFQYVfIb4zuLLBFC+cQFrVQsDrVaXBWxkbQUXD8EBYK5LBEc8AQWAnz0DY5oXB
e7MOQQxvDUGU0KHByNSaQJZ6/kAggZnByjLUQNoU4z+vQK7BdZVkQOffUb9njqHBv0rnQOFjH8D0
963B0EO2QF0nE0ElcoDBJgCDQN8UGEFz3HTBzozSQHtVzEBvZlrBUdXnQHIk7EAO2G/BUHtWQJaZ
50DNiH/B6E92QM92A0HFI4vBrfbSQEtOp0CQVX7BJB+fQGHeqkA7DHLB7nCNQGu18UCbxlzBcdoD
QRbV8T5rQobBY2/WQHTtWD99/X7B9eDXQESt3r5XjYnBbWHdQJ5cKkGZ+7TBJUn2QL6aLkH8NKjB
Nz4DQSN2GEGjbLDBItOWQEIOK0Ety6zBN6KIQHIrGUHAHqLBYQytQG7dLkHXrZ/BiVStQFIaC0EL
5bfBQ9DUQL6N8UCf4rLBzD+gQF208kC0E63BGw+AQF2vG0D+C6vBdc1RQJfsuz8dZaDB2abZQMia
F0Gf11zBXT2lQISpHUHXtlLBz9erQFXPd0Dw/IjBbc/BQO5dmEBMM5TB4eC9QF7zP0Bx+5/BTJdX
QN45VEDR+5LBFnyZQBH2lD9HQY/BD4hpQCGtrECkJIjBIemBQJvaw0CQYZPB3C3TQKD1EEFldjjB
yQVOQHnGgkBtnqTB+hYKQXyu9EB+/pPB5Mf2QJYp4kAA2ozBMNECQZX+BUFS5ZzBYSy8QKak/EDg
xZfBcMzJQM16Sz9WQKzBPMORQN0ILb8iVqXBLjbUQBoNz7+TP6zBAyTKQPjG5kBLj47BLS/ZQHxp
CEFvxp7BGwyhQKK1HT9smqfBb5HjQO5GpL4Vcq7BMzSrQNZ/5b+BvqfBp/7YQFMdxj98mI/BI3ea
QCP3CkG0e3fBuNnLQGDM20C4MGnBGAyHQJiq9kCzmYPB9o66QFx7vECs3XnBEiypQMjw/EBCimPB
e+enQAr400BB84bBY83iQIq08j5qRYfB7MK7QDwjA0FGKLHBHN/oQP3TI0Hki63BlESfQA10IUE+
x6XBxIKHQOaq5z+/MKTBcR+6QP4HDkF8zVLBTdejQKSLj0DO/o/BUaShQC/YJUDq5ZvBOC6HQIPM
bkDViJfBzbjHQIAeFEFbrqjBl+KuQOP42T+fA5PBNWGNQETPtUA0y4zBnZz2QJw1CUCt7JPBN+Dc
QGoaGkEQSVvB8uFzQGbtkkCGDaDBm5AFQb2AE76PlLLBT2mcQBAcQsDOlKXByw0bQSr78EByopLB
px4BQeRT0EAfB4bB5zUOQfkhDUHHUqLBv1maQEr6/UAwhJnBESDVQMPk5D+JHa7B8C1lQB3gTr9a
wqHBfd7nQNCWHsAIBK7BkBG2QGoCE0HL3n7BtHGCQGb5FkFo3nLBKgHVQGUZykCNrlrBEAzoQCpc
7EAptG/BpZ1WQOUH50D6sn/B5Rh5QIgbBEFYw4rBvL7UQG9hp0AeEH/BpxGhQI0sqUAlgnLBRmmN
QDny60AM11zBGtQCQYoRxD7lR4bBLDbUQLsTQT9lKn/BvJjVQFFv+r7Y8onBJCmvQDkiC0H+VbjB
wWHYQE2n80CeS7PBDTujQPm38EB5363Bp+baQFrEK0G8lLTBJZXxQOLvL0EHi6fB8tICQVXrGkGx
9q/BMV6TQKyqKUFk+KzBrEWGQHu9FkEFqqLB/ZOnQK5fLUF9pZ/BRe+AQIbNHEDJJ6vBVzNSQPWl
vT/lnqDBgFGgQDkBGUEiBU7B+SzFQHb+BEFev0TB1viqQNeKd0DS74jBdeLBQLcZmEAtDZTBakK+
QEIVQEC01Z/B7sRWQLFiVUAuK5PBlyWYQHdAlz+qO4/BAp1pQE1arUAxIIjBHk6CQF5SxEBDXZPB
ySPnQJW7I0EftFDBha1PQNiTg0BEzaTB

>  <OMEGA_E>  (106) 
4O9tPlAqaz4=

>  <OMEGA_NBR>  (106) 
    138702

$$$$
50212894
     RDKit          3D

 76 78  0  0  1  0  0  0  0  0999 V2000
    8.6049    7.5846  -18.4334 C   0  0  0  0  0  0  0  0  0  0  0  0
    7.6546    7.0463  -17.5482 C   0  0  0  0  0  0  0  0  0  0  0  0
    8.1885    8.3003  -19.5693 C   0  0  0  0  0  0  0  0  0  0  0  0
    5.8697    7.8718  -18.9744 C   0  0  0  0  0  0  0  0  0  0  0  0
    6.3071    0.7938  -21.5784 C   0  0  0  0  0  0  0  0  0  0  0  0
    4.5471   -0.6673  -20.7161 C   0  0  0  0  0  0  0  0  0  0  0  0
    6.5902   -1.6245  -21.6402 C   0  0  0  0  0  0  0  0  0  0  0  0
    6.2676    7.2049  -17.8031 C   0  0  0  0  0  0  0  0  0  0  0  0
    6.8070    8.4754  -19.8345 C   0  0  0  0  0  0  0  0  0  0  0  0
    5.0411    0.6234  -20.9793 C   0  0  0  0  0  0  0  0  0  0  0  0
    7.0866   -0.3299  -21.8957 C   0  0  0  0  0  0  0  0  0  0  0  0
    5.3174   -1.7909  -21.0560 C   0  0  0  0  0  0  0  0  0  0  0  0
    6.8419    1.4717  -18.0437 C   0  0  0  0  0  0  0  0  0  0  0  0
    7.2310    6.6697  -13.7830 C   0  0  0  0  0  0  0  0  0  0  0  0
    4.8484    8.8726  -15.6549 C   0  0  0  0  0  0  0  0  0  0  0  0
    4.1585    7.7929  -16.4890 C   0  0  0  0  0  0  0  0  0  0  0  0
    5.4231    8.2429  -14.3829 C   0  0  0  0  0  0  0  0  0  0  0  0
    5.7031    6.0354  -15.5698 C   0  0  0  0  0  0  0  0  0  0  0  0
    5.1633    6.6705  -16.8629 C   0  0  2  0  0  0  0  0  0  0  0  0
    7.1518    0.4750  -16.9304 C   0  0  0  0  0  0  0  0  0  0  0  0
    5.8462    8.1788  -22.1216 C   0  0  0  0  0  0  0  0  0  0  0  0
    7.3793   10.1372  -21.7040 C   0  0  0  0  0  0  0  0  0  0  0  0
    5.0873   10.1346  -20.7045 C   0  0  0  0  0  0  0  0  0  0  0  0
    4.2604    1.8214  -20.5283 C   0  0  0  0  0  0  0  0  0  0  0  0
    5.1127    4.4848  -17.9433 C   0  0  0  0  0  0  0  0  0  0  0  0
    5.0840    2.5913  -19.4840 C   0  0  1  0  0  0  0  0  0  0  0  0
    4.2462    3.7122  -18.9066 C   0  0  2  0  0  0  0  0  0  0  0  0
    6.2948    9.2244  -21.0754 C   0  0  0  0  0  0  0  0  0  0  0  0
    6.2667    7.0676  -14.6959 N   0  0  0  0  0  0  0  0  0  0  0  0
    7.1781    7.1332  -12.4846 N   0  0  0  0  0  0  0  0  0  0  0  0
    5.5136    1.6874  -18.3958 N   0  0  0  0  0  0  0  0  0  0  0  0
    4.3641    5.6704  -17.5539 N   0  0  0  0  0  0  0  0  0  0  0  0
    7.7529    2.1249  -18.5417 O   0  0  0  0  0  0  0  0  0  0  0  0
    8.1610    5.9474  -14.1234 O   0  0  0  0  0  0  0  0  0  0  0  0
    3.8152    4.5782  -19.9592 O   0  0  0  0  0  0  0  0  0  0  0  0
    8.3139   -0.1637  -22.4367 F   0  0  0  0  0  0  0  0  0  0  0  0
    4.8381   -3.0291  -20.8068 F   0  0  0  0  0  0  0  0  0  0  0  0
    9.6586    7.4477  -18.2401 H   0  0  0  0  0  0  0  0  0  0  0  0
    7.9817    6.5095  -16.6699 H   0  0  0  0  0  0  0  0  0  0  0  0
    8.9231    8.7180  -20.2419 H   0  0  0  0  0  0  0  0  0  0  0  0
    4.8194    7.9226  -19.2208 H   0  0  0  0  0  0  0  0  0  0  0  0
    6.6755    1.7862  -21.7924 H   0  0  0  0  0  0  0  0  0  0  0  0
    3.5790   -0.7934  -20.2544 H   0  0  0  0  0  0  0  0  0  0  0  0
    7.1854   -2.4897  -21.8922 H   0  0  0  0  0  0  0  0  0  0  0  0
    5.6623    9.3248  -16.2407 H   0  0  0  0  0  0  0  0  0  0  0  0
    4.1178    9.6486  -15.3825 H   0  0  0  0  0  0  0  0  0  0  0  0
    3.3314    7.3595  -15.9075 H   0  0  0  0  0  0  0  0  0  0  0  0
    3.7617    8.2451  -17.4099 H   0  0  0  0  0  0  0  0  0  0  0  0
    6.0336    8.9919  -13.8571 H   0  0  0  0  0  0  0  0  0  0  0  0
    4.5933    7.9254  -13.7343 H   0  0  0  0  0  0  0  0  0  0  0  0
    4.8819    5.5244  -15.0457 H   0  0  0  0  0  0  0  0  0  0  0  0
    6.4866    5.3060  -15.8228 H   0  0  0  0  0  0  0  0  0  0  0  0
    8.2310    0.4860  -16.7176 H   0  0  0  0  0  0  0  0  0  0  0  0
    6.5964    0.7546  -16.0230 H   0  0  0  0  0  0  0  0  0  0  0  0
    6.8511   -0.5343  -17.2479 H   0  0  0  0  0  0  0  0  0  0  0  0
    5.4751    8.6941  -23.0199 H   0  0  0  0  0  0  0  0  0  0  0  0
    6.7004    7.5406  -22.3917 H   0  0  0  0  0  0  0  0  0  0  0  0
    5.0436    7.5572  -21.6978 H   0  0  0  0  0  0  0  0  0  0  0  0
    6.9636   10.6482  -22.5849 H   0  0  0  0  0  0  0  0  0  0  0  0
    7.7023   10.8851  -20.9649 H   0  0  0  0  0  0  0  0  0  0  0  0
    8.2418    9.5258  -22.0080 H   0  0  0  0  0  0  0  0  0  0  0  0
    4.7350   10.6616  -21.6034 H   0  0  0  0  0  0  0  0  0  0  0  0
    4.2729    9.5161  -20.2994 H   0  0  0  0  0  0  0  0  0  0  0  0
    5.4008   10.8693  -19.9482 H   0  0  0  0  0  0  0  0  0  0  0  0
    4.0551    2.4736  -21.3899 H   0  0  0  0  0  0  0  0  0  0  0  0
    3.3100    1.4951  -20.0808 H   0  0  0  0  0  0  0  0  0  0  0  0
    5.3342    3.8703  -17.0582 H   0  0  0  0  0  0  0  0  0  0  0  0
    6.0541    4.7762  -18.4322 H   0  0  0  0  0  0  0  0  0  0  0  0
    5.9687    3.0207  -19.9770 H   0  0  0  0  0  0  0  0  0  0  0  0
    3.3835    3.2894  -18.3709 H   0  0  0  0  0  0  0  0  0  0  0  0
    7.8933    6.8792  -11.8335 H   0  0  0  0  0  0  0  0  0  0  0  0
    6.4245    7.7232  -12.1947 H   0  0  0  0  0  0  0  0  0  0  0  0
    4.8065    1.2017  -17.8818 H   0  0  0  0  0  0  0  0  0  0  0  0
    3.6200    5.3883  -16.9482 H   0  0  0  0  0  0  0  0  0  0  0  0
    3.9825    6.0872  -18.3789 H   0  0  0  0  0  0  0  0  0  0  0  0
    3.2695    4.0922  -20.5662 H   0  0  0  0  0  0  0  0  0  0  0  0
  1  2  2  0
  1  3  1  0
  2  8  1  0
  3  9  2  0
  4  8  2  0
  4  9  1  0
  5 10  2  0
  5 11  1  0
  6 10  1  0
  6 12  2  0
  7 11  2  0
  7 12  1  0
  8 19  1  0
  9 28  1  0
 10 24  1  0
 11 36  1  0
 12 37  1  0
 13 20  1  0
 13 31  1  0
 13 33  2  0
 14 29  1  0
 14 30  1  0
 14 34  2  0
 15 16  1  0
 15 17  1  0
 16 19  1  0
 17 29  1  0
 18 19  1  0
 18 29  1  0
 19 32  1  6
 21 28  1  0
 22 28  1  0
 23 28  1  0
 24 26  1  0
 25 27  1  0
 25 32  1  0
 26 27  1  0
 26 31  1  0
 27 35  1  0
  1 38  1  0
  2 39  1  0
  3 40  1  0
  4 41  1  0
  5 42  1  0
  6 43  1  0
  7 44  1  0
 15 45  1  0
 15 46  1  0
 16 47  1  0
 16 48  1  0
 17 49  1  0
 17 50  1  0
 18 51  1  0
 18 52  1  0
 20 53  1  0
 20 54  1  0
 20 55  1  0
 21 56  1  0
 21 57  1  0
 21 58  1  0
 22 59  1  0
 22 60  1  0
 22 61  1  0
 23 62  1  0
 23 63  1  0
 23 64  1  0
 24 65  1  0
 24 66  1  0
 25 67  1  0
 25 68  1  0
 26 69  1  6
 27 70  1  1
 30 71  1  0
 30 72  1  0
 31 73  1  0
 32 74  1  0
 32 75  1  0
 35 76  1  0
M  CHG  1  32   1
M  END
>  <OMEGA_C>  (107) 
0q0JQca08kCld5PBmvL0QO964UChYozB/QMDQSzOBEEAjpzBsdS7QMDl+0CWy5fBXdPJQPQzSz+P
oKzBPYKRQPHUKr+kuqXBIePSQEruz783H63BBZDIQLmO5kDRbI7B4tLZQEKbB0ESrZ7B2VChQI6U
Hz+J1afBJMXiQHvpqL5uKq/BvSeqQAk95b+8cqjBLvHaQGtgvD9oWZDBsWTnQANu1UAth1zBvyWb
QFX2DUF9enrBYhKFQGBf+UBq6YPBA4qtQBXjA0FoIGbBdn+2QAkiwUDAHXnBuDmlQKV01UAe54bB
uNvkQGgz8z5ocYfBvRO7QHTcAkEe+bDBlSPsQN8xIkHLoa3BMcuiQE4nIkG+oqXBJlWIQAEj6T/d
OaTBlpujQIWDj0DRi4/BX7CiQKrXJUBQ35vBRuGHQGCUbUDHQJfBOm/JQPSWE0FcmqjBtYjIQAkq
4kB2ImvB+rLlQDZD5EAdwUfBo2+wQF381z+cKpPBkqaLQCJ0tUBNbozBHBj4QJz+B0BQVZTBVZMC
QSNRvkCP+WHB6Cx0QIyAkkBarJ/B4QUFQTyjJ75kfrPBU9GaQK7cQcBldKbBx4kaQYJT7kCu65HB
4Gn/QHhN0EAHXIXB3sQOQQd9C0Fe76HBxziaQJKF/UBJxJnB2Z3VQK+g5D/NVq7Bng5lQHUbS7/y
CKLBsO7lQOFXH8AyI6/BbzG1QC8yFUHj7IHBT8WDQLVgGkGyHnbBUDZVQNWA60AKhX7B1r9wQADs
A0FqR4vBCRPBQKHeD0HMtl3BpvySQOic/UDDv1vBvjicQPfHsEBBu3DBkpLPQB7LqUA4Kn3BH7ID
QYfV+D6bvYXBARbTQIowQT8VL4DBPjzbQFrKCL+j+4nBVjSvQPUaC0G7KLjB22nWQM5M8UA8IrPB
eGWhQPLU8UAyla3B/NXeQABfKkHwrbTBlnn2QFUpLkEUuKfBdN4DQcBpGEFQELDB4ISXQN2VKkHT
06zBWLuIQM1BGEETZaLBRtOsQHfoLUHSlZ/BwMOBQAtPHkCdHqvBuNZTQHxfvz9jpaDBj7GqQIOz
d0Ald4jB1LrBQH7WmEAYdZPBmf++QKZSQUDa0J/B44tYQAuFUkCx95LB7ZX8QKAi3EAPVj3BqZXN
QCAk90B5HUPBOc+ZQO3RmT8CDo/BFa5nQFBtrEAAlofB7OF+QB3KwkANCJPBej9RQKjzgkCbh6TB
lpwJQcnK8EC2LZPBg1v0QPwz4UAp84vBU0MDQcKtA0HyZZzBtiq8QI4J/EBtjpfBhcDKQNR4Sz9N
fKzBvxmTQLQaLr8uc6XBTMvTQMzIz79TU63BcjrIQFuv50Di+43B8n3aQHoBB0ETjJ7Bub6iQDq+
HT/0cafB3mzjQENwpr55VK/B44SrQABB5r8ycKjBOzbdQEQwvD9+j5DB0HnsQPTr4EDtoGDBomea
QGVWD0GWPnnBP9WEQCha/UCH44PBJ6qnQLB6BEGWU2TB1qyyQIgkw0BzwnfBIf+jQL3b10DkiYbB
/7bnQH1t1z5+FojBEvy+QMKgAUE4I7HBmObsQLr7IUEyR63BLEOiQGptIEGgKabBpIeJQI6a5z++
vKPBMFijQDDjkUDvb4/Bi8WjQEWbJ0ALj5vBJDeIQGc9b0AmBZfBGZzKQPiiEkFnpqjBeYbDQEgq
5EBiN2nB+voAQbFDukAH3mDB03CyQKqt3z9PvJLBpc+KQNTot0BnV4zBiib6QPT39z9YCZbB8Ob/
QA9/AEHX8lrBwe5yQE9GkkBfip/BLxcFQaLSHL7a7rPB0WOcQBmpQsDPhKbB2GYaQcto60BEpJHB
d1n+QOtG0EDe14TBHjIPQW3PCUH716HB+6KaQADq/UC3mJnBFWLWQJ8l5T9NJ67BDsxoQPRvUL+B
oaHBma/mQFEBH8ALia/BVd22QNrdFUFopIDBSc2DQIRiHEENz3XBcfZQQM1x8EAylX/B8PJ1QJJ2
BkHHYovByyG5QAX2D0GHPlrB/fqKQLDL/UCmyVvBGUSXQIcfs0BfKHDBf+TLQGF+q0ACEnvBnykF
QUKZYT66H4jB9iDeQGclSz+9KYDBnz/WQPMHAr+o3onB9oizQMidCUETcLjBiXnbQNwD8EAFB7PB
a6ulQBdK7kA+/a3BIjDgQLDpKUF6drTBdCf1QHAfLkHxP6fBadoEQS/OGEGMZ6/Bi5mXQAKMKEFE
gK3Bm3yIQHUHFkGMLqPBKDiqQIVwLEHVC6DBafaBQAGlHECZpqrBmEhXQIT3uz8N+Z/BshWrQBi6
fUBeSojBSSHBQO6em0AtcpPB1Zq/QJe3Q0BtpJ/BJiJaQGZtU0DaoJLB71gQQUruuEAsdlzBa8Xy
QBihn0AXcmXB5jycQPFiqj/zCI7BmR9lQJGhrkBIqofBtWt+QK2GxUCH+ZLB+tpQQNzZgUCZT6TB
saEJQTcF80C1f5PB8N70QDdg4UDYeIzBc/MCQTglBUE/h5zBv7+7QBDQ+0Dq35fBa3zJQNraSj8x
pKzB11mRQB5+LL+Ft6XBEKbSQLr/z7/0NK3BFHnIQJhi5kCuhI7BI67ZQJ3MB0G0rp7BgBChQMRW
Hj9Nz6fB8nXiQFJyqL7YOK/BqfupQGDN5b93gajBaqraQOBguT8+WJDBGM3nQO/H2EDe31zBcCya
QDBODkHAXnvB846EQORA+UCGK4TBSJasQHzBBEFSyGbB3me2QGsfwkAqBnnB3R2lQEZy1UAd+IbB
LXvkQMM/5D7meIfBPODrQH5ZIkGera3BfdeiQLyWIkFce6XBVSW6QO9EA0Hz6LDBdhmIQINP6D+S
KKTB8amjQEkkj0BocI/Bj5WiQMpMJUAO0ZvB2PyHQAptbUD/OpfB1yPJQFjlE0Fwj6jBDx7IQN0H
5EDiY2vB47LnQMhX6kASoEjBmSuwQADT1j+dGZPBUaeLQN8ItUDnXIzBzOv3QB0oBkAwVpTBogAC
QaBGv0CAsGHBYIt1QEGckkCHrZ/Bv9cEQQoqI74fkrPB7KaaQAJFQsAclqbBjH4aQY2u7kBT9JHB
+1r/QA/wz0D8fIXBY7EOQdMTDEHt1aHBzyuaQGYi/UCW5JnBxi/VQMqY5D+4Wa7B/O1kQIB9Tb/h
+qHB0rLlQPpEH8D0Q6/BbiW0QN90FUGJbYLBj4aCQCOzGkEdVHfBNXxUQFx660Bk5X7Bxm1vQOZ4
A0E1nYvB0Ly/QNwEEUEfjl7BzQ+SQC9q/0BFX1zBhTacQGfwsUBkfnDB+q/PQEzPqkBLx3zBO4UD
QSGI5T4zzYXBi+HSQD8COj+aMIDBLpbaQH5xD79SB4rBkWjeQNiZKkEir7TBqLH2QJZBLkH2yafB
m5cDQYhyGEEKMbDBU26XQIYbK0FuoqzBw7+IQATGGEHvMaLBlketQHxELkEKcJ/BRiiuQLiYC0FU
D7jBvjPVQGzf8UAaJbPBKmigQFfe8kCdd63B7miBQBsCHkC3CKvBrn9TQLhWvj/4jaDBXXGqQCuy
dkDAXIjB3PLBQJZrmEAhR5PByfm+QGZdQECmxJ/BLy5YQOHVUkBvBJPBS2v+QHE44kCYHT7Be+fQ
QEgy/0CsdETBQXWZQHgOmj/B747BLSFoQFkLrEBLcofBaUZ+QFAHwkBg+JLBPLZSQG4/g0ADlaTB
ZI0JQZGR7kB3r5TBkSn1QDv03UBQYo3BC7sCQTQtBEFYPZ3BgMS7QJm0/0CoapfBWP7GQIopIz/3
bqzBKQiTQE8cT7/6gaPBjrPRQKdm47/kLazBlBbJQBiN50B+do7BG3rZQAqtCEHHsJ7B9rugQODl
8z6RlKbBI47fQEA9+r6fLq/B+E6rQDO/97/5ZKbBJercQOUEyj+JAJDBYK7yQM3I3kDMB2bBFDSd
QIHyC0F0yXXBS5GHQACA+kCSIIPB2EepQG67/EAaTWLBJIu2QCP0vEAOcXnBSzimQFnU1UD91IbB
JPHoQBx/DT9td4fB7wPYQLxaDUFyt7LB/M7gQE95LUFZpqbBxMyZQE1DG0HoK6jBlVOHQBt41z/z
OqPB+YKjQHrDkUD8apDBVT6iQJx3I0BVqZvBWjKHQCBQbUCUdpfBhPLKQPtjF0Fd56fBzcXGQD2s
2kA1MGnBpCECQWISA0FFJWHBxeixQDWY3j/cl5LBzPOLQHvqt0DeA43BdET5QMzwB0AnMpXBbQoF
QfZRv0D2nWbBKNhvQLXzj0AZK6DBOB4CQS7Oqr6HxrTBfaCdQALkSsCKo6PBaVoaQZR750C0tpPB
itz/QEe7yUCD6IbB7lkOQUCxCkHyvaLB3P2ZQIlmAkH5upjB0GLRQMjhzz8VzK7BFuBrQFLDbb+q
8Z7BDITkQOQcKcDgT67BZSW6QAMeE0E4yHzBIfaGQGm0GEHr9HDBobZVQBM77EBT/X7BMIF8QFPS
BkGiIorBjga5QCx9CEEmP1bBL0iMQA9h7kD8XlvBFe6bQHdgqkD0oHLB4GrQQAoYp0D6On7BiPkF
QXDz4j76L4fBgzzdQH2DZD8/QH/BnUvaQHxk1b51b4nBbqjNQEnYF0F/SrnB5f76QMx3C0EM/bLB
G7TIQJYy+0CwkbPBcJvWQAwTOEH8Ma3B9pnXQNuTNEE6757BYeEBQcF2K0EL7abBKtORQDzYJUEu
6q7B5iiJQLXgC0GOJqnBgKSPQG3NIkHfoqDB0Dl9QFs0EUDMWqrBsyhUQDvPrT9HFZ/BciatQDFh
fkB8V4nB+SvAQPJzm0CL6pTBAKC9QIqKPUAAIaDBYsdYQP3NU0AUvJLBCs0RQaNQBEGqKF7BAKfx
QHgTEEGImGDBQjicQFMUoz9lCY7B8W5mQAG1rkDwfYjB7xWBQNQDx0A/hpPBmiZMQDfyfUBAn6TB

>  <OMEGA_E>  (107) 
YH2BPjAiij4YXIE+KEmlPg==

>  <OMEGA_NBR>  (107) 
    143744

$$$$
50212893
     RDKit          3D

 72 74  0  0  1  0  0  0  0  0999 V2000
    8.5756    7.5494  -18.4443 C   0  0  0  0  0  0  0  0  0  0  0  0
    7.6358    7.0656  -17.5183 C   0  0  0  0  0  0  0  0  0  0  0  0
    8.1498    8.2385  -19.5939 C   0  0  0  0  0  0  0  0  0  0  0  0
    5.8368    7.9200  -18.9174 C   0  0  0  0  0  0  0  0  0  0  0  0
    6.3776    0.7849  -21.5656 C   0  0  0  0  0  0  0  0  0  0  0  0
    4.6151   -0.6833  -20.7231 C   0  0  0  0  0  0  0  0  0  0  0  0
    6.6773   -1.6336  -21.6133 C   0  0  0  0  0  0  0  0  0  0  0  0
    6.2506    7.2638  -17.7411 C   0  0  0  0  0  0  0  0  0  0  0  0
    6.7689    8.4552  -19.8306 C   0  0  0  0  0  0  0  0  0  0  0  0
    5.1030    0.6117  -20.9839 C   0  0  0  0  0  0  0  0  0  0  0  0
    7.1683   -0.3374  -21.8689 C   0  0  0  0  0  0  0  0  0  0  0  0
    5.3985   -1.8049  -21.0449 C   0  0  0  0  0  0  0  0  0  0  0  0
    6.8137    1.4913  -18.0168 C   0  0  0  0  0  0  0  0  0  0  0  0
    4.9722    8.8186  -15.3768 C   0  0  0  0  0  0  0  0  0  0  0  0
    4.2282    7.8590  -16.3190 C   0  0  0  0  0  0  0  0  0  0  0  0
    5.5172    8.0371  -14.1713 C   0  0  0  0  0  0  0  0  0  0  0  0
    5.7424    5.9963  -15.5410 C   0  0  0  0  0  0  0  0  0  0  0  0
    5.1671    6.7171  -16.7911 C   0  0  2  0  0  0  0  0  0  0  0  0
    7.1095    0.3911  -17.0012 C   0  0  0  0  0  0  0  0  0  0  0  0
    5.9168    8.0572  -22.1498 C   0  0  0  0  0  0  0  0  0  0  0  0
    7.3235   10.1059  -21.7138 C   0  0  0  0  0  0  0  0  0  0  0  0
    4.9912    9.9986  -20.8240 C   0  0  0  0  0  0  0  0  0  0  0  0
    4.2983    1.8122  -20.5574 C   0  0  0  0  0  0  0  0  0  0  0  0
    5.0498    4.5265  -17.9350 C   0  0  0  0  0  0  0  0  0  0  0  0
    5.0798    2.6062  -19.4951 C   0  0  1  0  0  0  0  0  0  0  0  0
    4.2163    3.7393  -18.9371 C   0  0  2  0  0  0  0  0  0  0  0  0
    6.2624    9.1476  -21.1110 C   0  0  0  0  0  0  0  0  0  0  0  0
    5.4922    1.7046  -18.3980 N   0  0  0  0  0  0  0  0  0  0  0  0
    4.3371    5.7554  -17.5432 N   0  0  0  0  0  0  0  0  0  0  0  0
    6.4038    6.9438  -14.6192 N   0  0  0  0  0  0  0  0  0  0  0  0
    7.7444    2.0619  -18.5761 O   0  0  0  0  0  0  0  0  0  0  0  0
    3.8132    4.5959  -20.0069 O   0  0  0  0  0  0  0  0  0  0  0  0
    8.4018   -0.1695  -22.3962 F   0  0  0  0  0  0  0  0  0  0  0  0
    4.9267   -3.0460  -20.7941 F   0  0  0  0  0  0  0  0  0  0  0  0
    9.6300    7.3912  -18.2723 H   0  0  0  0  0  0  0  0  0  0  0  0
    7.9701    6.5417  -16.6350 H   0  0  0  0  0  0  0  0  0  0  0  0
    8.8794    8.6050  -20.3009 H   0  0  0  0  0  0  0  0  0  0  0  0
    4.7812    8.0154  -19.1245 H   0  0  0  0  0  0  0  0  0  0  0  0
    6.7449    1.7782  -21.7774 H   0  0  0  0  0  0  0  0  0  0  0  0
    3.6405   -0.8145  -20.2765 H   0  0  0  0  0  0  0  0  0  0  0  0
    7.2811   -2.4963  -21.8531 H   0  0  0  0  0  0  0  0  0  0  0  0
    5.8076    9.2878  -15.9171 H   0  0  0  0  0  0  0  0  0  0  0  0
    4.2792    9.5973  -15.0255 H   0  0  0  0  0  0  0  0  0  0  0  0
    3.3695    7.4237  -15.7869 H   0  0  0  0  0  0  0  0  0  0  0  0
    3.8708    8.4186  -17.1960 H   0  0  0  0  0  0  0  0  0  0  0  0
    6.0852    8.7212  -13.5237 H   0  0  0  0  0  0  0  0  0  0  0  0
    4.6752    7.6113  -13.6058 H   0  0  0  0  0  0  0  0  0  0  0  0
    4.9203    5.4959  -15.0083 H   0  0  0  0  0  0  0  0  0  0  0  0
    6.4772    5.2462  -15.8687 H   0  0  0  0  0  0  0  0  0  0  0  0
    8.1977    0.2583  -16.9102 H   0  0  0  0  0  0  0  0  0  0  0  0
    6.6916    0.6729  -16.0234 H   0  0  0  0  0  0  0  0  0  0  0  0
    6.6522   -0.5510  -17.3377 H   0  0  0  0  0  0  0  0  0  0  0  0
    5.5526    8.5317  -23.0729 H   0  0  0  0  0  0  0  0  0  0  0  0
    6.8165    7.4648  -22.3726 H   0  0  0  0  0  0  0  0  0  0  0  0
    5.1353    7.3983  -21.7434 H   0  0  0  0  0  0  0  0  0  0  0  0
    6.9197   10.5759  -22.6227 H   0  0  0  0  0  0  0  0  0  0  0  0
    7.5737   10.8849  -20.9786 H   0  0  0  0  0  0  0  0  0  0  0  0
    8.2298    9.5364  -21.9674 H   0  0  0  0  0  0  0  0  0  0  0  0
    4.6536   10.4794  -21.7539 H   0  0  0  0  0  0  0  0  0  0  0  0
    4.1935    9.3470  -20.4378 H   0  0  0  0  0  0  0  0  0  0  0  0
    5.2278   10.7706  -20.0771 H   0  0  0  0  0  0  0  0  0  0  0  0
    4.1096    2.4552  -21.4298 H   0  0  0  0  0  0  0  0  0  0  0  0
    3.3396    1.4787  -20.1336 H   0  0  0  0  0  0  0  0  0  0  0  0
    5.2272    3.9080  -17.0429 H   0  0  0  0  0  0  0  0  0  0  0  0
    6.0134    4.7943  -18.3931 H   0  0  0  0  0  0  0  0  0  0  0  0
    5.9730    3.0412  -19.9673 H   0  0  0  0  0  0  0  0  0  0  0  0
    3.3397    3.3122  -18.4282 H   0  0  0  0  0  0  0  0  0  0  0  0
    4.7762    1.2173  -17.8981 H   0  0  0  0  0  0  0  0  0  0  0  0
    3.5578    5.4984  -16.9718 H   0  0  0  0  0  0  0  0  0  0  0  0
    7.1911    7.3451  -15.0873 H   0  0  0  0  0  0  0  0  0  0  0  0
    6.7162    6.4386  -13.8147 H   0  0  0  0  0  0  0  0  0  0  0  0
    3.2935    4.1018  -20.6301 H   0  0  0  0  0  0  0  0  0  0  0  0
  1  2  2  0
  1  3  1  0
  2  8  1  0
  3  9  2  0
  4  8  2  0
  4  9  1  0
  5 10  2  0
  5 11  1  0
  6 10  1  0
  6 12  2  0
  7 11  2  0
  7 12  1  0
  8 18  1  0
  9 27  1  0
 10 23  1  0
 11 33  1  0
 12 34  1  0
 13 19  1  0
 13 28  1  0
 13 31  2  0
 14 15  1  0
 14 16  1  0
 15 18  1  0
 16 30  1  0
 17 18  1  0
 17 30  1  0
 18 29  1  6
 20 27  1  0
 21 27  1  0
 22 27  1  0
 23 25  1  0
 24 26  1  0
 24 29  1  0
 25 26  1  0
 25 28  1  0
 26 32  1  0
  1 35  1  0
  2 36  1  0
  3 37  1  0
  4 38  1  0
  5 39  1  0
  6 40  1  0
  7 41  1  0
 14 42  1  0
 14 43  1  0
 15 44  1  0
 15 45  1  0
 16 46  1  0
 16 47  1  0
 17 48  1  0
 17 49  1  0
 19 50  1  0
 19 51  1  0
 19 52  1  0
 20 53  1  0
 20 54  1  0
 20 55  1  0
 21 56  1  0
 21 57  1  0
 21 58  1  0
 22 59  1  0
 22 60  1  0
 22 61  1  0
 23 62  1  0
 23 63  1  0
 24 64  1  0
 24 65  1  0
 25 66  1  6
 26 67  1  1
 28 68  1  0
 29 69  1  0
 30 70  1  0
 30 71  1  0
 32 72  1  0
M  CHG  1  30   1
M  END
>  <OMEGA_C>  (108) 
ojUJQaqU8UDjjZPB2Fj0QIYZ4kB6JYzBj2UCQQHRA0FcwJzBNse6QLxw/UDCVpfBshXMQMnsSD9k
hqzBpK6TQPnvLr/byKXBbKzVQCMZ0b8S6KzBQAXIQC1x6EC27Y3B8prYQJxIB0EfpZ7BikujQC2Y
HD/z3qfBFGPlQLq5rL52867B2sCsQKEF57/tW6jBlgnaQKrivj9/IpDB/BufQOMYDUF/B3bBQk2H
QJh8+0BfjYLBlIywQAqYAEGxvWLBXMG3QGDhv0DOp3jBfFilQMfy1kA7VIbBYoHjQCw/yD5oAojB
Vla9QDjqAEHVMrHBclrqQPSxIUHjta3BlLefQBb6H0GGl6bBuouJQKX35z+ddaTB8pehQD7ZkEDu
eo/BVI2iQE7LJkD49ZvBAOyGQFhRb0A8f5fBqmXIQKFcEkE646jBdsCvQC4x2j8KL5PBWsmKQJAs
uECTWIzBsOvMQAM03kAh6GnBbtL3QLj1A0Drm5TBRgt0QEoRk0ARDqDB020GQfWSLb5YK7PBaKed
QP3wQsBTWqbBhxQaQQOF7ECbLZLB3wr/QFBV0UCLFIXB7xEOQemtCUFGaKLBSv+YQPA+AEHz/pjB
B9bXQHab4z8rOK7Bt/1oQNKAUL9YNqLB5/7oQGzDH8A3067B8te5QL2aFEFnrH7Bh++IQI6OGUFu
aHDBEqVXQFKP7UAbl3zBG7t3QI6yBkFrkYnBVbrCQO+JC0FAYVjBkJuVQMaP80AysVnBxHKdQCne
r0DeIXDB8ETPQKLgp0A+5n3BzSkDQUZFhD4USIfB+yHWQIdALD/+L4DB3d7UQPUPDb+Ms4rBs66x
QAuCCEFdlbjBxSDaQLjf7kAD+7LBW1SkQOS+7ECP8q3BK27dQOs2KUFB+7TBCVzyQKwoLkEa1KfB
Xa0DQTOVGEExva/BDOqUQMyrJ0EJCK7BzzCGQGaNFUGFgKPBOEqnQItULEHXnaDBHIKDQKQiHUAl
cKvBPLxVQNVGvT+DEaHBREWnQOsbekDWV4jBmm3AQB9rmUD5JJPBiCK/QGuiQkD3vJ/B4bxVQB77
U0DobJPB+9aYQCTQmz9bL4/By7JjQIDyr0AlxofBbB3mQMkK60CcZXHB8urWQBoJzkAdCV3Bf8lS
QAhCg0BmCqXBUTkJQYke8kAnjpPBxXr0QOdf4kBhJozBk1UCQUD3A0FBx5zBJ7u6QETk/EBaaJfB
wirMQKdzSj9akKzB7f2TQJUWLr/ZvaXBodjVQM1I0L8p+KzB7BrIQJs76ECh9o3BiGfYQBYaB0F3
t57BgnujQCuoHT8+3KfBznblQIwJqb6YBq/BnQStQOd45r/hX6jB2K/ZQPAMvj+ZFJDB0i+fQH0a
DUFbDXbBkICHQICL+0AQl4LByjiwQKGRAEGQtWLBi/G3QIjkv0CVonjB/H2lQPDk1kCvU4bBXr3i
QP7i0D6EuofBHlDqQOh8IEF7PK7BJ9CgQLfJIEEhVKbBhM+5QCm9AEEz+LDBUaqJQKZx6D9yeKTB
PSihQKWJkEAmVY/Br4eiQPH7JkBv8pvBNtSGQEeSb0AIhJfBVMjHQHcrEkG166jBEXqvQLqO2j8y
JpPB9LuKQHcuuEA/T4zBhtHMQDRK3kAB0GnBha73QA0pAkCco5TBDDl1QMGFk0AIE6DBlGgGQc/8
I748TrPBN+WdQEW8QsBYa6bBgR0aQTBy7UAyKJLBr0r/QBvK0UByEYXB0vcNQcH7CUH7aaLB9+6Y
QBSH/0B5FpnBS9jXQDpx5D/eRK7BuOBpQJP9T7+sGaLBYCvpQF9LH8A76q7Bnxq6QGGNFEG+mn7B
GweJQDWcGUGMhXDBIsdXQNy07UARvXzBuot4QHm8BkGrn4nBXx/CQHd+C0ELNVjBdR2VQJ1h80C0
1VnBKLGdQC6rr0BXK3DBUafPQBISqEBG3X3Bs8ECQZ2LiT6L8IbB0FLVQMSuNz8p9X/BoOXTQFHb
Cb/7PorBZvPcQDIBKEFHdbXB7WL0QKj8LEFkk6jBsgwDQR6gFkFUcbDBHoOVQEKBKEE+t63Bb+KG
QGoQF0Fa5aLBMX+qQGIgLUEAiqDBJtatQM1dCEFDULjBzFvVQN0A7UDW67LBokugQF7g7UCKZq3B
lbuDQAtmHUDUc6vBgN9VQO6yvT9mHKHB8d2lQBE7eUCDLIjBNnPAQNiimEAN0ZLB1DW/QB/BQkCh
r5/BSORUQOxKVEBdlZPBIW2YQJ8LnT/RJY/BzkFjQD1fsEDav4fBxwnmQDBA60B4OnHBtb7WQLUk
zkDM61zBCGxUQJjzg0A+J6XB

>  <OMEGA_E>  (108) 
eJY3PvhRQD4=

>  <OMEGA_NBR>  (108) 
    146350

$$$$
50212892
     RDKit          3D

 88 91  0  0  1  0  0  0  0  0999 V2000
   11.7917    8.3277  -15.6959 C   0  0  0  0  0  0  0  0  0  0  0  0
   11.2501    7.2565  -16.4295 C   0  0  0  0  0  0  0  0  0  0  0  0
   11.5438    8.4268  -14.3128 C   0  0  0  0  0  0  0  0  0  0  0  0
    8.5461    7.4473  -18.5243 C   0  0  0  0  0  0  0  0  0  0  0  0
    7.6035    6.9890  -17.5886 C   0  0  0  0  0  0  0  0  0  0  0  0
   10.4420    6.2933  -15.7884 C   0  0  0  0  0  0  0  0  0  0  0  0
   10.7489    7.4587  -13.6657 C   0  0  0  0  0  0  0  0  0  0  0  0
    8.1478    8.2099  -19.6278 C   0  0  0  0  0  0  0  0  0  0  0  0
    5.8334    7.9627  -18.9339 C   0  0  0  0  0  0  0  0  0  0  0  0
    6.3529    0.7809  -21.5496 C   0  0  0  0  0  0  0  0  0  0  0  0
    4.5716   -0.6684  -20.7127 C   0  0  0  0  0  0  0  0  0  0  0  0
    6.6021   -1.6410  -21.6484 C   0  0  0  0  0  0  0  0  0  0  0  0
    6.2300    7.2538  -17.7791 C   0  0  0  0  0  0  0  0  0  0  0  0
   10.1974    6.3854  -14.4000 C   0  0  0  0  0  0  0  0  0  0  0  0
    6.7809    8.4981  -19.8346 C   0  0  0  0  0  0  0  0  0  0  0  0
    5.0846    0.6200  -20.9523 C   0  0  0  0  0  0  0  0  0  0  0  0
    7.1162   -0.3500  -21.8853 C   0  0  0  0  0  0  0  0  0  0  0  0
    5.3267   -1.7981  -21.0678 C   0  0  0  0  0  0  0  0  0  0  0  0
    6.8665    1.4083  -18.0755 C   0  0  0  0  0  0  0  0  0  0  0  0
    7.3063    6.5792  -13.7885 C   0  0  0  0  0  0  0  0  0  0  0  0
    4.9281    8.8682  -15.5027 C   0  0  0  0  0  0  0  0  0  0  0  0
    4.1873    7.8641  -16.3953 C   0  0  0  0  0  0  0  0  0  0  0  0
    5.4229    8.1624  -14.2363 C   0  0  0  0  0  0  0  0  0  0  0  0
    5.6606    6.0128  -15.5473 C   0  0  0  0  0  0  0  0  0  0  0  0
    5.1390    6.7192  -16.8247 C   0  0  2  0  0  0  0  0  0  0  0  0
    7.1681    0.3796  -16.9880 C   0  0  0  0  0  0  0  0  0  0  0  0
    7.4191   10.1360  -21.7031 C   0  0  0  0  0  0  0  0  0  0  0  0
    5.1003   10.1677  -20.7686 C   0  0  0  0  0  0  0  0  0  0  0  0
    5.8794    8.1846  -22.1364 C   0  0  0  0  0  0  0  0  0  0  0  0
    4.3050    1.8231  -20.5050 C   0  0  0  0  0  0  0  0  0  0  0  0
    9.3494    5.3337  -13.6967 C   0  0  0  0  0  0  0  0  0  0  0  0
    5.0871    4.5391  -17.9406 C   0  0  0  0  0  0  0  0  0  0  0  0
    5.1106    2.6104  -19.4556 C   0  0  1  0  0  0  0  0  0  0  0  0
    4.2468    3.7323  -18.8988 C   0  0  2  0  0  0  0  0  0  0  0  0
    6.3053    9.2411  -21.0927 C   0  0  0  0  0  0  0  0  0  0  0  0
    6.2291    6.9703  -14.5842 N   0  0  0  0  0  0  0  0  0  0  0  0
    5.5382    1.7193  -18.3543 N   0  0  0  0  0  0  0  0  0  0  0  0
    4.3350    5.7392  -17.5553 N   0  0  0  0  0  0  0  0  0  0  0  0
    7.7928    1.9962  -18.6240 O   0  0  0  0  0  0  0  0  0  0  0  0
    7.5738    7.2340  -12.7852 O   0  0  0  0  0  0  0  0  0  0  0  0
    3.8115    4.5768  -19.9647 O   0  0  0  0  0  0  0  0  0  0  0  0
    7.9713    5.4251  -14.1216 O   0  0  0  0  0  0  0  0  0  0  0  0
    8.3453   -0.1954  -22.4264 F   0  0  0  0  0  0  0  0  0  0  0  0
    4.8301   -3.0333  -20.8377 F   0  0  0  0  0  0  0  0  0  0  0  0
   12.3962    9.0726  -16.1920 H   0  0  0  0  0  0  0  0  0  0  0  0
   11.4534    7.1709  -17.4867 H   0  0  0  0  0  0  0  0  0  0  0  0
   11.9633    9.2457  -13.7472 H   0  0  0  0  0  0  0  0  0  0  0  0
    9.5907    7.2080  -18.3901 H   0  0  0  0  0  0  0  0  0  0  0  0
    7.9302    6.4332  -16.7222 H   0  0  0  0  0  0  0  0  0  0  0  0
   10.0101    5.4849  -16.3598 H   0  0  0  0  0  0  0  0  0  0  0  0
   10.5612    7.5380  -12.6051 H   0  0  0  0  0  0  0  0  0  0  0  0
    8.8874    8.5788  -20.3230 H   0  0  0  0  0  0  0  0  0  0  0  0
    4.7808    8.0988  -19.1335 H   0  0  0  0  0  0  0  0  0  0  0  0
    6.7359    1.7710  -21.7483 H   0  0  0  0  0  0  0  0  0  0  0  0
    3.5998   -0.7882  -20.2569 H   0  0  0  0  0  0  0  0  0  0  0  0
    7.1856   -2.5108  -21.9118 H   0  0  0  0  0  0  0  0  0  0  0  0
    5.7876    9.2811  -16.0512 H   0  0  0  0  0  0  0  0  0  0  0  0
    4.2448    9.6839  -15.2240 H   0  0  0  0  0  0  0  0  0  0  0  0
    3.3389    7.4405  -15.8379 H   0  0  0  0  0  0  0  0  0  0  0  0
    3.8152    8.3816  -17.2918 H   0  0  0  0  0  0  0  0  0  0  0  0
    6.0420    8.8595  -13.6525 H   0  0  0  0  0  0  0  0  0  0  0  0
    4.5565    7.8497  -13.6349 H   0  0  0  0  0  0  0  0  0  0  0  0
    4.8252    5.4806  -15.0689 H   0  0  0  0  0  0  0  0  0  0  0  0
    6.4397    5.2908  -15.8331 H   0  0  0  0  0  0  0  0  0  0  0  0
    8.2560    0.3082  -16.8417 H   0  0  0  0  0  0  0  0  0  0  0  0
    6.6913    0.6906  -16.0468 H   0  0  0  0  0  0  0  0  0  0  0  0
    6.7740   -0.6014  -17.2920 H   0  0  0  0  0  0  0  0  0  0  0  0
    7.0318   10.6450  -22.5981 H   0  0  0  0  0  0  0  0  0  0  0  0
    7.7339   10.8858  -20.9624 H   0  0  0  0  0  0  0  0  0  0  0  0
    8.2805    9.5109  -21.9809 H   0  0  0  0  0  0  0  0  0  0  0  0
    4.7797   10.6869  -21.6839 H   0  0  0  0  0  0  0  0  0  0  0  0
    4.2677    9.5635  -20.3792 H   0  0  0  0  0  0  0  0  0  0  0  0
    5.4005   10.9086  -20.0130 H   0  0  0  0  0  0  0  0  0  0  0  0
    5.5334    8.6898  -23.0502 H   0  0  0  0  0  0  0  0  0  0  0  0
    6.7376    7.5399  -22.3767 H   0  0  0  0  0  0  0  0  0  0  0  0
    5.0639    7.5714  -21.7255 H   0  0  0  0  0  0  0  0  0  0  0  0
    4.1045    2.4704  -21.3715 H   0  0  0  0  0  0  0  0  0  0  0  0
    3.3521    1.4964  -20.0631 H   0  0  0  0  0  0  0  0  0  0  0  0
    9.7375    4.3338  -13.9408 H   0  0  0  0  0  0  0  0  0  0  0  0
    9.4040    5.4929  -12.6096 H   0  0  0  0  0  0  0  0  0  0  0  0
    5.3097    3.9382  -17.0465 H   0  0  0  0  0  0  0  0  0  0  0  0
    6.0281    4.8322  -18.4290 H   0  0  0  0  0  0  0  0  0  0  0  0
    5.9956    3.0466  -19.9420 H   0  0  0  0  0  0  0  0  0  0  0  0
    3.3866    3.3023  -18.3648 H   0  0  0  0  0  0  0  0  0  0  0  0
    4.8300    1.3157  -17.7750 H   0  0  0  0  0  0  0  0  0  0  0  0
    3.5698    5.4609  -16.9747 H   0  0  0  0  0  0  0  0  0  0  0  0
    3.9835    6.1729  -18.3849 H   0  0  0  0  0  0  0  0  0  0  0  0
    3.2815    4.0736  -20.5717 H   0  0  0  0  0  0  0  0  0  0  0  0
  1  2  2  0
  1  3  1  0
  2  6  1  0
  3  7  2  0
  4  5  2  0
  4  8  1  0
  5 13  1  0
  6 14  2  0
  7 14  1  0
  8 15  2  0
  9 13  2  0
  9 15  1  0
 10 16  2  0
 10 17  1  0
 11 16  1  0
 11 18  2  0
 12 17  2  0
 12 18  1  0
 13 25  1  0
 14 31  1  0
 15 35  1  0
 16 30  1  0
 17 43  1  0
 18 44  1  0
 19 26  1  0
 19 37  1  0
 19 39  2  0
 20 36  1  0
 20 40  2  0
 20 42  1  0
 21 22  1  0
 21 23  1  0
 22 25  1  0
 23 36  1  0
 24 25  1  0
 24 36  1  0
 25 38  1  6
 27 35  1  0
 28 35  1  0
 29 35  1  0
 30 33  1  0
 31 42  1  0
 32 34  1  0
 32 38  1  0
 33 34  1  0
 33 37  1  0
 34 41  1  0
  1 45  1  0
  2 46  1  0
  3 47  1  0
  4 48  1  0
  5 49  1  0
  6 50  1  0
  7 51  1  0
  8 52  1  0
  9 53  1  0
 10 54  1  0
 11 55  1  0
 12 56  1  0
 21 57  1  0
 21 58  1  0
 22 59  1  0
 22 60  1  0
 23 61  1  0
 23 62  1  0
 24 63  1  0
 24 64  1  0
 26 65  1  0
 26 66  1  0
 26 67  1  0
 27 68  1  0
 27 69  1  0
 27 70  1  0
 28 71  1  0
 28 72  1  0
 28 73  1  0
 29 74  1  0
 29 75  1  0
 29 76  1  0
 30 77  1  0
 30 78  1  0
 31 79  1  0
 31 80  1  0
 32 81  1  0
 32 82  1  0
 33 83  1  6
 34 84  1  1
 37 85  1  0
 38 86  1  0
 38 87  1  0
 41 88  1  0
M  CHG  1  38   1
M  END
>  <OMEGA_C>  (109) 
oqo8QW0+BUE3InvBXgA0QUg16ECXb4PBYLM4QTzUBkFYAWXB6bwIQQtQ7kC3MZTBpE/zQB6m30Bz
tYzBWBInQYFiyUBtnXzBovsrQdit7kDGplrBkF0CQZZbA0HOBZ3BZKu6QF3O/kCueJfBwkrLQAHs
Rz+rZazBb0qSQHUfK7+Is6XBNUTTQNQN0r/UL63BFlzHQIof6ECHO47BWygjQVlVzEB0ZmbB/vzY
QCn4B0E8rZ7B0bSiQM+1Hj9cnqfBDLjjQD00s74kFa/BH3SqQLYm5r/OiqjBDLrbQOBDtD+UmpDB
l83pQPiI0kCgnVzBHbOdQBbkDUEMC3jBWf6FQKOm+0ClKYPBYoitQBmZAkG5x2PBjiO1QNFowEDd
wXjBGHOkQIQD10DrmIbB3WDlQM5Wwj5z54fBG2ntQC8tIkEEoK3BxjWjQO2uIkEpJqbB2CO8QAX0
AkFwF7HBfsKJQFxb6T84CqTBH5cVQYOtqkCiJVvBNsmiQPM/kUBHho/BOIqjQHgQJ0AEpZvB4OWH
QNXdbkDPMJfBbcXJQG7bE0HzvajBilTHQGEM30DmWGnBWDmxQNAQ3D+s1ZLBs7iKQEqnt0AucYzB
eF75QOaD/z/k/ZTBl1zyQMJ850A2kEzB+O9zQNx0kkCxt5/BORX/QEWarUAz8mHBJYYFQfQdSL45
abPBjpCaQHQhQsCjs6bBwlZGQUcpEUE8iYHBGUE3QVN45UDP5IvBnmk/QTTuE0GQ9FvBknMZQUqo
5kABH5PBVMT9QAHdzUD5xoXBhikgQWSEr0Dg4ILBefooQUM38UCYrknB+TIOQeRCCUF/laLBIfyY
QLSUAUFTEZnBq4zXQB6w4j+I/K3BjGNmQIvFSb8QDqLBxPDlQPiwIMBGS6/BuDO5QFZ/FEHdaIDB
gtWHQEzxGkFdlXPBrrBVQE0Y7kDhZ33BUCx0QCkbBkGpVYrBUljBQG3ADUHTcFrB5c6RQBUx+0CX
KFrB7GeaQD1hr0A+GnHB6hHOQOFNqUBqVH3BZhgEQcLGnT7Eu4bB5R7WQK3NMD/VX4DBNMTYQDX0
Gb/+VYrBmQThQBZSKkHfyLTB1Xv3QFksLkH0sqfB7XwEQaUsGEHu2K/Bk/OYQFf9KkGheK3B3ZCI
QCAEGUGTCKPB+tCsQKiJLkGrGqDBRxGxQI8JC0HaZrjBwprXQING8UB3A7PBFguiQLZI8kC8za3B
XViDQBIbHkDO+KrBoYhWQNyJvz9KgaDB/cwbQXOuikBTDV/BnHYWQdbFr0AWwUnBNempQGkLfEAw
X4jB5+XAQFmhmkCgbpPB19u/QLn6QkAuiZ/Btb5YQJtYU0AY65LBoY+aQBpqqD9BM47BanhkQPS/
rkAuzIfBnfF+QEWIxUBJFJPBqARSQBNbgkDXkqTBi0JHQYfs9ECU/m/BjDVCQYdgzEArhHjBBwM7
QbXzAkEsDl/B3oEJQSMz80D4tJLBQBX0QDpb40DDjYvBWwExQSyqtEC1AXDBzOgpQVgX7kDYa1bB
6S8DQTOGBEFpCJzBG967QOhB/UAmW5fBVB7FQP8sSj/QKK3Bg56VQBoSSr/sIqTBYGrTQF8czb/5
Ia7BdOzHQGS46ED5y43BqAUlQaYcxUCzr17BMWfaQJ+oB0HUUZ7BfMSgQOb5CD8yyqbBm4XeQAQK
jr4exrDB8tiuQF7F7b/42qfBv27eQANoxT9zdZDBoEvnQBnO1kDm91vBf9yZQBV+DkFgV3jB3D+E
QGoG/EDkd4PBH02pQCaIA0GL1GPBZrezQAH8wUBYO3jBuuqjQNmo10CnfIbB+u/qQNRnCT8+0ofB
K53MQFhoAkEd2LHBwYjpQPr5JUFfe6vBo5ydQCEfHEF8tafBOZqGQJ+c1z93laLBG8ISQcb8qkCY
ZVXBTKSjQHJvkkCpzI/BKGKiQDijJECYTJvBxKWHQG5jbkAs95bBZ8XLQNjrEkEbq6jBZ7vEQM7I
4UA6BWnB7S6zQOWG4j8sU5LB1+SKQNABuED4eIzB3Sb6QH7JAEAVTZbBjizuQCFp7EAI8EvBSwtx
QCm4kEDspp/BZFL+QAq2skA9IGHBxb0AQaw96bxs0LbB/hSkQC42SMBHWaXBr4JUQYJ8A0FdcXbB
x4VLQZt7v0BxyILB6Ls+QcyUEkGZsVjBf00aQSeU7kAbCZHB+Pr9QOgV00AOWITBbPosQSDflUA6
vXbBnYUgQQsr+0ByeEnBBSsPQSyOCkHbeqHBjFqaQBQ6/0BQaJnBQmvNQFYE5z/LQa/Bw41zQKXa
e7+OQp/B+u3mQCIRG8BP67DBnF61QCmZFUFRW4DBvciCQO0hG0GAPHTBNy5RQCQk7kArjX7B5qdy
QCgFBkFO0IrBtsy7QFUJD0EAP1rBGGqNQIYh/ED1lVrBKtKYQCT1sEAYuHDBHSXNQHoAq0AwPXzB
3dcGQVutuj5wGIjBzRDiQHPwbj9I1n/BPhDaQBdC077nOInBmkTCQGgcCkFhUrnBx1XtQMdv+EAh
0bLB69e2QDE76kAf76/BoUbeQK+nLUEW4rLBHg3pQFOvMUGr6aTBxTEFQQYaIEGJpKzBGKuUQLH3
I0EcQ6/BFhKHQMoHD0ErBqbBz3ycQD7dJ0H0KKHBOVF1QBkYEkCFVqnBp7xWQKV+pT+5+J3Bk80W
QevIiECMXlbBfmYQQSEItEBNjUTB70utQJHJf0AsuIjBLFLAQPiznECHNZTBjhu9QAijPkDqA6DB
Dm5ZQOuqVEDGTJLBdRmeQP2Brj+5Qo3BvXtlQFoirkBV14fBhE5+QDAmxkBtBZPBjdlNQFCYf0BH
LqTB

>  <OMEGA_E>  (109) 
SATTPuzr4j4=

>  <OMEGA_NBR>  (109) 
    149407

$$$$
50212898
     RDKit          3D

 72 74  0  0  1  0  0  0  0  0999 V2000
    8.5800    7.5556  -18.5020 C   0  0  0  0  0  0  0  0  0  0  0  0
    7.6546    7.0384  -17.5802 C   0  0  0  0  0  0  0  0  0  0  0  0
    8.1378    8.2518  -19.6394 C   0  0  0  0  0  0  0  0  0  0  0  0
    5.8354    7.8829  -18.9534 C   0  0  0  0  0  0  0  0  0  0  0  0
    4.6127   -0.6638  -20.7437 C   0  0  0  0  0  0  0  0  0  0  0  0
    6.3840    0.8103  -21.5567 C   0  0  0  0  0  0  0  0  0  0  0  0
    6.6814   -1.6082  -21.6265 C   0  0  0  0  0  0  0  0  0  0  0  0
    6.2662    7.2359  -17.7719 C   0  0  0  0  0  0  0  0  0  0  0  0
    6.7529    8.4361  -19.8738 C   0  0  0  0  0  0  0  0  0  0  0  0
    5.1057    0.6340  -20.9827 C   0  0  0  0  0  0  0  0  0  0  0  0
    5.3971   -1.7834  -21.0722 C   0  0  0  0  0  0  0  0  0  0  0  0
    7.1754   -0.3102  -21.8663 C   0  0  0  0  0  0  0  0  0  0  0  0
    6.7942    1.4888  -18.0026 C   0  0  0  0  0  0  0  0  0  0  0  0
    4.8986    8.8143  -15.3937 C   0  0  0  0  0  0  0  0  0  0  0  0
    4.2269    7.8531  -16.3780 C   0  0  0  0  0  0  0  0  0  0  0  0
    5.2743    8.0380  -14.1213 C   0  0  0  0  0  0  0  0  0  0  0  0
    5.7352    5.9941  -15.4928 C   0  0  0  0  0  0  0  0  0  0  0  0
    5.1939    6.7067  -16.7875 C   0  0  2  0  0  0  0  0  0  0  0  0
    7.0691    0.4154  -16.9541 C   0  0  0  0  0  0  0  0  0  0  0  0
    5.8552    8.0357  -22.1810 C   0  0  0  0  0  0  0  0  0  0  0  0
    7.2963   10.0657  -21.7833 C   0  0  0  0  0  0  0  0  0  0  0  0
    4.9791    9.9960  -20.8494 C   0  0  0  0  0  0  0  0  0  0  0  0
    4.2997    1.8329  -20.5478 C   0  0  0  0  0  0  0  0  0  0  0  0
    5.0750    4.5294  -17.9223 C   0  0  0  0  0  0  0  0  0  0  0  0
    5.0821    2.6249  -19.4819 C   0  0  1  0  0  0  0  0  0  0  0  0
    4.2335    3.7645  -18.9303 C   0  0  2  0  0  0  0  0  0  0  0  0
    6.2327    9.1263  -21.1528 C   0  0  0  0  0  0  0  0  0  0  0  0
    6.2123    6.9287  -14.4282 N   0  0  0  0  0  0  0  0  0  0  0  0
    5.4761    1.7316  -18.3739 N   0  0  0  0  0  0  0  0  0  0  0  0
    4.3587    5.7414  -17.5190 N   0  0  0  0  0  0  0  0  0  0  0  0
    7.3899    7.2909  -14.5448 O   0  0  0  0  0  0  0  0  0  0  0  0
    7.7341    1.9958  -18.6061 O   0  0  0  0  0  0  0  0  0  0  0  0
    3.8600    4.6357  -19.9982 O   0  0  0  0  0  0  0  0  0  0  0  0
    4.9213   -3.0268  -20.8404 F   0  0  0  0  0  0  0  0  0  0  0  0
    8.4133   -0.1395  -22.3823 F   0  0  0  0  0  0  0  0  0  0  0  0
    9.6380    7.4173  -18.3352 H   0  0  0  0  0  0  0  0  0  0  0  0
    8.0046    6.4868  -16.7202 H   0  0  0  0  0  0  0  0  0  0  0  0
    8.8581    8.6488  -20.3394 H   0  0  0  0  0  0  0  0  0  0  0  0
    4.7773    7.9560  -19.1572 H   0  0  0  0  0  0  0  0  0  0  0  0
    3.6334   -0.7985  -20.3086 H   0  0  0  0  0  0  0  0  0  0  0  0
    6.7535    1.8050  -21.7577 H   0  0  0  0  0  0  0  0  0  0  0  0
    7.2872   -2.4692  -21.8675 H   0  0  0  0  0  0  0  0  0  0  0  0
    5.8058    9.2368  -15.8504 H   0  0  0  0  0  0  0  0  0  0  0  0
    4.2036    9.6278  -15.1387 H   0  0  0  0  0  0  0  0  0  0  0  0
    3.3346    7.4185  -15.9036 H   0  0  0  0  0  0  0  0  0  0  0  0
    3.9288    8.4107  -17.2781 H   0  0  0  0  0  0  0  0  0  0  0  0
    5.7528    8.7261  -13.4089 H   0  0  0  0  0  0  0  0  0  0  0  0
    4.3607    7.6217  -13.6718 H   0  0  0  0  0  0  0  0  0  0  0  0
    4.9246    5.3800  -15.0736 H   0  0  0  0  0  0  0  0  0  0  0  0
    6.5747    5.3451  -15.7825 H   0  0  0  0  0  0  0  0  0  0  0  0
    8.1525    0.2378  -16.8857 H   0  0  0  0  0  0  0  0  0  0  0  0
    6.6903    0.7514  -15.9776 H   0  0  0  0  0  0  0  0  0  0  0  0
    6.5623   -0.5173  -17.2429 H   0  0  0  0  0  0  0  0  0  0  0  0
    5.4818    8.5111  -23.1001 H   0  0  0  0  0  0  0  0  0  0  0  0
    6.7431    7.4304  -22.4161 H   0  0  0  0  0  0  0  0  0  0  0  0
    5.0719    7.3891  -21.7586 H   0  0  0  0  0  0  0  0  0  0  0  0
    6.8823   10.5336  -22.6887 H   0  0  0  0  0  0  0  0  0  0  0  0
    7.5702   10.8473  -21.0593 H   0  0  0  0  0  0  0  0  0  0  0  0
    8.1901    9.4819  -22.0483 H   0  0  0  0  0  0  0  0  0  0  0  0
    4.6311   10.4746  -21.7767 H   0  0  0  0  0  0  0  0  0  0  0  0
    4.1799    9.3583  -20.4438 H   0  0  0  0  0  0  0  0  0  0  0  0
    5.2397   10.7704  -20.1129 H   0  0  0  0  0  0  0  0  0  0  0  0
    4.1083    2.4797  -21.4167 H   0  0  0  0  0  0  0  0  0  0  0  0
    3.3424    1.4958  -20.1237 H   0  0  0  0  0  0  0  0  0  0  0  0
    5.2563    3.8982  -17.0399 H   0  0  0  0  0  0  0  0  0  0  0  0
    6.0367    4.8053  -18.3796 H   0  0  0  0  0  0  0  0  0  0  0  0
    5.9833    3.0476  -19.9499 H   0  0  0  0  0  0  0  0  0  0  0  0
    3.3443    3.3523  -18.4310 H   0  0  0  0  0  0  0  0  0  0  0  0
    4.7512    1.2735  -17.8594 H   0  0  0  0  0  0  0  0  0  0  0  0
    3.5948    5.4756  -16.9308 H   0  0  0  0  0  0  0  0  0  0  0  0
    4.0064    6.1883  -18.3413 H   0  0  0  0  0  0  0  0  0  0  0  0
    3.3339    4.1575  -20.6283 H   0  0  0  0  0  0  0  0  0  0  0  0
  1  2  2  0
  1  3  1  0
  2  8  1  0
  3  9  2  0
  4  8  2  0
  4  9  1  0
  5 10  2  0
  5 11  1  0
  6 10  1  0
  6 12  2  0
  7 11  2  0
  7 12  1  0
  8 18  1  0
  9 27  1  0
 10 23  1  0
 11 34  1  0
 12 35  1  0
 13 19  1  0
 13 29  1  0
 13 32  2  0
 14 15  1  0
 14 16  1  0
 15 18  1  0
 16 28  1  0
 17 18  1  0
 17 28  1  0
 18 30  1  6
 20 27  1  0
 21 27  1  0
 22 27  1  0
 23 25  1  0
 24 26  1  0
 24 30  1  0
 25 26  1  0
 25 29  1  0
 26 33  1  0
 28 31  1  0
  1 36  1  0
  2 37  1  0
  3 38  1  0
  4 39  1  0
  5 40  1  0
  6 41  1  0
  7 42  1  0
 14 43  1  0
 14 44  1  0
 15 45  1  0
 15 46  1  0
 16 47  1  0
 16 48  1  0
 17 49  1  0
 17 50  1  0
 19 51  1  0
 19 52  1  0
 19 53  1  0
 20 54  1  0
 20 55  1  0
 20 56  1  0
 21 57  1  0
 21 58  1  0
 21 59  1  0
 22 60  1  0
 22 61  1  0
 22 62  1  0
 23 63  1  0
 23 64  1  0
 24 65  1  0
 24 66  1  0
 25 67  1  6
 26 68  1  1
 29 69  1  0
 30 70  1  0
 30 71  1  0
 33 72  1  0
M  CHG  2  30   1  31  -1
M  END
>  <OMEGA_C>  (110) 
sEcJQcjH8UAOBJTBG/L0QIQ64UA5pIzBcTQCQT0HBEGWHZ3BP7u6QBJB/ECmoJfBJZuTQL7sKb8H
86XBU0nMQGRvTz8adKzBRc7VQJnYzb8SA63BlYTIQKKM50DlLI7BIhjYQDb6BkGh/Z7Br2GjQDhP
Ij+s3KfBSLWsQIRG5L/Lk6jBoJzlQHHWnr497q7BZmrZQBOSvj9kBZDBvcGcQGMHDUGVTHbBf0KH
QM9M+0ALBoPBQseoQH2bAEEE8WHBdoa3QADQv0Bx4nfBxjSmQBSd1kDZTIbB4zXiQN+t1D4XoofB
Z127QFCSAEG7crHB8HrpQEsNIUE0RK7B3lSfQM7vH0Gey6bBh5eJQAGe6j/2YaTBamaiQNzwkEDs
YI/BLKCiQKX9J0AC25vB1HiHQCbucEBUcZfBOHLHQC0FEkHvOKnBi8vGQOC33UDX2WbBKzyvQC6k
3T/F/ZLBYHqLQKm5t0DUJozB5HnsQFtP6UCgt2jB+H33QPt2/z8z2ZTBCgp3QNlXlEBC/J/BV3ud
QH23QcAxuabB/JwGQfDbDr4GD7PBZjUaQWBa7UB3rpLBsxIAQbuTz0DswoXBzroNQXFhCkEYt6LB
cN+YQG6X/kD+QZnBF4poQHdsTL//d6LBoxzYQCEK5z/BD67B0DDpQP4GHsC78K7BRsm5QMzJE0Ex
m33BlYOGQJkLGkEZOHLBgWpVQD5k7UA3dX7B73B7QDuSBkGGOYrB1Ba4QCueC0EEi1bBMouLQM/k
80C8v1rBDpadQM0orEBWLXHBnGPSQNoKq0BMhXzBmXACQWiEcz7tFYfBBBfWQHRZQD84pH/BXf7R
QMhqBL9d8YnB/mqvQFwtCEHzzLjBM8fXQDXG7UAeVLPBQU2iQG9z7ECgEa7BDjzcQLqJKEF4grXB
KD/yQJKOLUGLeajBcgoDQcm1F0H4YrDBmDGUQNuXJ0G1Nq7B7sGFQIi7FUHTjKPBB6ynQF9TLEEn
56DBN3eDQBC0HkB+VavBhepVQOF3vz9A/aDBhjOoQLJ7eUCzUYjBRSzBQKXEmUB9CZPBPne/QIkM
Q0BpmZ/BlwhWQHiMVkCkcpPBCwqYQEcBoz8R4I7BAhJmQGE4r0BRcofBlTSAQHAGxkDxupLB7F5V
QIUKhUDNBqXBi5oJQX+r8EC9QJTBD5T1QEz730A66YzBt4sCQdDMA0EuPp3BWlu7QAtZ/EAtrZfB
rw/NQNSZTz/otqzBybCTQMScJL/sS6bBfxnWQIIbzr/ZBq3B8SnJQL0I50AxT47B1szYQAEAB0ER
C5/BgcmjQHUhJj91TKjBRk3mQNfnor5v/q7BvLqsQNG04r8auKjBMv3YQJk2uz9AWJDBH06dQHjC
DEEVnHbBmcqHQLlF+kDADYPBqnCqQFePAEGeSGLBl964QD2Ev0BbGHjBe/+mQAbq1UBwZYbBO1/h
QBYm3j43lIfByYTqQLFBIUGLN67BgUigQJMkIEFb0qbBIUy8QDfbAEFaiLHBgjWKQAe+7T+166TB
NTmjQMmykECKsY/BBMOiQMDnJ0B6KZzBlHuHQJHJb0ByhpfBhVXIQB0zEkE4P6nB/7PIQCn03UDv
ZGfBgPuuQP2L2T9beJPBhh2MQG3itkCiKIzByRHuQHQi6kCq22nBgcP2QD1nCEDV2JPBHVtzQCqi
k0Bu65/BBxwHQW9AJb4k+bLBAzKdQOKPQMCvx6bBzYUaQcrW60AY+pLBsF8AQXifzUD3JIbB6hIO
QYE4CkFD0qLB2XyZQB41/0BZPZnB7TvZQHWK5j8CV67BD05oQCVFRL+X56LBuWTpQBGTHsAl0q7B
19q5QEy4E0EIMn7B0cWGQIecGUEoaHLBjU9XQJMT7EBiRH7BTy57QCLoBUGOPorBkOu5QDO+C0HX
HFfBKayNQIeG80CNwVrBYRmfQLwYrEAsEHHBVYzTQKeRqkBqzHzBjsgBQXX34D7SfYXBJU7OQDCk
Lz9WdoDBN0fYQCjaEL8bdorBDGbdQKjbKEHFcbXBD0nzQN+rLUGEYKjBAowDQYTnF0EGWbDBNFCV
QNfmJ0GjOq7BNpiGQMzwFUHKoaPBQJqoQGpzLEGY4qDBhniwQJaOCEFZ37jBdLPYQHxW7kAWa7PB
0CejQJv87EADNK7BLjqFQKH9IEBz3KvB0gtWQCw8xD81xaHBJpaqQLrXeEBjvYjBKC/BQFVAmkC+
pZPBQsK/QDnPQ0CSup/BFNZXQH9BVEAPRZPB0aWXQEOUmz/smY/BfMdoQH61rUAkTofBaqd/QEpb
xUA+mZLB+rJQQLoShEDpzaTBGHwJQYR08UAVBpTBVz71QC3F4ECBtIzBRXwCQZMDBEEdFZ3BRym7
QNRx/ECUopfBx2jMQF3YTj8CnqzBVTaTQFbEJL8oEabBkIrVQDBqzr9206zBg9TIQJlU50D7OI7B
6bTYQJYZB0Ft9p7BLUOjQGelJT/AIajBnqflQPODpL7W3q7ByDmsQL3a4r8He6jBn1rZQDQAwT9L
FJDBfnKcQES/DEGykXbBpyeHQHtL+kCIE4PBvyqpQN2HAEG3MGLBpBe4QIKCv0AjAnjBL4qmQAEO
1kDFXobB0lXiQALP3D74uYfB2fO9QCrRAEExmrHBw1nqQDi7IUE5963BsJOfQOylH0He9qbBetCJ
QNSH7T8lv6TBk9SiQAp4kED/e4/BoreiQNMJKEAIE5zB9XWHQJDmb0AVc5fBMnvIQAM2EkGDN6nB
2WfHQES/3UBdHGfBD1SvQGjG2j9EXJPBf+iLQC8bt0AgNYzByvjsQLOe6UCtIWnBXl/3QHYdBUAT
cZTB3md0QAfnk0Dt25/B3bwGQa8OKb636LLBx6+cQMCXQMBWhKbBiWYaQa/l7EAurZLBGCwAQTLM
zkD13YXBBA4OQX5iCkFlp6LBRVKZQFUQ/0BNQ5nBlHrYQHcT5j/LUK7B33lnQNcPRL+MoqLBTdzo
QErBHsD8lq7Bgyi5QLetE0EqB37BruSFQCSfGUFDd3LBcOJVQIIG7EBIan7BDTl6QOjtBUEAR4rB
c4a4QFizC0HU9lbBYTeMQPGW80C4yFrBF0aeQPLbq0ARL3HBh/vSQGLEqkAWo3zBLY4CQa6ioD6F
vYbBmv/TQH7yOT9BC4DBkFzUQIfOBb8IX4rBVFGyQDBzCEGZ+rjB7ffaQCwC70CoX7PBWhSlQH44
7EADbK7B3XjdQEREKUHMPLXBMgvyQB8sLkG1C6jB4sMDQc++GEGY+a/BwNWUQBxYJ0GqaK7BuyKG
QCscFUFj7aPBM9KmQMf+K0Hb9aDBUJOEQLykIECzsqvBQH5VQBtBxD83g6HBFxapQFigeEAAcYjB
pV7BQOximUD4P5PBZou/QBbwQ0AKup/BRTVXQFxqVEBXT5PBhzqYQLrrmT/mlo/B+ydnQPx2rkBA
e4fBNXiAQM9sxUD8w5LBiTZSQCJ9hEDE0qTB

>  <OMEGA_E>  (110) 
gBsBPhCfAz4ASgA+

>  <OMEGA_NBR>  (110) 
    153133

$$$$
50212902
     RDKit          3D

 73 75  0  0  1  0  0  0  0  0999 V2000
    8.5909    7.7168  -18.4066 C   0  0  0  0  0  0  0  0  0  0  0  0
    7.6692    7.1541  -17.5080 C   0  0  0  0  0  0  0  0  0  0  0  0
    8.1415    8.3814  -19.5609 C   0  0  0  0  0  0  0  0  0  0  0  0
    5.8430    7.8731  -18.9492 C   0  0  0  0  0  0  0  0  0  0  0  0
    6.3331    0.7921  -21.5258 C   0  0  0  0  0  0  0  0  0  0  0  0
    4.5774   -0.6842  -20.6812 C   0  0  0  0  0  0  0  0  0  0  0  0
    6.6597   -1.6206  -21.5377 C   0  0  0  0  0  0  0  0  0  0  0  0
    6.2800    7.2192  -17.7793 C   0  0  0  0  0  0  0  0  0  0  0  0
    6.7538    8.4976  -19.8272 C   0  0  0  0  0  0  0  0  0  0  0  0
    5.0552    0.6104  -20.9550 C   0  0  0  0  0  0  0  0  0  0  0  0
    7.1410   -0.3221  -21.8007 C   0  0  0  0  0  0  0  0  0  0  0  0
    5.3753   -1.7997  -20.9831 C   0  0  0  0  0  0  0  0  0  0  0  0
    5.8252    7.9908  -14.4184 C   0  0  0  0  0  0  0  0  0  0  0  0
    6.7635    1.5592  -17.9398 C   0  0  0  0  0  0  0  0  0  0  0  0
    5.0093    8.6951  -15.4888 C   0  0  0  0  0  0  0  0  0  0  0  0
    4.2499    7.6976  -16.3416 C   0  0  0  0  0  0  0  0  0  0  0  0
    5.8073    5.8630  -15.6112 C   0  0  0  0  0  0  0  0  0  0  0  0
    5.2182    6.6166  -16.8375 C   0  0  2  0  0  0  0  0  0  0  0  0
    6.1119    8.7424  -13.1564 C   0  0  0  0  0  0  0  0  0  0  0  0
    7.0563    0.5153  -16.8656 C   0  0  0  0  0  0  0  0  0  0  0  0
    5.7894    8.1209  -22.1071 C   0  0  0  0  0  0  0  0  0  0  0  0
    7.2807   10.1190  -21.7518 C   0  0  0  0  0  0  0  0  0  0  0  0
    4.9935   10.0942  -20.7402 C   0  0  0  0  0  0  0  0  0  0  0  0
    4.2474    1.8037  -20.5370 C   0  0  0  0  0  0  0  0  0  0  0  0
    5.0843    4.4969  -18.0016 C   0  0  0  0  0  0  0  0  0  0  0  0
    5.0483    2.5969  -19.4961 C   0  0  1  0  0  0  0  0  0  0  0  0
    4.2117    3.7427  -18.9674 C   0  0  2  0  0  0  0  0  0  0  0  0
    6.2187    9.2016  -21.0888 C   0  0  0  0  0  0  0  0  0  0  0  0
    6.2400    6.7422  -14.5025 N   0  0  0  0  0  0  0  0  0  0  0  0
    5.4508    1.7158  -18.3760 N   0  0  0  0  0  0  0  0  0  0  0  0
    4.3772    5.6898  -17.5824 N   0  0  0  0  0  0  0  0  0  0  0  0
    7.6965    2.1323  -18.4928 O   0  0  0  0  0  0  0  0  0  0  0  0
    3.8312    4.6062  -20.0402 O   0  0  0  0  0  0  0  0  0  0  0  0
    8.3828   -0.1424  -22.3034 F   0  0  0  0  0  0  0  0  0  0  0  0
    4.9124   -3.0421  -20.7243 F   0  0  0  0  0  0  0  0  0  0  0  0
    9.6499    7.6384  -18.2096 H   0  0  0  0  0  0  0  0  0  0  0  0
    8.0203    6.6707  -16.6083 H   0  0  0  0  0  0  0  0  0  0  0  0
    8.8575    8.8059  -20.2490 H   0  0  0  0  0  0  0  0  0  0  0  0
    4.7879    7.8967  -19.1783 H   0  0  0  0  0  0  0  0  0  0  0  0
    6.6887    1.7868  -21.7507 H   0  0  0  0  0  0  0  0  0  0  0  0
    3.6007   -0.8197  -20.2405 H   0  0  0  0  0  0  0  0  0  0  0  0
    7.2752   -2.4795  -21.7611 H   0  0  0  0  0  0  0  0  0  0  0  0
    4.2915    9.3738  -15.0048 H   0  0  0  0  0  0  0  0  0  0  0  0
    5.6864    9.2759  -16.1324 H   0  0  0  0  0  0  0  0  0  0  0  0
    3.4543    7.2315  -15.7417 H   0  0  0  0  0  0  0  0  0  0  0  0
    3.8038    8.2152  -17.2036 H   0  0  0  0  0  0  0  0  0  0  0  0
    5.0376    5.1778  -15.2264 H   0  0  0  0  0  0  0  0  0  0  0  0
    6.6783    5.2828  -15.9501 H   0  0  0  0  0  0  0  0  0  0  0  0
    6.6572    8.0915  -12.4571 H   0  0  0  0  0  0  0  0  0  0  0  0
    6.7242    9.6266  -13.3874 H   0  0  0  0  0  0  0  0  0  0  0  0
    5.1649    9.0620  -12.6969 H   0  0  0  0  0  0  0  0  0  0  0  0
    8.1441    0.4206  -16.7325 H   0  0  0  0  0  0  0  0  0  0  0  0
    6.5967    0.8274  -15.9163 H   0  0  0  0  0  0  0  0  0  0  0  0
    6.6389   -0.4547  -17.1737 H   0  0  0  0  0  0  0  0  0  0  0  0
    5.4038    8.6055  -23.0162 H   0  0  0  0  0  0  0  0  0  0  0  0
    6.6565    7.4951  -22.3649 H   0  0  0  0  0  0  0  0  0  0  0  0
    5.0023    7.4925  -21.6648 H   0  0  0  0  0  0  0  0  0  0  0  0
    6.8487   10.5952  -22.6443 H   0  0  0  0  0  0  0  0  0  0  0  0
    7.5925   10.8947  -21.0370 H   0  0  0  0  0  0  0  0  0  0  0  0
    8.1539    9.5172  -22.0439 H   0  0  0  0  0  0  0  0  0  0  0  0
    4.6269   10.5872  -21.6527 H   0  0  0  0  0  0  0  0  0  0  0  0
    4.1942    9.4696  -20.3147 H   0  0  0  0  0  0  0  0  0  0  0  0
    5.2927   10.8571  -20.0064 H   0  0  0  0  0  0  0  0  0  0  0  0
    4.0452    2.4391  -21.4118 H   0  0  0  0  0  0  0  0  0  0  0  0
    3.2955    1.4712  -20.0974 H   0  0  0  0  0  0  0  0  0  0  0  0
    5.3009    3.8666  -17.1264 H   0  0  0  0  0  0  0  0  0  0  0  0
    6.0271    4.7775  -18.4938 H   0  0  0  0  0  0  0  0  0  0  0  0
    5.9476    3.0053  -19.9803 H   0  0  0  0  0  0  0  0  0  0  0  0
    3.3276    3.3485  -18.4451 H   0  0  0  0  0  0  0  0  0  0  0  0
    4.7351    1.2013  -17.9036 H   0  0  0  0  0  0  0  0  0  0  0  0
    3.6099    5.4181  -17.0015 H   0  0  0  0  0  0  0  0  0  0  0  0
    4.0304    6.1572  -18.3956 H   0  0  0  0  0  0  0  0  0  0  0  0
    3.2801    4.1301  -20.6503 H   0  0  0  0  0  0  0  0  0  0  0  0
  1  2  2  0
  1  3  1  0
  2  8  1  0
  3  9  2  0
  4  8  2  0
  4  9  1  0
  5 10  2  0
  5 11  1  0
  6 10  1  0
  6 12  2  0
  7 11  2  0
  7 12  1  0
  8 18  1  0
  9 28  1  0
 10 24  1  0
 11 34  1  0
 12 35  1  0
 13 15  1  0
 13 19  1  0
 13 29  2  0
 14 20  1  0
 14 30  1  0
 14 32  2  0
 15 16  1  0
 16 18  1  0
 17 18  1  0
 17 29  1  0
 18 31  1  6
 21 28  1  0
 22 28  1  0
 23 28  1  0
 24 26  1  0
 25 27  1  0
 25 31  1  0
 26 27  1  0
 26 30  1  0
 27 33  1  0
  1 36  1  0
  2 37  1  0
  3 38  1  0
  4 39  1  0
  5 40  1  0
  6 41  1  0
  7 42  1  0
 15 43  1  0
 15 44  1  0
 16 45  1  0
 16 46  1  0
 17 47  1  0
 17 48  1  0
 19 49  1  0
 19 50  1  0
 19 51  1  0
 20 52  1  0
 20 53  1  0
 20 54  1  0
 21 55  1  0
 21 56  1  0
 21 57  1  0
 22 58  1  0
 22 59  1  0
 22 60  1  0
 23 61  1  0
 23 62  1  0
 23 63  1  0
 24 64  1  0
 24 65  1  0
 25 66  1  0
 25 67  1  0
 26 68  1  6
 27 69  1  1
 30 70  1  0
 31 71  1  0
 31 72  1  0
 33 73  1  0
M  CHG  1  31   1
M  END
>  <OMEGA_C>  (111) 
bnQJQQXw9kDCQJPBOWr1QDbu5EBtEIzBc0MCQQkaBkHPfJzB//m6QMbw+0Dsl5fB46jKQHrJSj/p
NKzB8nmSQJwpL78Hc6XBjxzVQNZvz78tTazBbfXIQGUD50AUPI7BMR/YQBr2B0ETnp7BRsShQFJD
HD/go6fBc4PkQOLtpL7HZ67BwwKsQFNc5r9j3afBIGi6QL+0/0CpsWbBqW7YQMGSxz+5hI/BbUyg
QD4fC0EM0nfBif+HQMlS9kCGu4LBSNW5QHSdu0Chx3nBY/umQCa700A3s4bB0ZTDQOHgC0FwgFLB
ds3hQDbpAz/O7IbBl0K5QBjvAUFg27DBTPvoQEDnIUGzA67BgcqfQPCBIUH666XBD+uHQE7e5j/Q
S6TBRLKiQFTmj0A1A5DB0ouhQOwyJkAH+JvBmcaGQASIb0A/vZfB9f/GQMY5E0HWtajBU67HQEvA
10AyCmjBn2yuQOye2z8WApPBABKMQAkTtkDNqIzBZEn2QD13CEBD8ZPBqjF1QN5lk0BiUqDB7h8G
QZbYEb5wbbLBZTKdQMexQsBvy6XBC2YaQSpu9EBRrZHBUVMAQat21UDO3YTBQrgNQfXkDEEK/qHB
QTaZQIqx/EBAbZnBhgnWQKG25D+HAa7BgnJmQMTVUb957KHBxc7oQFyvHsDJFq7BS1SJQAj7FUHS
E3DB9va1QBZqFEE3D4HByxNdQLFo50A13nvBlXFzQHVxA0HroInBtjOhQKawpUBnn3PBe7TVQP0M
qUCAM3/B7QfVQJl2AUFrUEfBmizXQHAGGkGZMlbBQEelQBP+EEGOJkvBW04CQUxT1z4s3IXB/BfT
QLDOUz/3qH7BDHLUQB/P6L65Y4nBRuysQBmwCUFCIbjBAALVQJDX70Bm67LBqhKgQNfC70B3Ua3B
YSjbQP+FKUGLJ7XBw/XyQNlQLkHOS6jBaHYCQUBGGEHTWbDBpw+UQFFlKUGvOK3ByDaGQKuDF0GN
hKLBbl2pQJC2LUEIDaDBTHKBQHEaHEBtS6vBeulSQDZPvD+Ax6DB3aCpQGd2d0D1AonBRN7AQOjg
mEA985PB6VK+QFpXQECS15/BnfZUQDZOVkB5j5PB94WXQGXFmT+UOo/BQwlnQDphrUAIA4jBE/mA
QHwHxUBHKpPBlu1RQJwphEDQM6XBDsYJQRU99kAyLJPB6Lz1QCFf5ECQC4zBsMUCQfbNBUFwbZzB
Xsq7QCJ4+0C5tpfBBQ2TQADVJ78hoqXBqabLQI8jTz9pVqzBpOrVQM10zb91NazBIVzJQFOY5kAC
UY7BcTnZQBvMB0E1op7BVoWiQNaQIj+z4qfBOp+sQBVE47/G3afBQ33lQC4Bn75lZK7BGWy5QFJg
AEHDD2fB2OLYQI4CyD/Dso/B4iigQN6DC0EQk3jBMv+HQMrU9kBvC4PBBHm5QKVAvECOxHnBbAGn
QGjb00A7zobBcajAQJlTDEFOplLBZIDiQAeF/z4NR4fBGxC+QMXwAUHCOLHBCQLqQCn1IkGpdq3B
lZOfQNZTIEFJRabBermIQLNv6j+JmqTBm6WiQEm3j0Dc+o/BQNWhQGTbJkB5EpzBaYOGQJZybkBx
mZfBjqTIQOImE0H7wKjBzs7GQITN2ECzGWjBp+2uQK552j8zQZPB9RCMQJL7tUBKrozBBZT2QGiD
CkC58ZPBkldxQF3NkkCnCKDBnqadQDfdQMB7s6XBh68GQY7rD76+WbLBw68aQSyL80DNiJHBy1QA
QXrn1EBN0YTBB1gOQWGJDEHy46HBCiCaQAYT/EA8qZnB9zdnQOPSSL+0MqLBcDjXQNqH5j/BKK7B
s6LpQFntHcAh3a3BVDCJQMiiFkHYNnHBpFu2QGiAFEE0boHB1pBcQAVR6EA5gnzBmiJ0QOOEA0GM
CYrBIsegQJFepkAko3PBwYjVQCWtqUCe7X7Byf3QQEXeAUFVFkfBA5zUQGd5GkFp01XBALGhQBpv
EUFQBUzBeqgCQZrT1j42JYbBGFfTQMX9Rz+OU3/BusTVQFDV8L4B9InBlCOyQDi4CUHth7jBASDb
QDt/8UCpGbPBuGSlQAEv7kAHEK7BFLjcQJyiKkHHprTBFa3xQDlEL0EMeafBiaQDQUwsGkEwmq/B
NmiUQMxCKEHknK3BfHCGQC6QFUEfRqPBvdimQAV5LEGkKqDB8xWDQP+FHkDGlqvBSLNTQO2FwD9v
SaHBudCpQCCsd0A78YjBNbDAQHiUmEDR/pPBdn6+QDqoQkAk0Z/BSAlWQM1kU0DKRJPBcDKYQCmU
lT9koI/ByytnQBdrrUCo/ofB7N2AQJm4xEDeNJPB19pNQIBCg0D706TB0VQJQTe990BRHJPBKxr1
QPz25UBk5YvBwy0CQXxuBkFDYJzBor+6QEIo/UB3bZfBSkjLQMXVSj+WDKzB5EqTQJg7LL+/CqXB
Pf3VQBBEz7+6w6vBzqbIQKA96EDdDo7BfPbXQG5gCEGjgJ7BSWyiQFAaHj+DcqfBuz/lQL08pr7T
E67BcO2sQDlM5b+aSafBWW+5QIjm/0ApVmbBBZbYQEXdwj8TtI/BToGeQM4iC0HqNHfBWwyHQF9l
9kCOnoLB2yy5QAYMvEBWonnBh5umQDho1EABn4bBIg3FQOxnDEGxslLBJQvhQHakCD+1pIbBLfLo
QCL+IUHUBq7B96SfQCW9IUH0/aXBc0+5QGvzAUEzvLDBaYeIQBts6D9GP6TBmkWjQCYMkUA8LZDB
WfahQPtpJ0Cs7ZvBUR+HQKHccEANwpfBcOzGQGBrE0Elq6jB6BLHQM0W2EB93mfBTnyuQEKs3z+y
25LB2TCMQFTItkDcuIzB8t72QCDz/j95sJTBW310QC2hk0BYXKDBWHkGQTrbGr7ZI7LBRj6eQGXn
QcCWA6XBREUaQcYo9UCfh5HBTCUAQaaJ1kA8sITBC6kNQfcZDUG456HBJ/eYQBM0/kD6OpnB44zW
QLBL5D+pAa7BDihoQMd2Tb9Te6HBcsPpQCy/HsAzbK3BBO2GQBJ1FUEqMW/BxYqzQHL9FEFQp4DB
gRdbQJjg5kDZ6XvBuM9xQO2VA0ElgInBpV6gQM5BpkBJiHPBO/bUQFRTqUCdB3/B71vYQFVRAkHp
+0fBnJ/XQO6gGkGeTlfBZrKnQIxsEUHBYUrBNtsBQX7Wvj7i1IXByD3UQExicD+MOn7B+ELRQDei
2L70c4jBbzHbQMJ0KUFqN7XBrdjyQIOHLkEtXqjBknYCQaxSGEHPSrDBIP+TQJ51KUEvWK3BJwuG
QFbOF0EejqLBQBypQAIULkEtLqDBrwmtQPmLCUF3DrjBJhrVQFLS70D4ubLB6hqgQFTq70B3Ka3B
WVOCQD5mHEDTTavBRt1TQPqfvj+SxKDB7yKrQHUNekACNonBGvPAQD+QmkBoRJTBzdu+QOdXQUDH
xJ/BsEZWQD6lV0Auc5PBeDaXQNycpT/IvI7BnEFnQG6QrUBAJIjByBSBQIT6xUAJMZPBOvJQQJQQ
hEDXJKXBx5wJQT9k9kCVPJPBcaP1QBdy5EA8D4zBc3kCQRHnBUHJdZzBtlG7QHLf+0D5kpfBpd6S
QHl0ML91YqXBhLzKQJ3VSj9pO6zB783VQF0Sz78JIKzBszHJQOHD5kBGO47B/I/YQPblB0EGlZ7B
5uKhQGtCGz+Jp6fBtrOsQJSX5r96s6fB7NzkQNL8or79V67BP1q7QOEn/0C3umbB2aLYQNrFyD88
lI/BefmgQOH4CkHVrHfB/GeIQFNN9kCnsILBCby5QOoeu0AD3nnBfRanQDCP00Dot4bBmkTGQFjB
C0EU1VLB5HPiQBEXAD8rNIfBKanpQCMHIkGt3q3B+V6gQLaSIUET2aXBrOe5QFgbAkEC27DBxeKH
QLgo5j+PV6TBWIWiQMn8j0DmIZDBOmihQEokJkCVBJzBG26GQLYmb0DpwpfBhpLHQKBLE0EapqjB
WxzIQCIK10DhJGjBLZWuQMh/2z9mE5PByv+LQPootkDFuIzB4z/2QKvXCkDa3ZPBCExzQAoBk0Bb
VKDBny+eQEbiQsAAi6XBOj4GQZJwCb7Ya7LBrIwaQY+480DRqJHByWUAQW3Z1EAc34TB3vYNQc+l
DEFG9qHBL4+ZQCfQ/EBRaJnB3jRnQI37U7/936HB7t/VQKvL5D9tG67BpMPpQNBRHsCg0K3BPSSK
QEbGFUEwwW/BKn+2QHpXFEFR/YDBksJdQKR550Ady3vBhWJ0QM2MA0ECj4nBldagQNCJpUCarHPB
L0zVQJYrqEBSWX/BwFbYQD1cAUH430fBINjZQEvEGUH3B1fB1qKoQGYXEUEG+UrBFKYCQVXv1T5U
JYbBtJDTQInIRz8BGn/B047VQLQc774D4YnB2PXbQK3AKUEg/7TBa5PzQE5bLkF8GajBf88CQeFq
GEF0NrDBzL+UQLSNKUEhIq3B07mGQCKPF0HUfaLBDOmpQDy0LUFe75/BS6itQGrzCUEhHbjBBKrV
QJc48EC87bLBy6qgQJwJ8EBBXa3Bi2OBQBCWG0CQWqvBLeBSQFBXuz9s1KDB59qpQAfad0BLI4nB
DnnAQIQImUAMKpTB1w++QOCzQEBR55/BE95UQKSJVUC4fpPBm9WXQJSTmD//T4/BddlmQJtxrUCJ
FYjBlPGAQKxQxUD2M5PBys9PQAaTg0CNJaXB

>  <OMEGA_E>  (111) 
kNEOPlAyET7QABQ+COUUPg==

>  <OMEGA_NBR>  (111) 
    158019

$$$$
50212901
     RDKit          3D

 73 75  0  0  1  0  0  0  0  0999 V2000
    8.5909    7.7370  -18.3744 C   0  0  0  0  0  0  0  0  0  0  0  0
    7.6607    7.2018  -17.4654 C   0  0  0  0  0  0  0  0  0  0  0  0
    8.1516    8.3901  -19.5400 C   0  0  0  0  0  0  0  0  0  0  0  0
    5.8462    7.9342  -18.9141 C   0  0  0  0  0  0  0  0  0  0  0  0
    6.3140    0.7873  -21.5179 C   0  0  0  0  0  0  0  0  0  0  0  0
    4.6071   -0.6943  -20.5874 C   0  0  0  0  0  0  0  0  0  0  0  0
    6.6865   -1.6184  -21.4653 C   0  0  0  0  0  0  0  0  0  0  0  0
    6.2720    7.2864  -17.7352 C   0  0  0  0  0  0  0  0  0  0  0  0
    6.7657    8.5270  -19.8062 C   0  0  0  0  0  0  0  0  0  0  0  0
    5.0552    0.6010  -20.9073 C   0  0  0  0  0  0  0  0  0  0  0  0
    7.1357   -0.3204  -21.7805 C   0  0  0  0  0  0  0  0  0  0  0  0
    5.4188   -1.8041  -20.8762 C   0  0  0  0  0  0  0  0  0  0  0  0
    5.6809    8.0215  -14.3728 C   0  0  0  0  0  0  0  0  0  0  0  0
    6.7997    1.5395  -17.9819 C   0  0  0  0  0  0  0  0  0  0  0  0
    4.8282    8.6876  -15.4290 C   0  0  0  0  0  0  0  0  0  0  0  0
    4.1710    7.6836  -16.3438 C   0  0  0  0  0  0  0  0  0  0  0  0
    5.7657    5.9021  -15.5777 C   0  0  0  0  0  0  0  0  0  0  0  0
    5.2014    6.6520  -16.8188 C   0  0  2  0  0  0  0  0  0  0  0  0
    7.0885    0.5883  -16.8241 C   0  0  0  0  0  0  0  0  0  0  0  0
    7.3115   10.1163  -21.7524 C   0  0  0  0  0  0  0  0  0  0  0  0
    5.0146   10.1109  -20.7659 C   0  0  0  0  0  0  0  0  0  0  0  0
    5.8195    8.1157  -22.0930 C   0  0  0  0  0  0  0  0  0  0  0  0
    4.2429    1.7941  -20.4921 C   0  0  0  0  0  0  0  0  0  0  0  0
    5.1311    4.5528  -18.0335 C   0  0  0  0  0  0  0  0  0  0  0  0
    5.0583    2.6133  -19.4812 C   0  0  1  0  0  0  0  0  0  0  0  0
    4.2321    3.7675  -18.9545 C   0  0  2  0  0  0  0  0  0  0  0  0
    6.2418    9.2105  -21.0861 C   0  0  0  0  0  0  0  0  0  0  0  0
    6.1646    6.7959  -14.4668 N   0  0  0  0  0  0  0  0  0  0  0  0
    6.0352    8.8090  -13.3003 N   0  0  0  0  0  0  0  0  0  0  0  0
    5.4752    1.7652  -18.3427 N   0  0  0  0  0  0  0  0  0  0  0  0
    4.3979    5.7193  -17.5942 N   0  0  0  0  0  0  0  0  0  0  0  0
    7.7300    1.9669  -18.6574 O   0  0  0  0  0  0  0  0  0  0  0  0
    3.8025    4.6030  -20.0308 O   0  0  0  0  0  0  0  0  0  0  0  0
    7.1653    8.5089  -12.5325 O   0  0  0  0  0  0  0  0  0  0  0  0
    8.3599   -0.1350  -22.3225 F   0  0  0  0  0  0  0  0  0  0  0  0
    4.9861   -3.0473  -20.5723 F   0  0  0  0  0  0  0  0  0  0  0  0
    9.6486    7.6459  -18.1763 H   0  0  0  0  0  0  0  0  0  0  0  0
    8.0055    6.7253  -16.5596 H   0  0  0  0  0  0  0  0  0  0  0  0
    8.8741    8.7897  -20.2362 H   0  0  0  0  0  0  0  0  0  0  0  0
    4.7908    7.9777  -19.1395 H   0  0  0  0  0  0  0  0  0  0  0  0
    6.6447    1.7807  -21.7829 H   0  0  0  0  0  0  0  0  0  0  0  0
    3.6429   -0.8346  -20.1215 H   0  0  0  0  0  0  0  0  0  0  0  0
    7.3140   -2.4721  -21.6751 H   0  0  0  0  0  0  0  0  0  0  0  0
    4.0459    9.2799  -14.9318 H   0  0  0  0  0  0  0  0  0  0  0  0
    5.4646    9.3528  -16.0312 H   0  0  0  0  0  0  0  0  0  0  0  0
    3.3647    7.1691  -15.8004 H   0  0  0  0  0  0  0  0  0  0  0  0
    3.7503    8.2060  -17.2156 H   0  0  0  0  0  0  0  0  0  0  0  0
    4.9917    5.2137  -15.2076 H   0  0  0  0  0  0  0  0  0  0  0  0
    6.6483    5.3261  -15.8929 H   0  0  0  0  0  0  0  0  0  0  0  0
    8.1718    0.4095  -16.7572 H   0  0  0  0  0  0  0  0  0  0  0  0
    6.7322    1.0358  -15.8845 H   0  0  0  0  0  0  0  0  0  0  0  0
    6.5694   -0.3662  -16.9957 H   0  0  0  0  0  0  0  0  0  0  0  0
    6.8894   10.5783  -22.6571 H   0  0  0  0  0  0  0  0  0  0  0  0
    7.6162   10.9034  -21.0470 H   0  0  0  0  0  0  0  0  0  0  0  0
    8.1873    9.5094  -22.0252 H   0  0  0  0  0  0  0  0  0  0  0  0
    4.6577   10.5877  -21.6908 H   0  0  0  0  0  0  0  0  0  0  0  0
    4.2102    9.4953  -20.3370 H   0  0  0  0  0  0  0  0  0  0  0  0
    5.3077   10.8867  -20.0432 H   0  0  0  0  0  0  0  0  0  0  0  0
    5.4430    8.5879  -23.0124 H   0  0  0  0  0  0  0  0  0  0  0  0
    6.6877    7.4847  -22.3340 H   0  0  0  0  0  0  0  0  0  0  0  0
    5.0272    7.4951  -21.6488 H   0  0  0  0  0  0  0  0  0  0  0  0
    4.0156    2.4124  -21.3730 H   0  0  0  0  0  0  0  0  0  0  0  0
    3.3040    1.4595  -20.0268 H   0  0  0  0  0  0  0  0  0  0  0  0
    5.4095    3.9364  -17.1660 H   0  0  0  0  0  0  0  0  0  0  0  0
    6.0401    4.8617  -18.5705 H   0  0  0  0  0  0  0  0  0  0  0  0
    5.9499    3.0123  -19.9871 H   0  0  0  0  0  0  0  0  0  0  0  0
    3.3707    3.3793  -18.3912 H   0  0  0  0  0  0  0  0  0  0  0  0
    5.4776    9.6057  -13.0673 H   0  0  0  0  0  0  0  0  0  0  0  0
    4.7600    1.3268  -17.7984 H   0  0  0  0  0  0  0  0  0  0  0  0
    3.6307    5.4165  -17.0287 H   0  0  0  0  0  0  0  0  0  0  0  0
    4.0494    6.1965  -18.4009 H   0  0  0  0  0  0  0  0  0  0  0  0
    3.2362    4.1074  -20.6105 H   0  0  0  0  0  0  0  0  0  0  0  0
    7.2578    9.1521  -11.8396 H   0  0  0  0  0  0  0  0  0  0  0  0
  1  2  2  0
  1  3  1  0
  2  8  1  0
  3  9  2  0
  4  8  2  0
  4  9  1  0
  5 10  2  0
  5 11  1  0
  6 10  1  0
  6 12  2  0
  7 11  2  0
  7 12  1  0
  8 18  1  0
  9 27  1  0
 10 23  1  0
 11 35  1  0
 12 36  1  0
 13 15  1  0
 13 28  2  0
 13 29  1  0
 14 19  1  0
 14 30  1  0
 14 32  2  0
 15 16  1  0
 16 18  1  0
 17 18  1  0
 17 28  1  0
 18 31  1  6
 20 27  1  0
 21 27  1  0
 22 27  1  0
 23 25  1  0
 24 26  1  0
 24 31  1  0
 25 26  1  0
 25 30  1  0
 26 33  1  0
 29 34  1  0
  1 37  1  0
  2 38  1  0
  3 39  1  0
  4 40  1  0
  5 41  1  0
  6 42  1  0
  7 43  1  0
 15 44  1  0
 15 45  1  0
 16 46  1  0
 16 47  1  0
 17 48  1  0
 17 49  1  0
 19 50  1  0
 19 51  1  0
 19 52  1  0
 20 53  1  0
 20 54  1  0
 20 55  1  0
 21 56  1  0
 21 57  1  0
 21 58  1  0
 22 59  1  0
 22 60  1  0
 22 61  1  0
 23 62  1  0
 23 63  1  0
 24 64  1  0
 24 65  1  0
 25 66  1  6
 26 67  1  1
 29 68  1  0
 30 69  1  0
 31 70  1  0
 31 71  1  0
 33 72  1  0
 34 73  1  0
M  CHG  1  31   1
M  END
>  <OMEGA_C>  (112) 
QXQJQXCV90C//pLBwiT1QGd15kASuYvB52wCQQE+BkHZUZzB0BO7QC7l/UAIUJfBRwzKQHCOST+/
JKzBeW2TQDu9Mb/nsqTBA/jVQDgpz7/nuKvBGrTIQA8q6UC54Y3BvoDYQJRuCEEFc57BOMShQIDZ
GT8NQqfBRlfkQAAMpL5lPq7BpWatQAbu5r+MAqfBB8q1QA5YAEHw9mXBV5fZQPQPxT/q2o/B3YCa
QJAAC0FY3XbB7niFQLPf9UALwILBeYC4QO7dvEBkPnnBzXGmQGnd1EDkjIbBG9XiQCadFj+2l4bB
i/fpQHXcIUHqBK7BNHegQFvGIUGdIKbB/Ti6QN/ZAUFovrDB48WHQNSj5T/j76PBNDKkQHiwkUCY
RJDBT92hQNxAJ0CX2ZvBwW2HQOkdcUDEopfBGL3HQBteE0FAsKjBMUTFQLJ32UAZeGfBwiDBQJTx
DEEDzlTB9TSvQFTz4T/OvZLBTbuMQOIEt0DcwIzBU1z3QBrE+z9XQpXBaVxzQChMk0AOP6DB40nl
QGUkCEErhUjBG8IFQWI/Cr6FlLLBDo6fQIMHQ8AZlKTB1WAaQSSr9EAFaZHBpBYAQek110AAeoTB
K/wNQbCiDEHE46HBlU6ZQCBJ/0CgHZnBO6HUQNHu4z9sQ67BLSVpQPinVb/i+KDBTwzqQBY2HsCj
Zq3BCXiBQG56FEHX6G7BUd6uQPakFUHeP4DByFdXQJhp5UBNznzBhQVwQONLA0GEuYnBurufQLrW
pkAkUnPBxL7UQM5vqkAeSX7By78CQaWv0T7FDobBDm7XQIiUhD/iJn7BcDjSQKF5u74h94fBR3bc
QIxAKUHEQbXBibfzQHx0LkE4YKjBYv8CQV4mGEGrM7DB+guVQCJnKUG8hq3B4LmGQLDsF0EmsqLB
ZNipQLovLkF4WKDBLy2uQCRoCUFUGbjBYgHWQOmC70AJrLLBEt+gQCfY70C+MK3Bun+AQBtlGkDx
+6rBn3RTQC/Suj/iNqDBWRqtQL/te0DvU4nBGEjBQCSTm0B8kJTBUmW+QO7JQECB5Z/BiLlXQC5H
WEAtIZPBIEivQMWwGUG1E1HBNFKYQM3TqT8RY47BtFxoQElUrUDgOojB1pSBQPVJxkAiNZPBiB1P
QIVvg0BL4qTB9z/oQCNvEkHhbj3B

>  <OMEGA_E>  (112) 
EMR4Pg==

>  <OMEGA_NBR>  (112) 
    159527

$$$$
50212897
     RDKit          3D

 70 72  0  0  1  0  0  0  0  0999 V2000
    8.5894    7.6001  -18.4449 C   0  0  0  0  0  0  0  0  0  0  0  0
    7.6595    7.1113  -17.5118 C   0  0  0  0  0  0  0  0  0  0  0  0
    8.1521    8.2509  -19.6114 C   0  0  0  0  0  0  0  0  0  0  0  0
    5.8434    7.8739  -18.9439 C   0  0  0  0  0  0  0  0  0  0  0  0
    6.3865    0.8234  -21.5779 C   0  0  0  0  0  0  0  0  0  0  0  0
    4.6018   -0.6376  -20.7706 C   0  0  0  0  0  0  0  0  0  0  0  0
    6.6598   -1.5981  -21.6611 C   0  0  0  0  0  0  0  0  0  0  0  0
    6.2701    7.2509  -17.7501 C   0  0  0  0  0  0  0  0  0  0  0  0
    6.7676    8.4232  -19.8618 C   0  0  0  0  0  0  0  0  0  0  0  0
    5.1069    0.6572  -21.0038 C   0  0  0  0  0  0  0  0  0  0  0  0
    7.1658   -0.3040  -21.8959 C   0  0  0  0  0  0  0  0  0  0  0  0
    5.3754   -1.7636  -21.1047 C   0  0  0  0  0  0  0  0  0  0  0  0
    6.8052    1.4308  -18.0619 C   0  0  0  0  0  0  0  0  0  0  0  0
    5.9922    7.3402  -14.5576 C   0  0  0  0  0  0  0  0  0  0  0  0
    5.1252    8.4852  -15.1266 C   0  0  0  0  0  0  0  0  0  0  0  0
    5.7251    6.1218  -15.4557 C   0  0  0  0  0  0  0  0  0  0  0  0
    4.3142    7.8680  -16.2702 C   0  0  0  0  0  0  0  0  0  0  0  0
    5.1942    6.7157  -16.7789 C   0  0  0  0  0  0  0  0  0  0  0  0
    7.0751    0.3897  -16.9798 C   0  0  0  0  0  0  0  0  0  0  0  0
    5.8324    8.0193  -22.1560 C   0  0  0  0  0  0  0  0  0  0  0  0
    7.3343   10.0101  -21.8063 C   0  0  0  0  0  0  0  0  0  0  0  0
    5.0302   10.0182  -20.8362 C   0  0  0  0  0  0  0  0  0  0  0  0
    4.3130    1.8629  -20.5603 C   0  0  0  0  0  0  0  0  0  0  0  0
    5.0795    4.5370  -17.8959 C   0  0  0  0  0  0  0  0  0  0  0  0
    5.0943    2.6394  -19.4801 C   0  0  1  0  0  0  0  0  0  0  0  0
    4.2408    3.7680  -18.9071 C   0  0  2  0  0  0  0  0  0  0  0  0
    6.2542    9.1101  -21.1460 C   0  0  0  0  0  0  0  0  0  0  0  0
    5.4866    1.7244  -18.3904 N   0  0  0  0  0  0  0  0  0  0  0  0
    4.3496    5.7389  -17.4792 N   0  0  0  0  0  0  0  0  0  0  0  0
    7.7422    2.0556  -18.5481 O   0  0  0  0  0  0  0  0  0  0  0  0
    3.8439    4.6440  -19.9632 O   0  0  0  0  0  0  0  0  0  0  0  0
    8.4035   -0.1441  -22.4160 F   0  0  0  0  0  0  0  0  0  0  0  0
    4.8897   -3.0039  -20.8760 F   0  0  0  0  0  0  0  0  0  0  0  0
    9.6469    7.4750  -18.2645 H   0  0  0  0  0  0  0  0  0  0  0  0
    8.0051    6.6277  -16.6101 H   0  0  0  0  0  0  0  0  0  0  0  0
    8.8759    8.6222  -20.3218 H   0  0  0  0  0  0  0  0  0  0  0  0
    4.7870    7.9318  -19.1604 H   0  0  0  0  0  0  0  0  0  0  0  0
    6.7666    1.8153  -21.7727 H   0  0  0  0  0  0  0  0  0  0  0  0
    3.6215   -0.7651  -20.3357 H   0  0  0  0  0  0  0  0  0  0  0  0
    7.2567   -2.4638  -21.9076 H   0  0  0  0  0  0  0  0  0  0  0  0
    7.0571    7.6139  -14.5912 H   0  0  0  0  0  0  0  0  0  0  0  0
    5.7026    7.1208  -13.5194 H   0  0  0  0  0  0  0  0  0  0  0  0
    4.4532    8.8788  -14.3498 H   0  0  0  0  0  0  0  0  0  0  0  0
    5.7637    9.2971  -15.5049 H   0  0  0  0  0  0  0  0  0  0  0  0
    6.6532    5.5574  -15.6291 H   0  0  0  0  0  0  0  0  0  0  0  0
    4.9740    5.4608  -14.9987 H   0  0  0  0  0  0  0  0  0  0  0  0
    3.3490    7.4888  -15.9033 H   0  0  0  0  0  0  0  0  0  0  0  0
    4.1394    8.6061  -17.0668 H   0  0  0  0  0  0  0  0  0  0  0  0
    8.1548    0.3448  -16.7746 H   0  0  0  0  0  0  0  0  0  0  0  0
    6.5386    0.6685  -16.0609 H   0  0  0  0  0  0  0  0  0  0  0  0
    6.7261   -0.5952  -17.3236 H   0  0  0  0  0  0  0  0  0  0  0  0
    5.4640    8.4944  -23.0771 H   0  0  0  0  0  0  0  0  0  0  0  0
    6.6988    7.3841  -22.3925 H   0  0  0  0  0  0  0  0  0  0  0  0
    5.0343    7.4024  -21.7173 H   0  0  0  0  0  0  0  0  0  0  0  0
    6.9207   10.4747  -22.7135 H   0  0  0  0  0  0  0  0  0  0  0  0
    7.6395   10.7954  -21.0989 H   0  0  0  0  0  0  0  0  0  0  0  0
    8.2081    9.3978  -22.0738 H   0  0  0  0  0  0  0  0  0  0  0  0
    4.6830   10.4956  -21.7644 H   0  0  0  0  0  0  0  0  0  0  0  0
    4.2191    9.4080  -20.4123 H   0  0  0  0  0  0  0  0  0  0  0  0
    5.3227   10.7932  -20.1126 H   0  0  0  0  0  0  0  0  0  0  0  0
    4.1347    2.5199  -21.4243 H   0  0  0  0  0  0  0  0  0  0  0  0
    3.3491    1.5323  -20.1460 H   0  0  0  0  0  0  0  0  0  0  0  0
    5.2730    3.9015  -17.0191 H   0  0  0  0  0  0  0  0  0  0  0  0
    6.0354    4.8280  -18.3560 H   0  0  0  0  0  0  0  0  0  0  0  0
    5.9951    3.0723  -19.9396 H   0  0  0  0  0  0  0  0  0  0  0  0
    3.3612    3.3407  -18.4034 H   0  0  0  0  0  0  0  0  0  0  0  0
    4.7610    1.2900  -17.8567 H   0  0  0  0  0  0  0  0  0  0  0  0
    3.6077    5.4640  -16.8676 H   0  0  0  0  0  0  0  0  0  0  0  0
    3.9662    6.1759  -18.2929 H   0  0  0  0  0  0  0  0  0  0  0  0
    3.3205    4.1636  -20.5939 H   0  0  0  0  0  0  0  0  0  0  0  0
  1  2  2  0
  1  3  1  0
  2  8  1  0
  3  9  2  0
  4  8  2  0
  4  9  1  0
  5 10  2  0
  5 11  1  0
  6 10  1  0
  6 12  2  0
  7 11  2  0
  7 12  1  0
  8 18  1  0
  9 27  1  0
 10 23  1  0
 11 32  1  0
 12 33  1  0
 13 19  1  0
 13 28  1  0
 13 30  2  0
 14 15  1  0
 14 16  1  0
 15 17  1  0
 16 18  1  0
 17 18  1  0
 18 29  1  0
 20 27  1  0
 21 27  1  0
 22 27  1  0
 23 25  1  0
 24 26  1  0
 24 29  1  0
 25 26  1  0
 25 28  1  0
 26 31  1  0
  1 34  1  0
  2 35  1  0
  3 36  1  0
  4 37  1  0
  5 38  1  0
  6 39  1  0
  7 40  1  0
 14 41  1  0
 14 42  1  0
 15 43  1  0
 15 44  1  0
 16 45  1  0
 16 46  1  0
 17 47  1  0
 17 48  1  0
 19 49  1  0
 19 50  1  0
 19 51  1  0
 20 52  1  0
 20 53  1  0
 20 54  1  0
 21 55  1  0
 21 56  1  0
 21 57  1  0
 22 58  1  0
 22 59  1  0
 22 60  1  0
 23 61  1  0
 23 62  1  0
 24 63  1  0
 24 64  1  0
 25 65  1  6
 26 66  1  1
 28 67  1  0
 29 68  1  0
 29 69  1  0
 31 70  1  0
M  CHG  1  29   1
M  END
>  <OMEGA_C>  (113) 
Km4JQQo080AOj5PBchr1QPGP40A0GIzB424CQa4DBEEn5JzBiv26QMH2+0AkjZfBNF7MQBjHUj+E
n6zBBkKTQCQ3I78/KqbBch3VQPSPzL/gSa3BXKTIQGsH6EBGAI7B8I/YQInFBkEO5Z7BtWujQGZA
KD/CB6jBEU7lQPalm77KKq/BAAOsQHO84b+C1qjBN8TZQLgltz/UfpDBQcC/QIbi6kAI7GjBgQGk
QEDDB0GKBnLBUzS3QOvlw0B5SnfBDw6KQIzG+0BRKYLBijamQCPn1kA5O4bBDGfiQMGCxz6n1ofB
JaO6QOBOAEF3P7HB2LLqQIwpIEE7c67BgvegQF5KIEGbsKbBtQOKQFJy7j9ve6TBP4uiQFgvkUDM
Ko/BvASjQHzrKEAu15vBuLSHQFkncUC2QZfBHCLIQODCEUHyKqnBO5KvQPK53D9xH5PBFzCLQCml
t0Bn1YvB/r/3QMuOA0B2YpTBwgF2QNmblECntJ/B4HQGQR+NE77pU7PBjnicQH0/QMD4AafBiVka
QeUy70DKHZLBuxQAQfUV1ECF4YTBjwMOQYH0CUEJk6LBtC6ZQHnR/UBwSJnBKIjYQKdb6D97Lq7B
qMZnQH/aQ7+Sr6LBDTfoQB+vHcCtQq/BsdPhQNGk80BvdWnBU3u2QFXd40BbT1jBboCOQHAPDkGW
mGXB8G+4QPzAFEHqE3jBUefUQGPWsUD3EHrBASufQPC+rkCN+m/B2FVWQIik70ABdH7BsHWEQJmy
CUHOiIjBLnoCQRqIsD5PMobBGjzRQIslKz+2fIDBCjzXQHJgGL+6lorBtNiuQDDpB0HmnbjBU1zW
QCRK7EDcI7PBNRmhQA7g7EDzvK3BRHbdQFaYJ0FFtbXB/Hb0QMK5LEGiyqjBeVQDQYRdFkEYl7DB
FtuVQPTtJ0F9Ha7BqwKHQCCHFkFQTKPBVFOqQBuxLEGB5qDBmE+EQEFGIUDuZKvB4FZWQPwhxD8F
K6HBcbyoQMuyeUAyJ4jBlyHBQOB+mkAT2ZLBz9e/QDKgREBmhJ/Bmx1XQDPOVUBBOpPB+VmYQA4f
pT+Q2o7BQuVmQHvZrkDT8IbBwtZ9QPmgxUDLV5LBYINUQAY8hUBVwKTB0lsJQYCB8UClv5PBL+70
QCi44kBNLYzBlmQCQSVCA0FCEJ3Bt+q6QB7E+0BLk5fBdd+TQOEYJb+vBqbBUqjMQPt1Uj/wkazB
5FXVQMCkzL8Nb63BRn/IQNTd50DDBI7B44nYQOZ/BkHj8p7B3vOjQMz0Jj8F26fBlXisQNBg4r/c
3KjBwWXlQB4em74MTK/BBAHaQNYNvT+ZG5DBEWy+QC4T7EBuuWjBNz+kQGZ8CEGCq3LBoJG2QDjX
xEAmDnfBQueJQA6c/ED3ToLB8+ilQNBV10DFNYbBkZPiQHjbsz6NJ4jB3n28QCqiAEH5hLHBH4Dq
QBgIIUHd+a3BoRagQE2uH0FitqbBJGeKQPin7T/cUaTBvXaiQNqVkUDDHo/BuE+jQPRoKUCAvpvB
WsuHQECccUAjNpfBA0fIQHjREUFpJKnB0d+vQEUH3z8i+JLBC+CKQBLXt0BluovBWyj4QFHtAEAX
sJTBTCF2QDSxlEAhr5/Bl+OcQCe5QMBqKafB/kIGQRLLDr4hubPB3EEaQUKy7EDsZpLBmfH/QPZl
00A28ITBZPoNQXnlCEEt0qLBnBuZQLnc/UDUSZnBHWNpQPqjRr8Yc6LBtsvYQNRh6D8LFa7BN1ro
QFuYHcCLgq/BQ6ngQD479EA1gGjBqXezQP+f5UDsT1jBIg6PQFSyD0Gdm2bBtLi5QILSFEEyLHnB
6YDUQPcGs0AzlnnBv42eQL+Or0Ap0m/BxCVWQDvU8EBUf37BfC2EQIvXCUFLzIjBL50CQatqLT4T
oYfBh0fWQDM2Iz+9O4DBlmTSQNegEL9H3YrBItSwQFB2CEF817jBcfbYQPz97UDZZ7PBn0qjQKtk
7EC/Rq7BkJDdQPK4KEFbM7XB8fPyQIxeLUEUEajBqp0DQQLHF0EaFbDB1jmVQPiJJ0GAGq7BhGOG
QOtlFUH6l6PBSjqoQHvoK0EHuKDBDG+EQDV2IEDeQavBO2FXQE7Vwj9/9KDBLOeoQMRtekBdIIjB
cu7AQOIxm0Cg0JLBtRTAQOAjRUDecZ/BOVFXQCokVkCVMJPBwp+YQApcpT+20Y7BJONmQFrYrkDy
w4bBXlx8QIKxxUAlNJLBUdlUQEkzhUCuuqTB

>  <OMEGA_E>  (113) 
QEozPQDYOD0=

>  <OMEGA_NBR>  (113) 
    162074

$$$$
50212896
     RDKit          3D

 74 76  0  0  1  0  0  0  0  0999 V2000
    8.5928    7.5974  -18.4829 C   0  0  0  0  0  0  0  0  0  0  0  0
    7.6662    7.0551  -17.5763 C   0  0  0  0  0  0  0  0  0  0  0  0
    8.1494    8.3047  -19.6130 C   0  0  0  0  0  0  0  0  0  0  0  0
    5.8459    7.8826  -18.9592 C   0  0  0  0  0  0  0  0  0  0  0  0
    4.5822   -0.6614  -20.7209 C   0  0  0  0  0  0  0  0  0  0  0  0
    6.3463    0.8061  -21.5628 C   0  0  0  0  0  0  0  0  0  0  0  0
    6.6471   -1.6110  -21.6048 C   0  0  0  0  0  0  0  0  0  0  0  0
    6.2744    7.2203  -17.7895 C   0  0  0  0  0  0  0  0  0  0  0  0
    6.7634    8.4745  -19.8528 C   0  0  0  0  0  0  0  0  0  0  0  0
    5.0712    0.6321  -20.9828 C   0  0  0  0  0  0  0  0  0  0  0  0
    5.3654   -1.7823  -21.0425 C   0  0  0  0  0  0  0  0  0  0  0  0
    7.1390   -0.3150  -21.8599 C   0  0  0  0  0  0  0  0  0  0  0  0
    6.7859    1.4953  -17.9867 C   0  0  0  0  0  0  0  0  0  0  0  0
    4.8548    8.8144  -15.5226 C   0  0  0  0  0  0  0  0  0  0  0  0
    6.3497    7.0038  -14.5397 C   0  0  0  0  0  0  0  0  0  0  0  0
    4.1965    7.7768  -16.4235 C   0  0  0  0  0  0  0  0  0  0  0  0
    5.7671    5.9854  -15.5348 C   0  0  0  0  0  0  0  0  0  0  0  0
    5.3466    8.1288  -14.2403 C   0  0  1  0  0  0  0  0  0  0  0  0
    5.2002    6.6648  -16.8226 C   0  0  2  0  0  0  0  0  0  0  0  0
    7.0724    0.3997  -16.9637 C   0  0  0  0  0  0  0  0  0  0  0  0
    5.8644    8.1176  -22.1603 C   0  0  0  0  0  0  0  0  0  0  0  0
    7.2931   10.1497  -21.7242 C   0  0  0  0  0  0  0  0  0  0  0  0
    4.9797   10.0443  -20.7830 C   0  0  0  0  0  0  0  0  0  0  0  0
    4.2743    1.8303  -20.5493 C   0  0  0  0  0  0  0  0  0  0  0  0
    5.1054    4.5023  -17.9546 C   0  0  0  0  0  0  0  0  0  0  0  0
    5.0738    2.6055  -19.4895 C   0  0  1  0  0  0  0  0  0  0  0  0
    4.2390    3.7443  -18.9354 C   0  0  2  0  0  0  0  0  0  0  0  0
    6.2379    9.1898  -21.1122 C   0  0  0  0  0  0  0  0  0  0  0  0
    5.4698    1.7033  -18.3869 N   0  0  0  0  0  0  0  0  0  0  0  0
    4.3783    5.6913  -17.5387 N   0  0  0  0  0  0  0  0  0  0  0  0
    7.7220    2.0646  -18.5384 O   0  0  0  0  0  0  0  0  0  0  0  0
    5.9860    9.0962  -13.4275 O   0  0  0  0  0  0  0  0  0  0  0  0
    3.8471    4.6145  -19.9991 O   0  0  0  0  0  0  0  0  0  0  0  0
    4.8885   -3.0230  -20.8014 F   0  0  0  0  0  0  0  0  0  0  0  0
    8.3741   -0.1459  -22.3825 F   0  0  0  0  0  0  0  0  0  0  0  0
    9.6512    7.4697  -18.3101 H   0  0  0  0  0  0  0  0  0  0  0  0
    8.0162    6.5096  -16.7124 H   0  0  0  0  0  0  0  0  0  0  0  0
    8.8689    8.7211  -20.3025 H   0  0  0  0  0  0  0  0  0  0  0  0
    4.7893    7.9379  -19.1759 H   0  0  0  0  0  0  0  0  0  0  0  0
    3.6077   -0.7918  -20.2741 H   0  0  0  0  0  0  0  0  0  0  0  0
    6.7119    1.7993  -21.7777 H   0  0  0  0  0  0  0  0  0  0  0  0
    7.2526   -2.4737  -21.8402 H   0  0  0  0  0  0  0  0  0  0  0  0
    5.7079    9.2692  -16.0472 H   0  0  0  0  0  0  0  0  0  0  0  0
    4.1239    9.5952  -15.2653 H   0  0  0  0  0  0  0  0  0  0  0  0
    6.5982    6.4862  -13.6015 H   0  0  0  0  0  0  0  0  0  0  0  0
    7.2624    7.4426  -14.9692 H   0  0  0  0  0  0  0  0  0  0  0  0
    3.3504    7.3214  -15.8881 H   0  0  0  0  0  0  0  0  0  0  0  0
    3.8298    8.2731  -17.3342 H   0  0  0  0  0  0  0  0  0  0  0  0
    6.5619    5.2833  -15.8269 H   0  0  0  0  0  0  0  0  0  0  0  0
    4.9542    5.4339  -15.0398 H   0  0  0  0  0  0  0  0  0  0  0  0
    4.4809    7.6991  -13.7150 H   0  0  0  0  0  0  0  0  0  0  0  0
    8.1597    0.2687  -16.8608 H   0  0  0  0  0  0  0  0  0  0  0  0
    6.6440    0.6849  -15.9916 H   0  0  0  0  0  0  0  0  0  0  0  0
    6.6198   -0.5443  -17.3012 H   0  0  0  0  0  0  0  0  0  0  0  0
    5.4861    8.6086  -23.0691 H   0  0  0  0  0  0  0  0  0  0  0  0
    6.7552    7.5223  -22.4091 H   0  0  0  0  0  0  0  0  0  0  0  0
    5.0859    7.4583  -21.7489 H   0  0  0  0  0  0  0  0  0  0  0  0
    6.8735   10.6352  -22.6175 H   0  0  0  0  0  0  0  0  0  0  0  0
    7.5644   10.9164  -20.9835 H   0  0  0  0  0  0  0  0  0  0  0  0
    8.1898    9.5777  -22.0049 H   0  0  0  0  0  0  0  0  0  0  0  0
    4.6253   10.5433  -21.6971 H   0  0  0  0  0  0  0  0  0  0  0  0
    4.1859    9.3919  -20.3904 H   0  0  0  0  0  0  0  0  0  0  0  0
    5.2382   10.8020  -20.0286 H   0  0  0  0  0  0  0  0  0  0  0  0
    4.0840    2.4801  -21.4161 H   0  0  0  0  0  0  0  0  0  0  0  0
    3.3163    1.5008  -20.1207 H   0  0  0  0  0  0  0  0  0  0  0  0
    5.3197    3.8706  -17.0799 H   0  0  0  0  0  0  0  0  0  0  0  0
    6.0502    4.7924  -18.4376 H   0  0  0  0  0  0  0  0  0  0  0  0
    5.9751    3.0216  -19.9633 H   0  0  0  0  0  0  0  0  0  0  0  0
    3.3585    3.3385  -18.4158 H   0  0  0  0  0  0  0  0  0  0  0  0
    4.7476    1.2129  -17.8991 H   0  0  0  0  0  0  0  0  0  0  0  0
    3.6293    5.4092  -16.9391 H   0  0  0  0  0  0  0  0  0  0  0  0
    4.0042    6.1334  -18.3539 H   0  0  0  0  0  0  0  0  0  0  0  0
    6.2959    8.6849  -12.6291 H   0  0  0  0  0  0  0  0  0  0  0  0
    3.3030    4.1376  -20.6148 H   0  0  0  0  0  0  0  0  0  0  0  0
  1  2  2  0
  1  3  1  0
  2  8  1  0
  3  9  2  0
  4  8  2  0
  4  9  1  0
  5 10  2  0
  5 11  1  0
  6 10  1  0
  6 12  2  0
  7 11  2  0
  7 12  1  0
  8 19  1  0
  9 28  1  0
 10 24  1  0
 11 34  1  0
 12 35  1  0
 13 20  1  0
 13 29  1  0
 13 31  2  0
 14 16  1  0
 14 18  1  0
 15 17  1  0
 15 18  1  0
 16 19  1  0
 17 19  1  0
 18 32  1  0
 19 30  1  6
 21 28  1  0
 22 28  1  0
 23 28  1  0
 24 26  1  0
 25 27  1  0
 25 30  1  0
 26 27  1  0
 26 29  1  0
 27 33  1  0
  1 36  1  0
  2 37  1  0
  3 38  1  0
  4 39  1  0
  5 40  1  0
  6 41  1  0
  7 42  1  0
 14 43  1  0
 14 44  1  0
 15 45  1  0
 15 46  1  0
 16 47  1  0
 16 48  1  0
 17 49  1  0
 17 50  1  0
 18 51  1  1
 20 52  1  0
 20 53  1  0
 20 54  1  0
 21 55  1  0
 21 56  1  0
 21 57  1  0
 22 58  1  0
 22 59  1  0
 22 60  1  0
 23 61  1  0
 23 62  1  0
 23 63  1  0
 24 64  1  0
 24 65  1  0
 25 66  1  0
 25 67  1  0
 26 68  1  6
 27 69  1  1
 29 70  1  0
 30 71  1  0
 30 72  1  0
 32 73  1  0
 33 74  1  0
M  CHG  1  30   1
M  END
>  <OMEGA_C>  (114) 
BXwJQYUd80Di3JPBi1H1QIzD4UA2nIzBJGQCQR3gBEFs55zBpRG7QEQ+/EBbrJfBuaGSQMBRKb98
xKXBRBXLQNdaTj+LgKzBVbXUQK0zzr+V1qzBBcjIQLkM50DQUI7Bb23YQLuXB0GP0p7Bg0eiQNLQ
IT/S3KfBtbGrQM8h5L8QV6jBYHLkQG5Hob4S4a7BXSbZQGxlvz/S5I/BPVqbQLEHDUFtXHjB8TDL
QFIf4EC+omjB10mGQJ7b+EBtY4PBb4y4QLGIv0BtjnjBpBerQJQPAkE32GPBYmimQOJF1UDGlIbB
YFHiQNyrzD7BtYfB4qi7QL/hAUFkSLHBeGHpQCNlIkEQy63BT1mfQKi1IEGmQ6bBUceIQFBG6j/f
ZKTByF+jQCYTkEAJo4/B81yiQLS/JkBp6pvBRKaHQHiib0DJe5fBfJzHQIgJE0Gx5ajBcwivQO0F
2j9LGJPBshqMQOYetkBGT4zBSxr3QBEjBECwTpTBm42/QDaKEUHm1lbBXzd2QOGpk0BA/p/Bam6c
QEF5QcAuaabBMfwFQeJjFb5gD7PBT2saQQsI70D+epLBYUIAQWxO0EAAs4XBDucNQcmJC0F0a6LB
IkKZQP0C/kBFaJnB5+RmQGq0Sr9GMaLBE8jWQK1Q5j+nOK7BbRXoQHFRHsC6uK7BIKe2QMJOFEG5
YIDB9vaDQOWFGUHWPnTBEiTTQNCOz0Chn1nB6mXoQHIp7kDsgW/BgG1WQO9I6kB4NX7B9Bp1QG9e
BEFjrIrB4PrRQHUQqUAOO33BNYmeQELirUAao3DBq2OPQCtf9kC+cFvBTo4CQbeUiT4B44bBdpvU
QIxWLz+F3X/BR9XTQG1XC7/daIrBPo6vQM68CUGNjbjB7irYQFy28EDpRbPB0r+iQEGq7kC5/a3B
zPPbQPMpKkG68LTBfg/yQMGpLkFG3qfBWwkDQRc+GUEMCrDBaQKUQGqxKEGZk63BuPKFQApFFkF/
H6PBX5+nQNDULEGNOqDBN7CCQCu6HkA/VKvB8z5UQDAZwD8g96DBmjqqQLO4d0Cso4jBPZvBQF1b
mUA7gJPBTTS/QIxhQUDStJ/BVPJWQMupVUCMU5PBV+yXQPs+mz9ZMY/BukZoQCIYrUBLg4fBCyKA
QJpExEDb1JLB5nfJQHP1CkH+EErB/mNTQKBnhEAa66TBXqQJQfGX8kCwx5PBhoT1QN1/4UD1g4zB
eZ4CQeKgBEFW1ZzB3XS7QGxE/EAjmJfBJgzLQEvhSz9JiazB9wqTQFloLb/JqKXBugvVQLNTz7+i
1qzBcQTJQGcL50B7O47Bp+rYQKiBB0GPvp7Bg26iQJ9XHj+szafBRn/kQPDmpL4k8q7ByTisQLXd
5b8OP6jByajZQA2PwT+Y/I/BbACcQKfoDEGf3XfB7yrLQHIb30A+bWjBsrOGQKQ0+UBwRoPBM1W4
QLAQv0BUkXjBclarQNycAUEdc2PBknKmQBxg1UC7iobB4yzjQMHT1D6y1YfBapq9QC/JAUEbVLHB
ELnpQIW9IkHfgK3BuDafQNokIEEwWKbBVsaIQBVo6D/3VqTBOiujQF2MkED8x4/B+VGiQPrkJkDG
8ZvBLViHQP+Yb0BNhJfBIULIQKbwEkEd1qjBkGqvQB+/2z+lF5PByvaLQEmTtkCJX4zBGGr3QME3
BUCae5TBrvW/QKjUEEFqMlbBQUd0QO49k0BZCqDBge8FQQxDGL75M7PBqFudQPd1QsBSMabBMpAa
QVNK7kDYZZLBk0wAQYUN0EA6l4XBxSsOQSotC0G9XKLB3aiZQDw3/kA9VZnB84rWQIM15T9xTa7B
ze1nQE27T78TCaLBDn/oQHW6HsAyvq7BG4e3QGUlFEEEDoDBeNeEQOh4GUHepHPB7evSQFMczkCQ
glnBmIPoQJkV7UBMLm/B87lWQOe/6kDkJH7BSqB2QFDLBEFfhorBlJvRQEiAqEDpVn3BlCSeQMxx
rUB8x3DB1XCPQIB99UCFM1vBMwADQa5akT5QHIfBrtLVQJFPMz+CBIDB64zUQJ8hB7+df4rBsp+x
QI+dCUFenrjBhaXaQCw18UC1PLPBbPSkQCLW7UDpLK7BE37cQAWCKkGErLTBP3TxQJj6LkFde6fB
y3kDQdnuGUEaqa/B3BOUQDAcKEFVrq3BQAqGQJxjFUHHW6PBgoOmQHVDLEHYOqDBJlSCQKNJHUA8
TavBFplUQKmovT/V1qDBnI6qQOH7eEAMyojBrx3BQLX8mUA1wpPBDPO+QATbQUB2zJ/BL/xWQPlB
VUCtQpPB43uYQPiRnT+rFo/BVdJnQEh2rUAynYfByx6AQLoLxUB73ZLB1Z/JQKkKCkEefEnBrllR
QHmmg0B446TB

>  <OMEGA_E>  (114) 
oJFJPrClSz4=

>  <OMEGA_NBR>  (114) 
    164740

$$$$
50212899
     RDKit          3D

 72 74  0  0  1  0  0  0  0  0999 V2000
    8.5708    7.5412  -18.4805 C   0  0  0  0  0  0  0  0  0  0  0  0
    7.6444    7.0404  -17.5499 C   0  0  0  0  0  0  0  0  0  0  0  0
    8.1296    8.2272  -19.6251 C   0  0  0  0  0  0  0  0  0  0  0  0
    5.8253    7.8720  -18.9346 C   0  0  0  0  0  0  0  0  0  0  0  0
    4.5904   -0.6711  -20.7007 C   0  0  0  0  0  0  0  0  0  0  0  0
    6.3529    0.7924  -21.5514 C   0  0  0  0  0  0  0  0  0  0  0  0
    6.6507   -1.6258  -21.5920 C   0  0  0  0  0  0  0  0  0  0  0  0
    6.2547    7.2260  -17.7532 C   0  0  0  0  0  0  0  0  0  0  0  0
    6.7449    8.4186  -19.8576 C   0  0  0  0  0  0  0  0  0  0  0  0
    5.0795    0.6230  -20.9651 C   0  0  0  0  0  0  0  0  0  0  0  0
    5.3718   -1.7944  -21.0233 C   0  0  0  0  0  0  0  0  0  0  0  0
    7.1422   -0.3311  -21.8524 C   0  0  0  0  0  0  0  0  0  0  0  0
    5.3992    8.1095  -14.2303 C   0  0  0  0  0  0  0  0  0  0  0  0
    6.8013    1.5228  -18.0157 C   0  0  0  0  0  0  0  0  0  0  0  0
    4.8326    8.8301  -15.4469 C   0  0  0  0  0  0  0  0  0  0  0  0
    6.3472    6.9381  -14.4623 C   0  0  0  0  0  0  0  0  0  0  0  0
    4.1844    7.7931  -16.3616 C   0  0  0  0  0  0  0  0  0  0  0  0
    5.7477    5.9655  -15.4975 C   0  0  0  0  0  0  0  0  0  0  0  0
    5.1840    6.6770  -16.7788 C   0  0  0  0  0  0  0  0  0  0  0  0
    7.0965    0.4393  -16.9833 C   0  0  0  0  0  0  0  0  0  0  0  0
    5.8441    8.0093  -22.1625 C   0  0  0  0  0  0  0  0  0  0  0  0
    7.2884   10.0377  -21.7786 C   0  0  0  0  0  0  0  0  0  0  0  0
    4.9734    9.9768  -20.8381 C   0  0  0  0  0  0  0  0  0  0  0  0
    4.2776    1.8273  -20.5429 C   0  0  0  0  0  0  0  0  0  0  0  0
    5.0873    4.5275  -17.9524 C   0  0  0  0  0  0  0  0  0  0  0  0
    5.0739    2.6294  -19.4989 C   0  0  1  0  0  0  0  0  0  0  0  0
    4.2361    3.7763  -18.9561 C   0  0  2  0  0  0  0  0  0  0  0  0
    6.2251    9.1037  -21.1397 C   0  0  0  0  0  0  0  0  0  0  0  0
    5.4794    1.7462  -18.3858 N   0  0  0  0  0  0  0  0  0  0  0  0
    4.3563    5.7099  -17.5098 N   0  0  0  0  0  0  0  0  0  0  0  0
    5.4190    8.6878  -13.1528 O   0  0  0  0  0  0  0  0  0  0  0  0
    7.7318    2.0618  -18.6059 O   0  0  0  0  0  0  0  0  0  0  0  0
    3.8757    4.6528  -20.0248 O   0  0  0  0  0  0  0  0  0  0  0  0
    4.8960   -3.0352  -20.7783 F   0  0  0  0  0  0  0  0  0  0  0  0
    8.3740   -0.1657  -22.3842 F   0  0  0  0  0  0  0  0  0  0  0  0
    9.6284    7.3979  -18.3151 H   0  0  0  0  0  0  0  0  0  0  0  0
    7.9936    6.5115  -16.6755 H   0  0  0  0  0  0  0  0  0  0  0  0
    8.8504    8.6109  -20.3319 H   0  0  0  0  0  0  0  0  0  0  0  0
    4.7673    7.9499  -19.1370 H   0  0  0  0  0  0  0  0  0  0  0  0
    3.6169   -0.8002  -20.2511 H   0  0  0  0  0  0  0  0  0  0  0  0
    6.7201    1.7846  -21.7683 H   0  0  0  0  0  0  0  0  0  0  0  0
    7.2543   -2.4897  -21.8284 H   0  0  0  0  0  0  0  0  0  0  0  0
    4.0798    9.5652  -15.1262 H   0  0  0  0  0  0  0  0  0  0  0  0
    5.6425    9.3452  -15.9843 H   0  0  0  0  0  0  0  0  0  0  0  0
    7.3098    7.3179  -14.8353 H   0  0  0  0  0  0  0  0  0  0  0  0
    6.5062    6.4058  -13.5129 H   0  0  0  0  0  0  0  0  0  0  0  0
    3.3382    7.3316  -15.8315 H   0  0  0  0  0  0  0  0  0  0  0  0
    3.8181    8.2983  -17.2674 H   0  0  0  0  0  0  0  0  0  0  0  0
    6.5335    5.2614  -15.8085 H   0  0  0  0  0  0  0  0  0  0  0  0
    4.9271    5.4110  -15.0187 H   0  0  0  0  0  0  0  0  0  0  0  0
    8.1834    0.2864  -16.9120 H   0  0  0  0  0  0  0  0  0  0  0  0
    6.7050    0.7502  -16.0035 H   0  0  0  0  0  0  0  0  0  0  0  0
    6.6135   -0.5003  -17.2898 H   0  0  0  0  0  0  0  0  0  0  0  0
    5.4712    8.4813  -23.0834 H   0  0  0  0  0  0  0  0  0  0  0  0
    6.7304    7.4008  -22.3954 H   0  0  0  0  0  0  0  0  0  0  0  0
    5.0597    7.3666  -21.7364 H   0  0  0  0  0  0  0  0  0  0  0  0
    6.8728   10.5009  -22.6856 H   0  0  0  0  0  0  0  0  0  0  0  0
    7.5656   10.8230  -21.0599 H   0  0  0  0  0  0  0  0  0  0  0  0
    8.1806    9.4508  -22.0425 H   0  0  0  0  0  0  0  0  0  0  0  0
    4.6247   10.4521  -21.7668 H   0  0  0  0  0  0  0  0  0  0  0  0
    4.1737    9.3420  -20.4286 H   0  0  0  0  0  0  0  0  0  0  0  0
    5.2363   10.7537  -20.1051 H   0  0  0  0  0  0  0  0  0  0  0  0
    4.0784    2.4615  -21.4193 H   0  0  0  0  0  0  0  0  0  0  0  0
    3.3242    1.4982  -20.1040 H   0  0  0  0  0  0  0  0  0  0  0  0
    5.3002    3.8796  -17.0893 H   0  0  0  0  0  0  0  0  0  0  0  0
    6.0331    4.8324  -18.4241 H   0  0  0  0  0  0  0  0  0  0  0  0
    5.9709    3.0427  -19.9831 H   0  0  0  0  0  0  0  0  0  0  0  0
    3.3412    3.3761  -18.4571 H   0  0  0  0  0  0  0  0  0  0  0  0
    4.7609    1.2817  -17.8680 H   0  0  0  0  0  0  0  0  0  0  0  0
    3.6122    5.4148  -16.9104 H   0  0  0  0  0  0  0  0  0  0  0  0
    3.9755    6.1651  -18.3146 H   0  0  0  0  0  0  0  0  0  0  0  0
    3.3419    4.1824  -20.6544 H   0  0  0  0  0  0  0  0  0  0  0  0
  1  2  2  0
  1  3  1  0
  2  8  1  0
  3  9  2  0
  4  8  2  0
  4  9  1  0
  5 10  2  0
  5 11  1  0
  6 10  1  0
  6 12  2  0
  7 11  2  0
  7 12  1  0
  8 19  1  0
  9 28  1  0
 10 24  1  0
 11 34  1  0
 12 35  1  0
 13 15  1  0
 13 16  1  0
 13 31  2  0
 14 20  1  0
 14 29  1  0
 14 32  2  0
 15 17  1  0
 16 18  1  0
 17 19  1  0
 18 19  1  0
 19 30  1  0
 21 28  1  0
 22 28  1  0
 23 28  1  0
 24 26  1  0
 25 27  1  0
 25 30  1  0
 26 27  1  0
 26 29  1  0
 27 33  1  0
  1 36  1  0
  2 37  1  0
  3 38  1  0
  4 39  1  0
  5 40  1  0
  6 41  1  0
  7 42  1  0
 15 43  1  0
 15 44  1  0
 16 45  1  0
 16 46  1  0
 17 47  1  0
 17 48  1  0
 18 49  1  0
 18 50  1  0
 20 51  1  0
 20 52  1  0
 20 53  1  0
 21 54  1  0
 21 55  1  0
 21 56  1  0
 22 57  1  0
 22 58  1  0
 22 59  1  0
 23 60  1  0
 23 61  1  0
 23 62  1  0
 24 63  1  0
 24 64  1  0
 25 65  1  0
 25 66  1  0
 26 67  1  6
 27 68  1  1
 29 69  1  0
 30 70  1  0
 30 71  1  0
 33 72  1  0
M  CHG  1  30   1
M  END
>  <OMEGA_C>  (115) 
2yEJQURR8UAb2JPBqZ70QDVL4UA/ZozBtxICQbCiA0FKAJ3Bs2i6QLLn+0D5eZfBX+SSQMTNK78U
m6XBwkrLQATaSj8yaazBlNLUQLIa0L9zvKzB5CbIQIM750B8Bo7BadbXQJGyBkFM3J7BpouiQP15
Hz+buKfBvuWrQJOv5b+hL6jB54zkQPp/qb620a7BJMasQIrAAUF9r2PBhKTZQD3swj85IJDB56Sa
QBhIDUFsJnfBXBzLQAAF3kB4ZWfBquaFQN1g+UCG5ILB5uy3QAHlvkC19XfBf+OlQFiq1UAGO4bB
QRbjQPjm4D7m3YfB+gK7QD4mAEG0TLHBzTrpQDiaIEF6Oq7BuiWfQP6gH0FZtKbBaeKIQI3m6T/X
V6TBNsuiQIrhkEB6no/BI12iQNVHKEDR/ZvB4I2HQFKvcUACppfBFTTHQNyoEUExHqnB8lavQNaC
3z8JFpPBwWaLQGe3tkD8E4zBlWitQGYBC0G5cVLBiGr3QAz1A0Di2JTBswp4QMTjlEC9MqDBGayc
QFFAQsDpOabBFPwFQTysKb7UErPBzA0aQdO77EBbhZLBdsv/QC9e0EBcZ4XBQpsNQVLGCUHSp6LB
i42YQJtl/kB+GJnB/XtnQOHYTL8+AqLBQQvXQFRt5D+KJa7B2yLoQPdWH8B9oK7Bfo2CQBQLGUH4
BHLBGY+0QB+GFUGUv3/BxunpQJgs6kCJXW3B4jLQQAb8zEDMNFjBQKVVQNqc6kCjTX3BIVt0QM3F
BEGvI4rBgBLRQAVdqEBr73zBw6qdQOYmrUCYTHDBaO8CQYOckj7SS4fBNo/WQO0KQD8yB4DBmqHT
QCUUAL+SUYrBqhOvQD+zB0HaqrjBO1/XQJTT7EC/KbPBAemhQBO760AQ5K3BUu7bQJcDKEEVfLXB
XRnyQAkrLUHGeqjBi+MCQVQ2F0EUV7DBff2TQMw7J0FgIq7BS4+FQN94FUHJbaPBKZCnQCQPLEEv
16DB9YGCQHuJHUDCWqvBRL9UQD3Gvz8R1aDB+pqpQLdKeED9tojBLg/BQOyimkCVZJPByBG/QDW8
QkBv3Z/BItZVQMcRWEALqJPBgVmYQLUOpD+b8Y7B2S1nQClGrUCFSIfBXW5+QIpIxUBLhJLBfuJV
QH3WhUAvPKXBiH0JQfHl8UAOuZPB6BX1QDnB4UDCW4zBqJUCQbL8A0HX45zB/j+7QLx9/EBKipfB
WxrMQA1dTj+Di6zBbyqTQOInJ7/U9KXBwBfVQN6Zzr9wBa3BHK3IQIiy50DxE47Boe3YQH8PB0HQ
1p7ByiqjQCK5Iz9a9KfB0ijlQHgcpL6R/q7BjAOsQJio47+0jKjBSUGsQJfqAUGx7mPB9tnZQDTH
wD9SGpDBJW+aQD9yDUEleHfB4avKQPdd3kAtg2fBovyFQPqu+UC/GIPBZdW3QDtCv0D9K3jBdymm
QJcJ1kBYX4bBD/HiQEtq0z4y5YfBEyO9QIKxAEH5Y7HBxsnqQLBDIUHrCK7BxFWgQIPwH0H0xqbB
0KaJQA7z6z8hh6TBk3ujQPorkUDOwo/BNteiQMkKKECi/5vBoqSHQFgdcECycpfBy63IQIwfEkFK
G6nBPLSvQL1t3D+JOJPB+/SLQL4Nt0CZR4zBjJCsQPgnC0GMrlLB9sz3QBGeBECJi5TBsDtzQAlv
k0BC5Z/BmVgGQYW0I76JMbPBLIOcQHcfQcAfqKbBtGMaQRpQ7UBwVJLBqwIAQfW70EB8WoXBjTYO
QYMqCkENfKLBmXOZQKX3/kAHPJnBPibYQNwb5j8cLK7BMrhnQNZpR78ccKLBlEToQAe6HsDB767B
FTqCQBIxGUFNcHLBpXm0QPq0FUEx9H/BxpTpQFmL6kBIVG3BwXnPQIBQzUDaTVjBZZpVQK/b6kDZ
0n3B2e50QFXrBEGHXYrBTBjRQILCqECiCX3BUXOdQI56rUAkpHDB4twCQTHTjj5/E4fB3UjVQCvK
Mz8/H4DBmVvUQCTiB7+rkYrB/nqxQC9QCEGyxLjB27fZQJYn7kC6MrPB5f+jQG2O7ECXGa7Bq8zd
QI3AKEGBTrXBhinzQF/DLUEkNKjBG8oDQUcBGEGAFbDBfXqVQHOdJ0FyN67BDLOGQHipFUEQn6PB
BUuoQNtPLEHY16DB1M+DQDVuH0AmfavBHL9VQCv6wT+aKKHB4FirQJtgekDUyYjBVS3BQP3xmkBE
zpPBPoq/QGaiQ0DAv5/BRF9YQB7wVEA+HZPBt6WYQJkWnj+iRY/Bz+hnQPeerUAdi4fBWgeAQGmZ
xUBgwJLBe1VQQCypg0DMtaTB

>  <OMEGA_E>  (115) 
AI38PUBxAD4=

>  <OMEGA_NBR>  (115) 
    167343

$$$$
50212922
     RDKit          3D

 76 78  0  0  1  0  0  0  0  0999 V2000
    8.6244    7.6493  -18.3844 C   0  0  0  0  0  0  0  0  0  0  0  0
    7.6742    7.1151  -17.4951 C   0  0  0  0  0  0  0  0  0  0  0  0
    8.2077    8.3450  -19.5351 C   0  0  0  0  0  0  0  0  0  0  0  0
    5.8920    7.9088  -18.9472 C   0  0  0  0  0  0  0  0  0  0  0  0
    6.2746    0.7662  -21.5314 C   0  0  0  0  0  0  0  0  0  0  0  0
    4.5462   -0.7023  -20.6187 C   0  0  0  0  0  0  0  0  0  0  0  0
    6.6098   -1.6450  -21.5119 C   0  0  0  0  0  0  0  0  0  0  0  0
    6.2898    7.2529  -17.7701 C   0  0  0  0  0  0  0  0  0  0  0  0
    6.8262    8.5106  -19.8088 C   0  0  0  0  0  0  0  0  0  0  0  0
    5.0137    0.5888  -20.9234 C   0  0  0  0  0  0  0  0  0  0  0  0
    7.0788   -0.3494  -21.8097 C   0  0  0  0  0  0  0  0  0  0  0  0
    5.3402   -1.8194  -20.9224 C   0  0  0  0  0  0  0  0  0  0  0  0
    7.0252    9.4773  -13.3644 C   0  0  0  0  0  0  0  0  0  0  0  0
    6.8666    1.5550  -18.0248 C   0  0  0  0  0  0  0  0  0  0  0  0
    4.8098    8.7451  -15.4665 C   0  0  0  0  0  0  0  0  0  0  0  0
    4.1756    7.7820  -16.4531 C   0  0  0  0  0  0  0  0  0  0  0  0
    5.7471    5.9490  -15.6133 C   0  0  0  0  0  0  0  0  0  0  0  0
    5.2797    7.9164  -14.2575 C   0  0  2  0  0  0  0  0  0  0  0  0
    5.1883    6.6781  -16.8616 C   0  0  2  0  0  0  0  0  0  0  0  0
    7.2246    0.5216  -16.9598 C   0  0  0  0  0  0  0  0  0  0  0  0
    5.9649    8.1552  -22.1274 C   0  0  0  0  0  0  0  0  0  0  0  0
    7.3662   10.2020  -21.6572 C   0  0  0  0  0  0  0  0  0  0  0  0
    5.0400   10.0664  -20.7529 C   0  0  0  0  0  0  0  0  0  0  0  0
    4.2210    1.7838  -20.4887 C   0  0  0  0  0  0  0  0  0  0  0  0
    5.0982    4.4968  -17.9639 C   0  0  0  0  0  0  0  0  0  0  0  0
    5.0565    2.5831  -19.4805 C   0  0  1  0  0  0  0  0  0  0  0  0
    4.2186    3.7121  -18.9088 C   0  0  2  0  0  0  0  0  0  0  0  0
    6.3137    9.2271  -21.0700 C   0  0  0  0  0  0  0  0  0  0  0  0
    5.8388    8.7671  -13.2221 N   0  0  0  0  0  0  0  0  0  0  0  0
    5.5297    1.7029  -18.3864 N   0  0  0  0  0  0  0  0  0  0  0  0
    4.3870    5.7174  -17.6081 N   0  0  0  0  0  0  0  0  0  0  0  0
    6.2767    6.9036  -14.6471 N   0  0  0  0  0  0  0  0  0  0  0  0
    7.6645    9.4876  -14.4110 O   0  0  0  0  0  0  0  0  0  0  0  0
    7.7639    2.1290  -18.6332 O   0  0  0  0  0  0  0  0  0  0  0  0
    3.7684    4.5603  -19.9687 O   0  0  0  0  0  0  0  0  0  0  0  0
    8.3047   -0.1734  -22.3508 F   0  0  0  0  0  0  0  0  0  0  0  0
    4.8886   -3.0584  -20.6302 F   0  0  0  0  0  0  0  0  0  0  0  0
    9.6783    7.5251  -18.1834 H   0  0  0  0  0  0  0  0  0  0  0  0
    7.9989    6.6001  -16.6031 H   0  0  0  0  0  0  0  0  0  0  0  0
    8.9430    8.7542  -20.2120 H   0  0  0  0  0  0  0  0  0  0  0  0
    4.8420    7.9518  -19.1967 H   0  0  0  0  0  0  0  0  0  0  0  0
    6.6199    1.7584  -21.7820 H   0  0  0  0  0  0  0  0  0  0  0  0
    3.5806   -0.8336  -20.1532 H   0  0  0  0  0  0  0  0  0  0  0  0
    7.2233   -2.5053  -21.7354 H   0  0  0  0  0  0  0  0  0  0  0  0
    7.3979   10.0410  -12.5220 H   0  0  0  0  0  0  0  0  0  0  0  0
    5.6681    9.2511  -15.9328 H   0  0  0  0  0  0  0  0  0  0  0  0
    4.0722    9.4952  -15.1452 H   0  0  0  0  0  0  0  0  0  0  0  0
    3.2967    7.3127  -15.9871 H   0  0  0  0  0  0  0  0  0  0  0  0
    3.8628    8.3364  -17.3503 H   0  0  0  0  0  0  0  0  0  0  0  0
    4.9387    5.3706  -15.1422 H   0  0  0  0  0  0  0  0  0  0  0  0
    6.5523    5.2674  -15.9248 H   0  0  0  0  0  0  0  0  0  0  0  0
    4.4000    7.3974  -13.8491 H   0  0  0  0  0  0  0  0  0  0  0  0
    8.3186    0.4341  -16.8861 H   0  0  0  0  0  0  0  0  0  0  0  0
    6.8160    0.8390  -15.9891 H   0  0  0  0  0  0  0  0  0  0  0  0
    6.7968   -0.4533  -17.2366 H   0  0  0  0  0  0  0  0  0  0  0  0
    5.5954    8.6461  -23.0398 H   0  0  0  0  0  0  0  0  0  0  0  0
    6.8645    7.5686  -22.3653 H   0  0  0  0  0  0  0  0  0  0  0  0
    5.1865    7.4875  -21.7295 H   0  0  0  0  0  0  0  0  0  0  0  0
    6.9557   10.6887  -22.5542 H   0  0  0  0  0  0  0  0  0  0  0  0
    7.6161   10.9667  -20.9071 H   0  0  0  0  0  0  0  0  0  0  0  0
    8.2740    9.6423  -21.9268 H   0  0  0  0  0  0  0  0  0  0  0  0
    4.6934   10.5679  -21.6685 H   0  0  0  0  0  0  0  0  0  0  0  0
    4.2478    9.4024  -20.3765 H   0  0  0  0  0  0  0  0  0  0  0  0
    5.2791   10.8213  -19.9895 H   0  0  0  0  0  0  0  0  0  0  0  0
    3.9906    2.4132  -21.3609 H   0  0  0  0  0  0  0  0  0  0  0  0
    3.2838    1.4551  -20.0158 H   0  0  0  0  0  0  0  0  0  0  0  0
    5.2998    3.9036  -17.0598 H   0  0  0  0  0  0  0  0  0  0  0  0
    6.0487    4.7473  -18.4577 H   0  0  0  0  0  0  0  0  0  0  0  0
    5.9235    3.0128  -20.0036 H   0  0  0  0  0  0  0  0  0  0  0  0
    3.3652    3.2926  -18.3559 H   0  0  0  0  0  0  0  0  0  0  0  0
    5.3423    8.8465  -12.3578 H   0  0  0  0  0  0  0  0  0  0  0  0
    4.8460    1.1820  -17.8753 H   0  0  0  0  0  0  0  0  0  0  0  0
    3.5955    5.4681  -17.0501 H   0  0  0  0  0  0  0  0  0  0  0  0
    6.5664    6.4062  -13.8293 H   0  0  0  0  0  0  0  0  0  0  0  0
    7.0649    7.3672  -15.0519 H   0  0  0  0  0  0  0  0  0  0  0  0
    3.2159    4.0628  -20.5601 H   0  0  0  0  0  0  0  0  0  0  0  0
  1  2  2  0
  1  3  1  0
  2  8  1  0
  3  9  2  0
  4  8  2  0
  4  9  1  0
  5 10  2  0
  5 11  1  0
  6 10  1  0
  6 12  2  0
  7 11  2  0
  7 12  1  0
  8 19  1  0
  9 28  1  0
 10 24  1  0
 11 36  1  0
 12 37  1  0
 13 29  1  0
 13 33  2  0
 14 20  1  0
 14 30  1  0
 14 34  2  0
 15 16  1  0
 15 18  1  0
 16 19  1  0
 17 19  1  0
 17 32  1  0
 18 29  1  0
 18 32  1  0
 19 31  1  6
 21 28  1  0
 22 28  1  0
 23 28  1  0
 24 26  1  0
 25 27  1  0
 25 31  1  0
 26 27  1  0
 26 30  1  0
 27 35  1  0
  1 38  1  0
  2 39  1  0
  3 40  1  0
  4 41  1  0
  5 42  1  0
  6 43  1  0
  7 44  1  0
 13 45  1  0
 15 46  1  0
 15 47  1  0
 16 48  1  0
 16 49  1  0
 17 50  1  0
 17 51  1  0
 18 52  1  1
 20 53  1  0
 20 54  1  0
 20 55  1  0
 21 56  1  0
 21 57  1  0
 21 58  1  0
 22 59  1  0
 22 60  1  0
 22 61  1  0
 23 62  1  0
 23 63  1  0
 23 64  1  0
 24 65  1  0
 24 66  1  0
 25 67  1  0
 25 68  1  0
 26 69  1  6
 27 70  1  1
 29 71  1  0
 30 72  1  0
 31 73  1  0
 32 74  1  0
 32 75  1  0
 35 76  1  0
M  CHG  1  32   1
M  END
>  <OMEGA_C>  (116) 
rP0JQd3G9EA3E5PByZL1QOuu40AO9ovBplIDQQCFBUHLR5zB74q8QMAU/UD3k5fB2snIQMEnRD9h
QKzBvXqRQIDHM78s86TBMoPTQPGP0r9sGKzB7EXJQBQY6EBBKY7BoHDaQI4rCEGEeJ7BUHCgQHK4
Fj8gY6fBgYXiQP3msr5Teq7B7uKqQDni6L8eYafBYs7gQP2iF0GF1FXB7brbQJ8Lxz/GMpDBHOqZ
QOzrC0HPdnfBwp6FQCgG+UAFoIPB5ue3QHZevkA30HnBf/OoQPxS/UDEHmTBigamQO6y1UB65IbB
1S/nQCqFBT+trYfBb+C+QKR7AkHUBLHBx7frQDM7I0HzQa3BS0ehQNIPIUH4BabBxhKHQAJT5D/k
6KPBIySjQAbmj0Ahto/B9M6hQI1RJUAC2JvB6/6GQGuTbUAgRZfBMgrKQB2iE0FSj6jBr9e6QOpF
DEHXjVPBh/OwQHT32T9DF5PBRGKMQEb1tkBx3YzB0NrIQAHq3ECDWmrBPEP1QATNF0FTk2bBPnL4
QHxBCEC1EJXB9i1xQNrtkUDfv5/BJOAEQSmYMb6DzrLBGm+cQBG9Q8CwCqXBNNoaQYfN8ECWd5HB
Fff/QO8z00Ax04TBkhYPQQIRDEEusqHB+PGaQAV1/kDKkpnBa9bTQDoT4T+JQa7B6ChlQOhlVb+y
OaHBUCXnQCtWIMAo4q3Bc7vsQB6oIEHuWUjBwWC1QI0EFEGP7H7BT0+CQEfsF0GuUnLB+fxSQG0B
6kAfy3/BaDh3QLlhBUFWzYrB/gmeQMjbq0BiRnLBXazRQIuOqEDHy37BGM2MQFm37ED2lV3BGhkF
QUVF3j6/FofB7xzaQHDFVj8u03/BRH/ZQFYX6L6S5InBvw2zQEdWCkF9UbjBNKrbQEIy8kAq7LLB
w/elQMKZ70D21a3B15TeQNMEK0H4brTBfbfzQL13L0HGQafBPmIEQfBGGkEtaq/BaTCWQFAWKUEd
Wa3BTO6HQC9wFkEOA6PBV+6oQC0kLUF16p/BUWV/QC9xGkAy46rBlypSQCNBuj9eIKDBPJipQC/U
eUCNeojBmY7BQCnql0BdqZPBR429QB3SQEBoB6DBn15XQDK6UkD12JLB6POqQDyLDUFouUXBDhKb
QABNlz+XAI/BTBxmQBP7rkCuZojBth/SQL3/zEDwRF3BUBPiQATA60Ck1HDB99FNQA0CgkD9eqTB

>  <OMEGA_E>  (116) 
1A27Pg==

>  <OMEGA_NBR>  (116) 
    168902

$$$$
50212920
     RDKit          3D

 75 77  0  0  1  0  0  0  0  0999 V2000
    8.6027    7.6896  -18.4486 C   0  0  0  0  0  0  0  0  0  0  0  0
    7.6797    7.1202  -17.5556 C   0  0  0  0  0  0  0  0  0  0  0  0
    8.1532    8.3871  -19.5825 C   0  0  0  0  0  0  0  0  0  0  0  0
    5.8542    7.8899  -18.9662 C   0  0  0  0  0  0  0  0  0  0  0  0
    6.3136    0.8053  -21.5249 C   0  0  0  0  0  0  0  0  0  0  0  0
    4.5756   -0.6746  -20.6494 C   0  0  0  0  0  0  0  0  0  0  0  0
    6.6522   -1.6054  -21.5251 C   0  0  0  0  0  0  0  0  0  0  0  0
    6.2863    7.2238  -17.8045 C   0  0  0  0  0  0  0  0  0  0  0  0
    6.7652    8.5201  -19.8363 C   0  0  0  0  0  0  0  0  0  0  0  0
    5.0447    0.6201  -20.9357 C   0  0  0  0  0  0  0  0  0  0  0  0
    7.1231   -0.3064  -21.8039 C   0  0  0  0  0  0  0  0  0  0  0  0
    5.3755   -1.7875  -20.9539 C   0  0  0  0  0  0  0  0  0  0  0  0
    6.7785    1.5249  -17.9513 C   0  0  0  0  0  0  0  0  0  0  0  0
    4.8570    8.7010  -15.4735 C   0  0  0  0  0  0  0  0  0  0  0  0
    4.2030    7.7252  -16.4298 C   0  0  0  0  0  0  0  0  0  0  0  0
    5.8178    5.9088  -15.6226 C   0  0  0  0  0  0  0  0  0  0  0  0
    5.3908    7.8915  -14.2747 C   0  0  2  0  0  0  0  0  0  0  0  0
    5.2157    6.6324  -16.8625 C   0  0  2  0  0  0  0  0  0  0  0  0
    7.0670    0.4854  -16.8717 C   0  0  0  0  0  0  0  0  0  0  0  0
    7.2829   10.1699  -21.7339 C   0  0  0  0  0  0  0  0  0  0  0  0
    5.0004   10.1296  -20.7117 C   0  0  0  0  0  0  0  0  0  0  0  0
    5.7909    8.1736  -22.1101 C   0  0  0  0  0  0  0  0  0  0  0  0
    4.2414    1.8103  -20.5079 C   0  0  0  0  0  0  0  0  0  0  0  0
    5.0986    4.4912  -17.9766 C   0  0  0  0  0  0  0  0  0  0  0  0
    5.0535    2.5982  -19.4724 C   0  0  1  0  0  0  0  0  0  0  0  0
    4.2233    3.7432  -18.9416 C   0  0  2  0  0  0  0  0  0  0  0  0
    6.2245    9.2426  -21.0814 C   0  0  0  0  0  0  0  0  0  0  0  0
    6.0277    8.8023  -13.2539 C   0  0  0  0  0  0  0  0  0  0  0  0
    6.3881    6.8968  -14.7123 N   0  0  0  0  0  0  0  0  0  0  0  0
    5.4593    1.7202  -18.3511 N   0  0  0  0  0  0  0  0  0  0  0  0
    4.3886    5.6854  -17.5830 N   0  0  0  0  0  0  0  0  0  0  0  0
    7.7137    2.0498  -18.5468 O   0  0  0  0  0  0  0  0  0  0  0  0
    3.8433    4.6088  -20.0140 O   0  0  0  0  0  0  0  0  0  0  0  0
    8.3558   -0.1239  -22.3274 F   0  0  0  0  0  0  0  0  0  0  0  0
    4.9220   -3.0304  -20.6814 F   0  0  0  0  0  0  0  0  0  0  0  0
    6.5411    8.0353  -12.2574 F   0  0  0  0  0  0  0  0  0  0  0  0
    5.0666    9.6197  -12.7555 F   0  0  0  0  0  0  0  0  0  0  0  0
    7.0194    9.5346  -13.8300 F   0  0  0  0  0  0  0  0  0  0  0  0
    9.6620    7.5907  -18.2629 H   0  0  0  0  0  0  0  0  0  0  0  0
    8.0319    6.6016  -16.6761 H   0  0  0  0  0  0  0  0  0  0  0  0
    8.8686    8.8238  -20.2637 H   0  0  0  0  0  0  0  0  0  0  0  0
    4.7993    7.9186  -19.1961 H   0  0  0  0  0  0  0  0  0  0  0  0
    6.6608    1.8005  -21.7605 H   0  0  0  0  0  0  0  0  0  0  0  0
    3.6044   -0.8120  -20.1974 H   0  0  0  0  0  0  0  0  0  0  0  0
    7.2699   -2.4625  -21.7491 H   0  0  0  0  0  0  0  0  0  0  0  0
    5.6872    9.2192  -15.9758 H   0  0  0  0  0  0  0  0  0  0  0  0
    4.1188    9.4398  -15.1284 H   0  0  0  0  0  0  0  0  0  0  0  0
    3.3459    7.2485  -15.9317 H   0  0  0  0  0  0  0  0  0  0  0  0
    3.8538    8.2689  -17.3200 H   0  0  0  0  0  0  0  0  0  0  0  0
    5.0257    5.3476  -15.1052 H   0  0  0  0  0  0  0  0  0  0  0  0
    6.6053    5.2142  -15.9501 H   0  0  0  0  0  0  0  0  0  0  0  0
    4.5436    7.3711  -13.8041 H   0  0  0  0  0  0  0  0  0  0  0  0
    8.1541    0.3468  -16.7765 H   0  0  0  0  0  0  0  0  0  0  0  0
    6.6560    0.8304  -15.9115 H   0  0  0  0  0  0  0  0  0  0  0  0
    6.5985   -0.4706  -17.1487 H   0  0  0  0  0  0  0  0  0  0  0  0
    6.8469   10.6605  -22.6167 H   0  0  0  0  0  0  0  0  0  0  0  0
    7.5980   10.9340  -21.0081 H   0  0  0  0  0  0  0  0  0  0  0  0
    8.1547    9.5728  -22.0396 H   0  0  0  0  0  0  0  0  0  0  0  0
    4.6287   10.6371  -21.6140 H   0  0  0  0  0  0  0  0  0  0  0  0
    4.2035    9.4981  -20.2918 H   0  0  0  0  0  0  0  0  0  0  0  0
    5.3035   10.8807  -19.9673 H   0  0  0  0  0  0  0  0  0  0  0  0
    5.3997    8.6684  -23.0113 H   0  0  0  0  0  0  0  0  0  0  0  0
    6.6573    7.5520  -22.3801 H   0  0  0  0  0  0  0  0  0  0  0  0
    5.0070    7.5390  -21.6709 H   0  0  0  0  0  0  0  0  0  0  0  0
    4.0314    2.4488  -21.3787 H   0  0  0  0  0  0  0  0  0  0  0  0
    3.2934    1.4769  -20.0606 H   0  0  0  0  0  0  0  0  0  0  0  0
    5.3031    3.8676  -17.0939 H   0  0  0  0  0  0  0  0  0  0  0  0
    6.0478    4.7615  -18.4624 H   0  0  0  0  0  0  0  0  0  0  0  0
    5.9511    3.0036  -19.9623 H   0  0  0  0  0  0  0  0  0  0  0  0
    3.3383    3.3513  -18.4189 H   0  0  0  0  0  0  0  0  0  0  0  0
    6.7463    6.4240  -13.9071 H   0  0  0  0  0  0  0  0  0  0  0  0
    4.7412    1.2376  -17.8498 H   0  0  0  0  0  0  0  0  0  0  0  0
    3.6237    5.4208  -16.9956 H   0  0  0  0  0  0  0  0  0  0  0  0
    4.0379    6.1321  -18.4061 H   0  0  0  0  0  0  0  0  0  0  0  0
    3.2899    4.1346  -20.6234 H   0  0  0  0  0  0  0  0  0  0  0  0
  1  2  2  0
  1  3  1  0
  2  8  1  0
  3  9  2  0
  4  8  2  0
  4  9  1  0
  5 10  2  0
  5 11  1  0
  6 10  1  0
  6 12  2  0
  7 11  2  0
  7 12  1  0
  8 18  1  0
  9 27  1  0
 10 23  1  0
 11 34  1  0
 12 35  1  0
 13 19  1  0
 13 30  1  0
 13 32  2  0
 14 15  1  0
 14 17  1  0
 15 18  1  0
 16 18  1  0
 16 29  1  0
 17 28  1  0
 17 29  1  0
 18 31  1  6
 20 27  1  0
 21 27  1  0
 22 27  1  0
 23 25  1  0
 24 26  1  0
 24 31  1  0
 25 26  1  0
 25 30  1  0
 26 33  1  0
 28 36  1  0
 28 37  1  0
 28 38  1  0
  1 39  1  0
  2 40  1  0
  3 41  1  0
  4 42  1  0
  5 43  1  0
  6 44  1  0
  7 45  1  0
 14 46  1  0
 14 47  1  0
 15 48  1  0
 15 49  1  0
 16 50  1  0
 16 51  1  0
 17 52  1  1
 19 53  1  0
 19 54  1  0
 19 55  1  0
 20 56  1  0
 20 57  1  0
 20 58  1  0
 21 59  1  0
 21 60  1  0
 21 61  1  0
 22 62  1  0
 22 63  1  0
 22 64  1  0
 23 65  1  0
 23 66  1  0
 24 67  1  0
 24 68  1  0
 25 69  1  6
 26 70  1  1
 29 71  1  0
 30 72  1  0
 31 73  1  0
 31 74  1  0
 33 75  1  0
M  CHG  1  31   1
M  END
>  <OMEGA_C>  (117) 
pKQJQeMQ9kDClpPBW8D1QMTY40DOcYzBinMCQZ0xBkEHqZzBPlW7QCZ6/EC8upfBoAjKQH4qTj/q
MqzBXGuSQMqvLL8KMqXBCd/UQOp9zb9iM6zBdinJQHsp50CEb47BXnzYQIJSCEHVsJ7BbW6hQEvB
Hj9RfKfBY/DjQKLfnL5Xbq7BzgOsQGXN5L+eoafBPunYQOouwz9anI/BUWybQCw3C0GIk3fBJn+G
QBY190BHcIPBHSu6QEEVvUBf9nnBH4GsQAuH/EAuZWTBZOemQGg81EB55obBtCTiQOt/+D46+YbB
Lw3pQOK3IkEY363B5AKgQP4SIkF2saXBvU65QOHGAkF54bDBSrmHQCm45z9HEKTB7iejQCS4j0Ac
0I/BFrahQGxIJkBvx5vBqiWHQBGRb0BViJfBty7HQIzhE0HNpqjBtuLAQDTWDEH3D1TBY2vMQIiy
3EBvZWvB8LKuQDAv3D/0zpLBh2+MQIzutUDqqYzBedb2QMAvA0DCX5TBIvh1QJ57k0CjHKDBMrEF
QbrH/b1snrLBKYGdQE/xQcB4c6XBfVDRQLOQAEFmHkTB1CGiQDTqGUGxFkzBIJ/gQKWNGEHYR13B
j5caQS3n8kBbGpLBvIIAQVtA00C2aIXBrOUNQVQuDUH/G6LB1pOZQHJl/UCKkZnBSyXVQNF15j+A
Fa7B2K5mQEncT79MlKHBX6PoQLaZHcBC/q3BSf21QKuBE0HAnH/B0MyDQJEJF0HsDXLB5iNWQPPz
50AR6H7Bx6R2QFlNBEFyj4rB0NKgQK8fq0AOr3HB7V7TQLrapkBuM3/BAWWRQNXf60Cl3VzBCHcC
QeSOsT5NNobB7f3UQAmWVD9klX7B8SbTQDTu8L6ZMInB1RnbQJmRKkHq7rTB4SLzQKXxLkGYEKjB
l3kCQVYqGUEjUbDBHB6UQK4xKkGO6azBWoOGQE34F0GhVaLBD7apQE8XLkEQvZ/BhcqsQPWxCkEN
F7jBwQjVQOKp8UB1CrPBQzmgQEc/8UAYXq3B0gCBQIS4HECmB6vBmcZSQHEKvT8XfKDBpLKpQGOG
d0A3wIjBxIfBQHdemEDwspPBD2++QC06QEDIsp/BdqdVQHN8VkDgWZPBd+HXQLGRzUCqg17BkLeX
QNZonj9QzI7BAutnQIx3rUAO94fBiDaBQNA5xECZP5PBMY1SQL9OhECq/KTBDsUJQfb19UDZr5PB
Th32QPOE40Bai4zB4YACQVEzBkHCupzBJ427QJAE/EB4y5fB6+nJQHODTD+8U6zBVdqRQOxqKr9U
V6XBUjTUQMOkzr+DPqzBHX/JQBG25kCGg47BnI7YQP46CEEPvp7B2SqhQK/PHz+XqqfBgp3jQA6j
o74mfq7BHzerQMaC5L9LuKfBP5bYQADUxD+VkI/Bz6KbQOUBC0F5uHfBPtGGQCW49kCRgIPB4KO6
QMu7vEABEnrBYMGsQEUv/EAYh2TBNkynQC3K00By9IbBlgHiQJZV8z5VH4fB3ai5QJTFAkHc+bDB
bYjoQMz/IkH3za3B/3yfQLS7IUHiraXBGbWHQBUE6T9GRqTBuVijQDs4j0Da1Y/BLbKhQM3/JUDS
6JvBmjiHQGgJb0CvkpfBswrHQFDVE0GDq6jBLwnBQN62DEF6NVTBfcfMQPBw3ECBhGvBaZKuQFiQ
2T/2B5PB5b+MQNB4tUAerozBumb2QNsDCEBk4pPBfvB1QCF8k0CmF6DBTJUFQRQrF77TpbLBk1Sc
QFJ9QcDAhqXBBqXRQO97AEFQSETBkC+iQIe3GUErM0zBO6DgQJ+AGEHgdV3B0LoaQfbg8kDeOJLB
FL8AQdDa0kCth4XB2uYNQcNNDUF9KqLBE8uZQHK3/EANo5nBWkrVQDc45T8BOa7BrmplQHVcS7+E
vaHB6M7nQIaCHsDr/K3BYyu2QC9TE0GZwX/BZPKDQN7NFkFAN3LBN9VWQO9r50BOCH/BfDx3QCEI
BEEuoYrBSVyhQC6yqkDPyHHBx+vTQGCWpkA2TX/B46+RQIF260C6/1zBjGgCQUvowz45DIbBfyzT
QEOGRD8T/H7Bpc7UQN0o+76DvYnBWgGtQNm5CkEMKbjBbqbVQP4R8kAhKbPBes2gQH/Q8EBFhK3B
3m7aQEDdKkH+17TB+zLyQEEzL0HV8KfBqV0CQZiwGUH3RLDBfnOTQCDjKUG036zBITiGQP1qF0F+
X6LBW9WoQB64LUF7rJ/BO3aBQBW8HUAZPKvBCUJSQJdqvz+jxqDBQsapQCVYdkBlyIjB5sXBQA7F
l0CttZPBVHq+QPEjQEDnx5/Be+RVQKHBVUAlZJPBwErYQBZgzUD9oF7BGayXQA4Ulz+FS4/BPKlo
QNoQrUDL9IfBAnOBQBa8w0DCQpPB7V5SQPR3hEAn+6TB

>  <OMEGA_E>  (117) 
EE6PPtCrjz4=

>  <OMEGA_NBR>  (117) 
    171595

$$$$
50212928
     RDKit          3D

 71 73  0  0  1  0  0  0  0  0999 V2000
    8.5756    7.5834  -18.4476 C   0  0  0  0  0  0  0  0  0  0  0  0
    7.6420    7.1031  -17.5138 C   0  0  0  0  0  0  0  0  0  0  0  0
    8.1420    8.2321  -19.6164 C   0  0  0  0  0  0  0  0  0  0  0  0
    5.8307    7.8718  -18.9489 C   0  0  0  0  0  0  0  0  0  0  0  0
    6.3983    0.8068  -21.5770 C   0  0  0  0  0  0  0  0  0  0  0  0
    4.6128   -0.6505  -20.7641 C   0  0  0  0  0  0  0  0  0  0  0  0
    6.6823   -1.6141  -21.6239 C   0  0  0  0  0  0  0  0  0  0  0  0
    6.2530    7.2432  -17.7564 C   0  0  0  0  0  0  0  0  0  0  0  0
    6.7590    8.4197  -19.8631 C   0  0  0  0  0  0  0  0  0  0  0  0
    5.1135    0.6425  -21.0143 C   0  0  0  0  0  0  0  0  0  0  0  0
    7.1856   -0.3210  -21.8706 C   0  0  0  0  0  0  0  0  0  0  0  0
    5.3942   -1.7774  -21.0748 C   0  0  0  0  0  0  0  0  0  0  0  0
    5.6113    8.1508  -14.3255 C   0  0  0  0  0  0  0  0  0  0  0  0
    6.7925    1.4400  -18.0608 C   0  0  0  0  0  0  0  0  0  0  0  0
    4.8661    8.8420  -15.4715 C   0  0  0  0  0  0  0  0  0  0  0  0
    4.1854    7.7944  -16.3556 C   0  0  0  0  0  0  0  0  0  0  0  0
    5.7509    5.9895  -15.5187 C   0  0  0  0  0  0  0  0  0  0  0  0
    5.1804    6.6864  -16.7935 C   0  0  2  0  0  0  0  0  0  0  0  0
    7.0616    0.4160  -16.9627 C   0  0  0  0  0  0  0  0  0  0  0  0
    7.3225   10.0705  -21.7475 C   0  0  0  0  0  0  0  0  0  0  0  0
    4.9921    9.9782  -20.8527 C   0  0  0  0  0  0  0  0  0  0  0  0
    5.9018    8.0340  -22.1872 C   0  0  0  0  0  0  0  0  0  0  0  0
    4.3141    1.8495  -20.5892 C   0  0  0  0  0  0  0  0  0  0  0  0
    5.0805    4.5138  -17.9333 C   0  0  0  0  0  0  0  0  0  0  0  0
    5.0856    2.6245  -19.5038 C   0  0  1  0  0  0  0  0  0  0  0  0
    4.2306    3.7485  -18.9329 C   0  0  2  0  0  0  0  0  0  0  0  0
    6.2550    9.1172  -21.1440 C   0  0  0  0  0  0  0  0  0  0  0  0
    6.2678    6.9510  -14.5433 N   0  0  0  0  0  0  0  0  0  0  0  0
    5.4747    1.7121  -18.4102 N   0  0  0  0  0  0  0  0  0  0  0  0
    4.3558    5.7142  -17.5219 N   0  0  0  0  0  0  0  0  0  0  0  0
    5.7839    8.7446  -13.2708 O   0  0  0  0  0  0  0  0  0  0  0  0
    7.7280    2.0685  -18.5451 O   0  0  0  0  0  0  0  0  0  0  0  0
    3.8250    4.6239  -19.9861 O   0  0  0  0  0  0  0  0  0  0  0  0
    8.4285   -0.1620  -22.3785 F   0  0  0  0  0  0  0  0  0  0  0  0
    4.9134   -3.0163  -20.8290 F   0  0  0  0  0  0  0  0  0  0  0  0
    9.6323    7.4535  -18.2661 H   0  0  0  0  0  0  0  0  0  0  0  0
    7.9844    6.6253  -16.6077 H   0  0  0  0  0  0  0  0  0  0  0  0
    8.8676    8.5900  -20.3317 H   0  0  0  0  0  0  0  0  0  0  0  0
    4.7749    7.9350  -19.1670 H   0  0  0  0  0  0  0  0  0  0  0  0
    6.7760    1.7977  -21.7816 H   0  0  0  0  0  0  0  0  0  0  0  0
    3.6301   -0.7759  -20.3341 H   0  0  0  0  0  0  0  0  0  0  0  0
    7.2838   -2.4806  -21.8557 H   0  0  0  0  0  0  0  0  0  0  0  0
    4.1052    9.5190  -15.0561 H   0  0  0  0  0  0  0  0  0  0  0  0
    5.5810    9.4202  -16.0753 H   0  0  0  0  0  0  0  0  0  0  0  0
    3.3612    7.3325  -15.7924 H   0  0  0  0  0  0  0  0  0  0  0  0
    3.7845    8.2896  -17.2523 H   0  0  0  0  0  0  0  0  0  0  0  0
    4.9483    5.4039  -15.0467 H   0  0  0  0  0  0  0  0  0  0  0  0
    6.5677    5.3167  -15.8190 H   0  0  0  0  0  0  0  0  0  0  0  0
    8.1395    0.3853  -16.7454 H   0  0  0  0  0  0  0  0  0  0  0  0
    6.5123    0.7010  -16.0532 H   0  0  0  0  0  0  0  0  0  0  0  0
    6.7267   -0.5769  -17.2973 H   0  0  0  0  0  0  0  0  0  0  0  0
    6.9208   10.5438  -22.6556 H   0  0  0  0  0  0  0  0  0  0  0  0
    7.5780   10.8473  -21.0118 H   0  0  0  0  0  0  0  0  0  0  0  0
    8.2251    9.4957  -22.0023 H   0  0  0  0  0  0  0  0  0  0  0  0
    4.6556   10.4624  -21.7813 H   0  0  0  0  0  0  0  0  0  0  0  0
    4.1903    9.3331  -20.4643 H   0  0  0  0  0  0  0  0  0  0  0  0
    5.2375   10.7478  -20.1061 H   0  0  0  0  0  0  0  0  0  0  0  0
    5.5402    8.5150  -23.1080 H   0  0  0  0  0  0  0  0  0  0  0  0
    6.7975    7.4368  -22.4131 H   0  0  0  0  0  0  0  0  0  0  0  0
    5.1163    7.3784  -21.7833 H   0  0  0  0  0  0  0  0  0  0  0  0
    4.1485    2.5035  -21.4581 H   0  0  0  0  0  0  0  0  0  0  0  0
    3.3442    1.5228  -20.1861 H   0  0  0  0  0  0  0  0  0  0  0  0
    5.2777    3.8816  -17.0550 H   0  0  0  0  0  0  0  0  0  0  0  0
    6.0342    4.7995  -18.4010 H   0  0  0  0  0  0  0  0  0  0  0  0
    5.9884    3.0597  -19.9572 H   0  0  0  0  0  0  0  0  0  0  0  0
    3.3560    3.3206  -18.4210 H   0  0  0  0  0  0  0  0  0  0  0  0
    7.1003    6.7401  -14.0310 H   0  0  0  0  0  0  0  0  0  0  0  0
    4.7478    1.2635  -17.8903 H   0  0  0  0  0  0  0  0  0  0  0  0
    3.5985    5.4377  -16.9302 H   0  0  0  0  0  0  0  0  0  0  0  0
    3.9936    6.1595  -18.3407 H   0  0  0  0  0  0  0  0  0  0  0  0
    3.2936    4.1439  -20.6105 H   0  0  0  0  0  0  0  0  0  0  0  0
  1  2  2  0
  1  3  1  0
  2  8  1  0
  3  9  2  0
  4  8  2  0
  4  9  1  0
  5 10  2  0
  5 11  1  0
  6 10  1  0
  6 12  2  0
  7 11  2  0
  7 12  1  0
  8 18  1  0
  9 27  1  0
 10 23  1  0
 11 34  1  0
 12 35  1  0
 13 15  1  0
 13 28  1  0
 13 31  2  0
 14 19  1  0
 14 29  1  0
 14 32  2  0
 15 16  1  0
 16 18  1  0
 17 18  1  0
 17 28  1  0
 18 30  1  6
 20 27  1  0
 21 27  1  0
 22 27  1  0
 23 25  1  0
 24 26  1  0
 24 30  1  0
 25 26  1  0
 25 29  1  0
 26 33  1  0
  1 36  1  0
  2 37  1  0
  3 38  1  0
  4 39  1  0
  5 40  1  0
  6 41  1  0
  7 42  1  0
 15 43  1  0
 15 44  1  0
 16 45  1  0
 16 46  1  0
 17 47  1  0
 17 48  1  0
 19 49  1  0
 19 50  1  0
 19 51  1  0
 20 52  1  0
 20 53  1  0
 20 54  1  0
 21 55  1  0
 21 56  1  0
 21 57  1  0
 22 58  1  0
 22 59  1  0
 22 60  1  0
 23 61  1  0
 23 62  1  0
 24 63  1  0
 24 64  1  0
 25 65  1  6
 26 66  1  1
 28 67  1  0
 29 68  1  0
 30 69  1  0
 30 70  1  0
 33 71  1  0
M  CHG  1  30   1
M  END
>  <OMEGA_C>  (118) 
pTUJQYur8kCylJPBY4v0QFlM40AxHIzBiEUCQYa2A0F17pzBa5W6QHzl+0Bal5fB377MQEaJTj+j
nazBLpyTQD+KJr/IHKbBCNXVQOyazr+5/azBvxjIQCPI50AdDY7B80nYQDa3BkGK557B5aGjQHR6
JD9UHajBgfDlQI9fpL7/9q7Bop2sQF6D478emajBF5CzQMFpAkFZNWXBH1zZQIlTuD+bfJDBareb
QLx4DUEvi3fBBe+FQBNs+UA/2ILBbwe4QAGqv0BzTHjBu8WlQPH21UADWYbBpPjhQHID1T6Is4fB
6lHqQPggIUHq+q3Bq7+fQJ+mH0FT0qbBctu8QBOLAEF6f7HB/QyKQGi97D+wtqTBHpOiQLBwkEBn
d4/BLr2iQAH4J0CwB5zB12CHQOXmb0B8dpfBjyjIQAjgEUH2JqnBLJLIQEtu3kB2sWjBIDGvQN8l
2z8CSJPBsWKLQP3atkDXLIzB4RW5QLrpC0FSVVTBzEv3QK9hBEBiXJTB68x0QKf2k0Ci45/BCdsG
QcLsJb42B7PBbDqdQHcLQcDhoabByR0aQcaC7kD4IJLBI4D/QG0C1ECe3ITB5OENQbdwCUFop6LB
0suYQOPr/UD5VZnB8NTYQCIa5j/FQK7ByFJoQFSkRr9ArKLBBxXpQMXBHsCE2K7Bkl2DQMxNGEGc
5XDBZJeyQEK5FkFDmoDBhh1XQLSj6kCWrXzBsTVyQAuiBEHDBIrBNlieQGHsrEAfv3DBayrSQHUi
qkDUGn3BWzsCQZlKxT6J9oXBC2XQQKx0Mz/5bIDBRUHXQJ6tE7/fYIrBHXfdQE2zKEHAPrXBQn/y
QLKOLUEjGKjB95kDQZDuF0HFBLDBBfuUQPFlJ0EbQK7B0xaGQDJUFUHvtqPB3pmnQCf3K0FL2aDB
80ixQFQ9CEE+3bjBO4XZQOT57UAbTrPBaLijQH0b7EBIRK7Bz8CEQE05IEAeqqvBrAZWQFvqwj8v
faHB4+KoQOtreECWcIjBDxjBQLaVmUA+NZPByKC/QEPSQ0BJqJ/B3chWQC2EVEAcXpPBCzbjQH6u
10ATf2DByu2XQJe6oT9GH4/Bik5mQEcBrkAacYfBdJZ/QJcaxUDbuZLBccpSQOuahEA44qTBrT0J
QfPm8kB6ZpPBzID0QOaA40BJ9YvBkF4CQWfTA0GjxJzBMrm6QOj0+0DPgpfBwAyTQM6pJ791C6bB
ijvMQKm3TT9pgKzBZGLVQMjtzr9y36zBmxfIQPbn50Bv843BpILYQF/DBkGezJ7BoBejQJxkIz/A
A6jB6RCsQLX1478Ti6jBkn7lQAaJpb6F067BwGSyQI+WAkHVMWXBLdPZQI8JuT8PqZDBeOOaQPJ7
DUGZuHfBdHWFQD8k+UDZ44LB27a3QKbNv0AtHHjB8KelQO3q1UAtTobBYuLiQB7e3z6OyofBfNK+
QNg6AEGMhbHBMyXqQLt1IUFgya3BBSufQMvlHkGgAKfBR4GJQHkK7D/YmaTB99GiQByRkECof4/B
QZOiQG0bKEB/CJzBNWiHQPYgcEC+cpfBl4bIQEm1EUHtH6nBTp/HQGHH3kBEaWjBX4GvQD5V3D8k
SJPBD4GLQH/KtkB0LIzBobK2QI0JDEEnNFTB8Iz3QGKbBEChp5TBnal0QBwBlECn4Z/BY4KcQLhL
QcCHsKbBLKkGQVMmJ77y2bLBQiMaQZbF7kAX6pHBBFv/QIRC1EC0sYTBEQYOQSiZCUH+dKLBd/aY
QGXo/UD7SpnBdyhnQJH/R7/CnqLBE0jYQKq55T9oJa7BPrXoQAvjHsC3sa7BnGKCQPJbGEGcSXHB
n+qxQPGpFkErroDBck9WQNM+6kA2w3zBaipxQCVZBEEcGYrB7xCeQJPNrEDBsHDBtivSQJ+KqkBK
xnzB37cCQYpL1D7YHobBmX/RQHkmOz9wgoDB+z3YQHK+D79cWIrBhmCzQHHEB0Hz8LjBZiPcQBMp
7kCnMbPBTgumQAjI6kBmaK7BPmndQIHaKEFHHLXBSCXxQAX+LUFw3KfBxtkDQcOwGEE+sK/Bz5CU
QIR9JkFkfK7B8tyFQCo2FEEpBqTBgtOlQERRK0Fc/qDBTcmDQO+CH0CikKvBF1ZVQNcTwj/PQ6HB
g2+pQNOseEBQfYjBBS/BQAXdmUCvS5PB+UO/QKPYQ0BhxZ/BlvFWQHfvVEDAT5PBUPrhQHgq2EDj
9V/Bq3mYQAXwoz81/Y7BcpBmQLy/rUCxdYfBssd/QDUaxUCitpLBvWNSQKyfhEDq16TB31EJQZZH
9EA6dJPB2tD0QAxC5EDCDIzB/1gCQQN5BEE40ZzBgs66QHL2+0DnoZfBWJ+TQISOJL8oMabBU7XM
QNRyUj/dm6zBYQ/WQKR2zL/cBK3BclzIQNwT6ED4D47BX2TYQL74BkEf6J7BKpGjQI7lJj+dI6jB
BcOsQNUP4r9Or6jBKQ3mQBiomr6G9a7BxWSyQEKhAkEASmXB58rYQOfYvD9/ApDBUhCbQMaDDUE9
3nfBIMaFQEEt+UBH+oLBdDm4QE33v0DxQXjBlg+mQGEC1kC4YYbB8kDhQGC8vj6O2IfBlobqQHUw
IEFeiq7BTfGgQOeMIEGMs6bBlR+6QL1sAEEtOrHBRO6JQLdU7T+LsKTBNSqjQOSGkEC/gY/BDr+i
QKvGJ0Cd/ZvBk6iHQE4BcEDIbZfBTu7HQNfoEUGJManBA8/HQAH23kDLfGjBgdyuQNwt2j/dPZPB
beSLQOPMtkD4NYzB3I62QGIYDEFJTFTBiRX3QNcJAkAJYpTBjBF1QJDmk0Cs3Z/BY2WdQIVsQMAT
yKbB/uwGQYJODL7T/LLB7zwaQVux8EDp8JHBmtL/QO381EDJzYTBcPINQfWLCkGcdKLBXwmZQMp0
/UBJbpnBlEFoQPi5Rb/wyaLByLLYQGlJ6D+KOK7B7nTpQAGGHcCX2q7BIoCCQJ1kGEFcf3HBDS2y
QFGwFkE2u4DBN+tWQBk56kA3+HzBtNxxQERcBEHbMIrBALSeQPC1rECq5HDBVuHSQOXzqkCB63zB
CPsBQXj6ZD5z/YbBAZDTQN5gKT9lE4DB6lPSQLkjEL99lYrBkD3dQK2UJ0GvzbXB7Hn0QBvJLEGi
66jBNTADQQhRFkH8rrDBmMaVQLIoKEEXIa7BD/SGQPnfFkFfQ6PBaoSqQDb5LEEc8qDBOlCuQPT/
B0HymbjBuLTVQFZW7EBvH7PBT4agQDxP7UC3rK3Bp4yEQCrQIEDTm6vBgt1VQJgcwz8XdqHBNMip
QAK+eEALfIjBaobBQIa8mUCVUZPB7ci/QB4tQ0DgmJ/BX3lXQPn7VEDMRJPBmxjiQIlt2EDz91/B
pXmXQOX7mz8XaI/B4WFnQAXWrUAfe4fB6D+AQK8DxUC7wpLBPKxSQGCBhEDOz6TB7DYJQfsr80D8
cJPBSnr0QHNR40AVDozBVFMCQb8QBEEsxZzBeJ66QMzb+0BNk5fBcGvMQCtnTj+vl6zBvkiTQHvb
Jr+BGabB06DVQFSSzr+Z6azBuArIQPOb50BRCo7BuGjYQPvhBkHt0p7B5UejQBgKJD/QG6jB8rPl
QB4vpL6r5a7BP1SsQBSQ47+ykajByKm0QFncAkEgumXB9ErZQDk9wj+vA5DB+4mbQGptDUEX8XfB
Ia+FQCPK+EAv24LB6Oe3QPiNv0B1PXjBS7ClQJaU1UACW4bBLF3iQNzJ4j7Kp4fBmay+QDOqAEFg
lLHBeU7qQBW8IUF9t63BZ0ifQHM8H0Fs8qbBza+JQIZE7D/ZtaTBeLmiQPhPkEDyi4/BCZiiQOu3
J0CRE5zBsFiHQDOob0DGfpfBp4PIQEn+EUFXHanB+rXIQI6i3kAa1mjBRUOvQCDt2j9uU5PBu2KL
QJ9wtkACLIzBOC69QCpNDUFWvlXBBEn3QDtGBUB9cpTBAnF0QFzPk0Dc6Z/BYsMGQVt+JL6k7LLB
7N6cQAMQQcCDpKbB7h0aQdM570Cm8JHB3V7/QO3K00AM1YTB9vgNQUAECkGpaqLBjNyYQPOz/UA+
XpnBE3PYQP4N5j/xP67BVqZnQO4NR7/KqqLBT/foQFa3HsB9uK7BgxmDQAkcGEGOInHBoKKxQIvH
FkER+oDBw3hXQOTy6UA4a3zB6ohwQI0RBEHCB4rBmSeeQGohrUAhjXDBbuPRQLHEqUAZ93zBP5MC
QW/loz6wvIbBx1PUQN1JPj8i53/BTyXUQGZ8Ar9/P4rBx0uzQBdXCEFe+LjBrerbQKD27kA/SbPB
Rs6lQCOo60A6gq7BqqrdQCBCKUGGBLXBO2fxQEQrLkE0v6fBveQDQTbsGEF7pK/BSryUQMfyJkGZ
Z67BeeSFQGeQFEFrAKTB/QymQDKQK0Hv5aDB3zmEQLfiH0C3qavBnXNVQIVrwj/qcKHBj3SpQG4F
eEC4jojBgAfBQCG7mUCoWpPBfma/QI2DQ0BYwJ/BOd5WQF9aVEA8XJPBDAXjQMuO10CLcWDBuTWY
QDrVmT+ZjY/BOrFmQHxSrUCyaIfB+wd/QGC9xEA6r5LB2S9SQJxxhEBY4aTB

>  <OMEGA_E>  (118) 
QOZLPrAWTD4gjkw+cDtNPg==

>  <OMEGA_NBR>  (118) 
    176377

$$$$
50212933
     RDKit          3D

 71 73  0  0  1  0  0  0  0  0999 V2000
    8.5682    7.6130  -18.4447 C   0  0  0  0  0  0  0  0  0  0  0  0
    7.6418    7.1214  -17.5085 C   0  0  0  0  0  0  0  0  0  0  0  0
    8.1260    8.2596  -19.6122 C   0  0  0  0  0  0  0  0  0  0  0  0
    5.8206    7.8696  -18.9411 C   0  0  0  0  0  0  0  0  0  0  0  0
    4.5800   -0.6562  -20.7269 C   0  0  0  0  0  0  0  0  0  0  0  0
    6.3513    0.7966  -21.5782 C   0  0  0  0  0  0  0  0  0  0  0  0
    6.6405   -1.6231  -21.6033 C   0  0  0  0  0  0  0  0  0  0  0  0
    6.2505    7.2435  -17.7489 C   0  0  0  0  0  0  0  0  0  0  0  0
    6.7405    8.4282  -19.8585 C   0  0  0  0  0  0  0  0  0  0  0  0
    5.0752    0.6343  -20.9966 C   0  0  0  0  0  0  0  0  0  0  0  0
    5.3589   -1.7840  -21.0384 C   0  0  0  0  0  0  0  0  0  0  0  0
    7.1378   -0.3315  -21.8690 C   0  0  0  0  0  0  0  0  0  0  0  0
    6.2109    6.9658  -14.4564 C   0  0  0  0  0  0  0  0  0  0  0  0
    6.7933    1.4442  -18.0569 C   0  0  0  0  0  0  0  0  0  0  0  0
    5.7544    5.9609  -15.5190 C   0  0  0  0  0  0  0  0  0  0  0  0
    4.1897    7.7752  -16.3328 C   0  0  0  0  0  0  0  0  0  0  0  0
    4.8967    8.8214  -15.4654 C   0  0  0  0  0  0  0  0  0  0  0  0
    5.1815    6.6724  -16.7846 C   0  0  1  0  0  0  0  0  0  0  0  0
    7.0684    0.4350  -16.9459 C   0  0  0  0  0  0  0  0  0  0  0  0
    5.8618    8.0183  -22.1745 C   0  0  0  0  0  0  0  0  0  0  0  0
    7.2789   10.0638  -21.7702 C   0  0  0  0  0  0  0  0  0  0  0  0
    4.9604    9.9697  -20.8481 C   0  0  0  0  0  0  0  0  0  0  0  0
    4.2846    1.8421  -20.5679 C   0  0  0  0  0  0  0  0  0  0  0  0
    5.0937    4.5160  -17.9460 C   0  0  0  0  0  0  0  0  0  0  0  0
    5.0801    2.6193  -19.5030 C   0  0  1  0  0  0  0  0  0  0  0  0
    4.2428    3.7608  -18.9477 C   0  0  2  0  0  0  0  0  0  0  0  0
    6.2233    9.1117  -21.1439 C   0  0  0  0  0  0  0  0  0  0  0  0
    5.5667    8.1870  -14.3275 N   0  0  0  0  0  0  0  0  0  0  0  0
    5.4733    1.7164  -18.4011 N   0  0  0  0  0  0  0  0  0  0  0  0
    4.3620    5.7071  -17.5235 N   0  0  0  0  0  0  0  0  0  0  0  0
    6.9545    6.5898  -13.5609 O   0  0  0  0  0  0  0  0  0  0  0  0
    7.7271    2.0645  -18.5548 O   0  0  0  0  0  0  0  0  0  0  0  0
    3.8689    4.6387  -20.0107 O   0  0  0  0  0  0  0  0  0  0  0  0
    4.8817   -3.0210  -20.7780 F   0  0  0  0  0  0  0  0  0  0  0  0
    8.3744   -0.1737  -22.3917 F   0  0  0  0  0  0  0  0  0  0  0  0
    9.6266    7.4931  -18.2660 H   0  0  0  0  0  0  0  0  0  0  0  0
    7.9917    6.6488  -16.6026 H   0  0  0  0  0  0  0  0  0  0  0  0
    8.8468    8.6303  -20.3259 H   0  0  0  0  0  0  0  0  0  0  0  0
    4.7637    7.9227  -19.1566 H   0  0  0  0  0  0  0  0  0  0  0  0
    3.6038   -0.7791  -20.2815 H   0  0  0  0  0  0  0  0  0  0  0  0
    6.7227    1.7863  -21.7994 H   0  0  0  0  0  0  0  0  0  0  0  0
    7.2418   -2.4904  -21.8326 H   0  0  0  0  0  0  0  0  0  0  0  0
    6.6143    5.3430  -15.8169 H   0  0  0  0  0  0  0  0  0  0  0  0
    4.9727    5.3181  -15.0880 H   0  0  0  0  0  0  0  0  0  0  0  0
    3.3779    7.3138  -15.7513 H   0  0  0  0  0  0  0  0  0  0  0  0
    3.7694    8.2683  -17.2217 H   0  0  0  0  0  0  0  0  0  0  0  0
    5.6442    9.3499  -16.0753 H   0  0  0  0  0  0  0  0  0  0  0  0
    4.1537    9.5411  -15.0910 H   0  0  0  0  0  0  0  0  0  0  0  0
    8.1476    0.4065  -16.7347 H   0  0  0  0  0  0  0  0  0  0  0  0
    6.5249    0.7330  -16.0372 H   0  0  0  0  0  0  0  0  0  0  0  0
    6.7308   -0.5622  -17.2647 H   0  0  0  0  0  0  0  0  0  0  0  0
    5.4915    8.4905  -23.0963 H   0  0  0  0  0  0  0  0  0  0  0  0
    6.7562    7.4200  -22.4029 H   0  0  0  0  0  0  0  0  0  0  0  0
    5.0807    7.3656  -21.7576 H   0  0  0  0  0  0  0  0  0  0  0  0
    6.8647   10.5243  -22.6792 H   0  0  0  0  0  0  0  0  0  0  0  0
    7.5383   10.8504  -21.0463 H   0  0  0  0  0  0  0  0  0  0  0  0
    8.1818    9.4909  -22.0283 H   0  0  0  0  0  0  0  0  0  0  0  0
    4.6130   10.4444  -21.7776 H   0  0  0  0  0  0  0  0  0  0  0  0
    4.1649    9.3248  -20.4464 H   0  0  0  0  0  0  0  0  0  0  0  0
    5.2097   10.7469  -20.1106 H   0  0  0  0  0  0  0  0  0  0  0  0
    4.1040    2.4908  -21.4377 H   0  0  0  0  0  0  0  0  0  0  0  0
    3.3218    1.5198  -20.1446 H   0  0  0  0  0  0  0  0  0  0  0  0
    5.2969    3.8764  -17.0745 H   0  0  0  0  0  0  0  0  0  0  0  0
    6.0445    4.8108  -18.4141 H   0  0  0  0  0  0  0  0  0  0  0  0
    5.9824    3.0366  -19.9739 H   0  0  0  0  0  0  0  0  0  0  0  0
    3.3534    3.3540  -18.4442 H   0  0  0  0  0  0  0  0  0  0  0  0
    5.5594    8.6447  -13.4384 H   0  0  0  0  0  0  0  0  0  0  0  0
    4.7482    1.2754  -17.8722 H   0  0  0  0  0  0  0  0  0  0  0  0
    3.6052    5.4206  -16.9359 H   0  0  0  0  0  0  0  0  0  0  0  0
    3.9987    6.1597  -18.3379 H   0  0  0  0  0  0  0  0  0  0  0  0
    3.3355    4.1665  -20.6392 H   0  0  0  0  0  0  0  0  0  0  0  0
  1  2  2  0
  1  3  1  0
  2  8  1  0
  3  9  2  0
  4  8  2  0
  4  9  1  0
  5 10  2  0
  5 11  1  0
  6 10  1  0
  6 12  2  0
  7 11  2  0
  7 12  1  0
  8 18  1  0
  9 27  1  0
 10 23  1  0
 11 34  1  0
 12 35  1  0
 13 15  1  0
 13 28  1  0
 13 31  2  0
 14 19  1  0
 14 29  1  0
 14 32  2  0
 15 18  1  0
 16 17  1  0
 16 18  1  0
 17 28  1  0
 18 30  1  6
 20 27  1  0
 21 27  1  0
 22 27  1  0
 23 25  1  0
 24 26  1  0
 24 30  1  0
 25 26  1  0
 25 29  1  0
 26 33  1  0
  1 36  1  0
  2 37  1  0
  3 38  1  0
  4 39  1  0
  5 40  1  0
  6 41  1  0
  7 42  1  0
 15 43  1  0
 15 44  1  0
 16 45  1  0
 16 46  1  0
 17 47  1  0
 17 48  1  0
 19 49  1  0
 19 50  1  0
 19 51  1  0
 20 52  1  0
 20 53  1  0
 20 54  1  0
 21 55  1  0
 21 56  1  0
 21 57  1  0
 22 58  1  0
 22 59  1  0
 22 60  1  0
 23 61  1  0
 23 62  1  0
 24 63  1  0
 24 64  1  0
 25 65  1  6
 26 66  1  1
 28 67  1  0
 29 68  1  0
 30 69  1  0
 30 70  1  0
 33 71  1  0
M  CHG  1  30   1
M  END
>  <OMEGA_C>  (119) 
fBcJQYqd80DMjpPBWIn0QDvi40BlEYzBDAQCQXQnBEG/5ZzBf0K6QBHU+0Beh5fBMo+SQPL/J7+d
0KXB3T3LQCfvSz8noKzBM3/UQIvAz79506zBRwTIQAHL50C6/Y3BibLXQODZBkFF3p7B/2eiQFxh
Ij8a+afB+XurQOhY5L+2TqjBImnkQDG0qb6e867BEsDGQHbn3kB5TWfB5mLZQIvcuD+PdJDBtyO4
QMW/vkC3TXjB4BGGQJnO+ECFqYLBYrGcQJUkDUFXcnfBEM+lQAiE1UDoRobBiDDiQOy63j42kYfB
PJS7QNRKAEFLZbHBG+3oQEEFIUFHKa7BVbueQAmEH0HryKbBjBuJQEjL6z/1iqTBy/+iQAODkEB0
kY/BL5CiQFujJ0AzBpzB8sSHQJixcEDUlJfBDSXHQKfJEUG3JqnBzyKyQAT+AkGXPWXBbSWvQH6y
2z96NZPBLpWLQKegtkAgMIzBioveQMLf0kCX+VjBv0T3QGchBEAkcJTBi5x3QERwlEDdFaDByDac
QHRXQcBLOabBqv0FQXLaMb47IrPBbwYaQZ3H70CxIJLBy7v/QOzC1EAh0oTBYYwNQegVCkGCm6LB
B3CYQBGH/UDGQJnBQaRmQGRzR7+NQKLBqiDXQN+l5D85Za7B5rznQNFiH8ASqa7B8afTQNH5qkAW
En3BZSCfQJ0tqkBMaHHBNzBYQIgK6kApBXzBRD5xQBBLBEEWxonB8Zy0QFyZFUEjmoDBceuEQD6o
GEGzdHHBg1wCQdEc0D654IXBwsvQQJ+mOz8tTIDBz2LXQG/qD78ZHorBArqvQD3ZB0E1xbjBlDLY
QFJw7UA5ObPBAJWiQKuy60CUD67BmavbQGpjKEH9brXBhDnxQFKbLUHYXqjBwOgCQcDaF0HhObDB
np2TQGEcJ0GQOK7BF0eFQGoyFUFIkqPBDbamQETzK0GZ4qDB81ODQIFpH0BegKvBpphUQCqJwj8s
KKHBZICpQHgWeECGmIjBlWzBQHLymUAKUJPBOXC/QHBXQkBzyp/BIp5WQDynVkDSjZPBA+exQIZQ
CkHQA1fBkPGXQPM/oz80+o7BDbxmQLN1rUC3fIfBN+t/QDccxUAAtJLBJHlVQPpThUACHaXBDjMJ
QUAO9EC2gpPBKbb0QIUx5EAFDozBmycCQUFiBEGZ2JzBt3a6QG8w/EDshpfBEh6TQD1gKr+7y6XB
/qzLQONZSz9MkqzBTCnVQF3sz79b0azBcDHIQBAL6EC5/o3BEPzXQFUJB0GI2Z7B49KiQK+UID/O
76fBZS2sQBwp5b9CS6jB1fTkQO5Lqb6R6q7BhzPHQCPy3kBYXGfBoRLZQC3JwD+H/Y/B3n24QEDI
vkDTXHjBOESGQLbB+EAvoYLB8vGcQIgmDUGPb3fBUwemQLSU1UAlSobBm9vhQKSY0z5pw4fBjS7q
QKBpIEEiaK7BHZ2gQKO9IEFdlqbB0sC5QMmxAEFANLHBVUiJQCig6j9wi6TBvI6jQHUgkUDy1I/B
aZyiQO2sJ0C5D5zB+s2HQPy/cEBxn5fB/4fHQDAVEkGCHKnB46eyQH4IA0HkSWXBqwyvQCyD3D+m
NJPBhNCLQGKptkCSNIzBfAHfQKXm0kDjCVnBBTP3QKD9A0Chb5TBtKN1QCD0k0DJIaDBrQydQDvg
QcD4N6bBP0MGQQOIK75bFrPBDiEaQY9N8EBVDpLBJN//QA4A1UA30ITBCbUNQfBcCkGViKLBQ6aY
QFD2/UCdQZnBb8JnQDPaSr/aPaLBcX3XQNiP5D9GUK7BN3joQFxTH8BAra7Bs/zTQNgGq0CiLX3B
M4efQP0wqkDFb3HBJ+FYQGPn6UDg4nvBwjlxQHRABEGiuInBWbS0QEClFUH4oIDBtyqFQHOgGEGZ
YHHBRk0CQVV1ij5m8IbBM0XUQC9hNT8+/n/BIAbTQEsBB7+fa4rBqvLcQPTjJ0FJp7XBSB70QB7x
LEFyv6jB9wMDQeWNFkFakbDBHniVQJZrKEHF/63BxJaGQIQQF0GjKqPBFz+qQJYbLUHCzqDBJvWt
QGFcCEFXjrjB51jVQA3v7ECnILPBxyagQFbA7UDLr63BplqDQL5+HkC+hqvBSRhVQIfewD/2I6HB
vISrQKJ7eUB48IjBXzTBQMJNm0D+1ZPB1IK/QORIQkCV05/BrapXQLKeVkAwZZPBHamyQBxmCkG7
FVfBSs+XQLbknj+cR4/BpyZoQNbYrEBPb4fBlQh/QLdcxUCYnJLBbttSQKp2hEBFBKXB50QJQbsE
9ECEgpPBw8T0QMBH5ECVDYzBAUYCQZhHBEFz4ZzBrqm6QPsF/ECUmJfB4RnMQCwjUT+Gr6zBdWaT
QBP1JL/LAKbB15PVQNoUzb8186zBtkXIQPEJ6EC3CI7B5T7YQKTvBkGy6J7BBCmjQI8TJj9yGqjB
b2zlQOy4nb43A6/BHX2sQOFm4r/dfKjBA3bGQDdE30DCUmfBEjzZQDBJtz89dJDBgzi4QAkNv0Af
YHjB6AqGQKbh+EBBxYLBFmGcQIY8DUGSoHfBbfylQFO11UAbV4bBM87hQDqK1D6/m4fBziDqQBXl
IEEkPK7B3eWfQNTtH0F406bBU+K7QOd8AEGPbbHBmqiJQOsb7T+uqKTBMjKjQB2PkEC+lI/BurKi
QCm/J0ApA5zBvaiHQFAKcEATd5fBye3HQDztEUHkMqnBnbGxQN0kA0EkWmXBZxSvQN+m2j/oP5PB
gNSLQB3AtkBQPozBuOvdQLNB00CK2ljB5jv3QFRYA0AeYZTBhxx1QILok0Cj55/BaYkGQWJFFL7H
IrPB70udQJaBQMBzcqbB+zAaQQlN8EAsB5LBwdr/QA1C1UBDyITBhdoNQaEvCkG0kqLBEN+YQIOz
/UDVW5nBYvPXQLh+5z+xZq7BsS5oQN2PRb9PfaLBiu3oQDbjHcAcyq7BK+fTQOlvq0AYEX3BXD+f
QJNVqkCCjXHB+hNYQDYG6kD3SnzBGlVxQFNKBEHS5onB7le0QMq5FUEWqoDBdHSEQJu2GEExt3HB
yCcCQbx9wz6m44XBN1bQQCuTNT8IV4DBAvDWQGs6FL+kN4rB6g7dQE5SKEFog7XBGs7yQMhyLUEM
dqjB1V8DQYmDF0F3S7DBiOuUQLqQJ0GyQ67BwzOGQJ/KFUGxlqPBf0CoQK5VLEGR8aDBazKwQL8Z
CEH7zbjBWT/YQIV07UCxQbPBeKKiQLdt7ECJFK7BEy2EQMaMIEBklqvB/GlVQKxBwz9mYqHBAwaq
QCbIeEDVkojBoHLBQOzlmUBMbZPBSqO/QKUZQ0BzrJ/B9XhXQMolVUDuSpPBVUKxQMZ8CkF0I1fB
NsaXQPujoT9dFY/BDxxnQJyrrUAejYfBtEqAQDUpxUAox5LB9JxSQA2HhECi16TBpHMJQUCf80Ah
YZPBBO70QNkH5EB59IvB+ZQCQSckBEH4wZzB+SG7QOUf/EDJi5fB5ELMQOL5Tz9+mKzBYmCTQPnX
Jr8SDabB5Y/VQCyzzb95A63BhHvIQKAP6EAM+o3BZevYQB/oBkH+057BzkOjQEJnJD+YCqjByIfl
QLjIn74M+67B7WGsQCg247+fm6jBKmvGQAQg30DvVmfBucPZQBa3uj8BdpDBKvm3QNf7vkA3YXjB
mRmGQP8H+UC4xoLBQH+cQKNCDUFimHfBZvelQNLI1UCUV4bB4KviQDqO5j66k4fBycu8QPloAEHs
W7HBuC7rQKXBIEFDLa7BwtugQHbyH0G30abBXaKJQNPt6z+ul6TBYYyjQFMykUAs0o/B+bqiQGHg
J0CdB5zBWpSHQHXrb0AtdZfBGtbIQO/fEUGyJKnBL9CxQHAdA0FpWGXBHoSvQGTc2z8mQpPBlNyL
QFXotkBMSozBHODdQIYA00CC5FjBuYb3QP+eBUALaZTBgZNyQCtFk0D945/B3pkGQaexF75GF7PB
/+6cQF74QMAHvKbBDloaQU+z70Ad3pHBNdH/QM3p1ECDrYTBWTwOQU0CCkEjbKLBvWCZQCf+/UAk
V5nByS/YQBsH5z+JPq7BXQxoQGnWR7+0kKLBhOPoQH8qHsAD4q7BGYPTQPImq0CYDX3Bx9OeQJd3
qkCJkHHBfAlYQJo66kBRVnzB/qRxQF9nBEGD6InB0ni0QIXCFUEBpIDB6JqEQIC8GEE5pnHBM5cC
Qa023D7A2YXBgBPRQPQYPj+lUoDBMSvYQCORDL+SJorB8USxQC0ACEHUwbjB0h7ZQBIv7UDSJbPB
pG2jQEFl7EA1Ba7BZz3eQKcpKEF9ebXB6+DzQCRULUE+aqjBy+EDQTdRF0EyNLDBKwiWQFOSJ0FD
Rq7BNA6HQH/cFUFBmKPBpzSpQM9cLEH68KDB+MyDQBmYH0ChiavBL7VVQAaHwT/XPqHBQMOrQNV6
ekBz3ojBpQzBQIkrm0Bb7JPBV3m/QBl/Q0B3wZ/B4YFYQIm0VEB5E5PBUX+xQIh0CkEZIVfBEWeY
QAbHoT9PFY/Bn8RnQFNJrUDjkYfBCsp/QOSQxUDYvZLBuYRPQD1wg0DOrKTB

>  <OMEGA_E>  (119) 
OJdMPiBwTT6wAE4+UGdRPg==

>  <OMEGA_NBR>  (119) 
    181160

$$$$
50212938
     RDKit          3D

 74 76  0  0  1  0  0  0  0  0999 V2000
    8.6087    7.6351  -18.4110 C   0  0  0  0  0  0  0  0  0  0  0  0
    7.6669    7.1021  -17.5132 C   0  0  0  0  0  0  0  0  0  0  0  0
    8.1822    8.3310  -19.5570 C   0  0  0  0  0  0  0  0  0  0  0  0
    5.8698    7.9110  -18.9396 C   0  0  0  0  0  0  0  0  0  0  0  0
    6.3146    0.7834  -21.5673 C   0  0  0  0  0  0  0  0  0  0  0  0
    4.5866   -0.6924  -20.6667 C   0  0  0  0  0  0  0  0  0  0  0  0
    6.6509   -1.6291  -21.5654 C   0  0  0  0  0  0  0  0  0  0  0  0
    6.2798    7.2512  -17.7671 C   0  0  0  0  0  0  0  0  0  0  0  0
    6.7988    8.4981  -19.8193 C   0  0  0  0  0  0  0  0  0  0  0  0
    5.0521    0.6021  -20.9635 C   0  0  0  0  0  0  0  0  0  0  0  0
    7.1190   -0.3312  -21.8544 C   0  0  0  0  0  0  0  0  0  0  0  0
    5.3820   -1.8079  -20.9763 C   0  0  0  0  0  0  0  0  0  0  0  0
    6.8309    1.4764  -18.0447 C   0  0  0  0  0  0  0  0  0  0  0  0
    4.9194    8.7596  -15.4273 C   0  0  0  0  0  0  0  0  0  0  0  0
    4.2179    7.8059  -16.3901 C   0  0  0  0  0  0  0  0  0  0  0  0
    5.7576    5.9470  -15.6024 C   0  0  0  0  0  0  0  0  0  0  0  0
    5.4262    7.9456  -14.2323 C   0  0  2  0  0  0  0  0  0  0  0  0
    5.1885    6.6829  -16.8406 C   0  0  2  0  0  0  0  0  0  0  0  0
    7.1477    0.5146  -16.9017 C   0  0  0  0  0  0  0  0  0  0  0  0
    7.3509   10.1166  -21.7329 C   0  0  0  0  0  0  0  0  0  0  0  0
    5.0505   10.0995  -20.7529 C   0  0  0  0  0  0  0  0  0  0  0  0
    5.8576    8.1206  -22.1053 C   0  0  0  0  0  0  0  0  0  0  0  0
    4.2522    1.7963  -20.5294 C   0  0  0  0  0  0  0  0  0  0  0  0
    5.0700    4.4968  -17.9506 C   0  0  0  0  0  0  0  0  0  0  0  0
    5.0614    2.5853  -19.4891 C   0  0  1  0  0  0  0  0  0  0  0  0
    4.2124    3.7175  -18.9256 C   0  0  2  0  0  0  0  0  0  0  0  0
    6.2790    9.2028  -21.0851 C   0  0  0  0  0  0  0  0  0  0  0  0
    5.4992    1.6911  -18.3917 N   0  0  0  0  0  0  0  0  0  0  0  0
    6.1258    8.8308  -13.3093 N   0  0  0  0  0  0  0  0  0  0  0  0
    4.3682    5.7296  -17.5896 N   0  0  0  0  0  0  0  0  0  0  0  0
    6.3637    6.8941  -14.6689 N   0  0  0  0  0  0  0  0  0  0  0  0
    6.4490    8.2662  -12.2582 O   0  0  0  0  0  0  0  0  0  0  0  0
    7.7411    2.1096  -18.5693 O   0  0  0  0  0  0  0  0  0  0  0  0
    3.7898    4.5747  -19.9885 O   0  0  0  0  0  0  0  0  0  0  0  0
    8.3454   -0.1525  -22.3938 F   0  0  0  0  0  0  0  0  0  0  0  0
    4.9328   -3.0495  -20.6903 F   0  0  0  0  0  0  0  0  0  0  0  0
    9.6642    7.5097  -18.2200 H   0  0  0  0  0  0  0  0  0  0  0  0
    8.0004    6.5786  -16.6294 H   0  0  0  0  0  0  0  0  0  0  0  0
    8.9120    8.7398  -20.2401 H   0  0  0  0  0  0  0  0  0  0  0  0
    4.8164    7.9685  -19.1707 H   0  0  0  0  0  0  0  0  0  0  0  0
    6.6615    1.7774  -21.8082 H   0  0  0  0  0  0  0  0  0  0  0  0
    3.6209   -0.8277  -20.2023 H   0  0  0  0  0  0  0  0  0  0  0  0
    7.2645   -2.4875  -21.7954 H   0  0  0  0  0  0  0  0  0  0  0  0
    5.7669    9.2440  -15.9343 H   0  0  0  0  0  0  0  0  0  0  0  0
    4.2115    9.5273  -15.0816 H   0  0  0  0  0  0  0  0  0  0  0  0
    3.3504    7.3548  -15.8860 H   0  0  0  0  0  0  0  0  0  0  0  0
    3.8779    8.3671  -17.2730 H   0  0  0  0  0  0  0  0  0  0  0  0
    4.9417    5.4119  -15.0944 H   0  0  0  0  0  0  0  0  0  0  0  0
    6.5205    5.2257  -15.9307 H   0  0  0  0  0  0  0  0  0  0  0  0
    4.5651    7.4846  -13.7264 H   0  0  0  0  0  0  0  0  0  0  0  0
    8.2286    0.5294  -16.6982 H   0  0  0  0  0  0  0  0  0  0  0  0
    6.6005    0.8248  -15.9993 H   0  0  0  0  0  0  0  0  0  0  0  0
    6.8418   -0.5036  -17.1841 H   0  0  0  0  0  0  0  0  0  0  0  0
    6.9316   10.5952  -22.6303 H   0  0  0  0  0  0  0  0  0  0  0  0
    7.6560   10.8907  -21.0134 H   0  0  0  0  0  0  0  0  0  0  0  0
    8.2259    9.5125  -22.0146 H   0  0  0  0  0  0  0  0  0  0  0  0
    4.6966   10.5921  -21.6706 H   0  0  0  0  0  0  0  0  0  0  0  0
    4.2444    9.4773  -20.3368 H   0  0  0  0  0  0  0  0  0  0  0  0
    5.3422   10.8626  -20.0164 H   0  0  0  0  0  0  0  0  0  0  0  0
    5.4822    8.6040  -23.0193 H   0  0  0  0  0  0  0  0  0  0  0  0
    6.7259    7.4925  -22.3530 H   0  0  0  0  0  0  0  0  0  0  0  0
    5.0648    7.4949  -21.6695 H   0  0  0  0  0  0  0  0  0  0  0  0
    4.0439    2.4372  -21.3988 H   0  0  0  0  0  0  0  0  0  0  0  0
    3.3032    1.4631  -20.0839 H   0  0  0  0  0  0  0  0  0  0  0  0
    5.2460    3.8931  -17.0480 H   0  0  0  0  0  0  0  0  0  0  0  0
    6.0336    4.7434  -18.4204 H   0  0  0  0  0  0  0  0  0  0  0  0
    5.9447    3.0161  -19.9832 H   0  0  0  0  0  0  0  0  0  0  0  0
    3.3449    3.2958  -18.3968 H   0  0  0  0  0  0  0  0  0  0  0  0
    4.7949    1.2121  -17.8678 H   0  0  0  0  0  0  0  0  0  0  0  0
    6.9528    9.1707  -13.7572 H   0  0  0  0  0  0  0  0  0  0  0  0
    3.5759    5.4881  -17.0294 H   0  0  0  0  0  0  0  0  0  0  0  0
    6.6783    6.3920  -13.8634 H   0  0  0  0  0  0  0  0  0  0  0  0
    7.1451    7.3287  -15.1169 H   0  0  0  0  0  0  0  0  0  0  0  0
    3.2522    4.0828  -20.5980 H   0  0  0  0  0  0  0  0  0  0  0  0
  1  2  2  0
  1  3  1  0
  2  8  1  0
  3  9  2  0
  4  8  2  0
  4  9  1  0
  5 10  2  0
  5 11  1  0
  6 10  1  0
  6 12  2  0
  7 11  2  0
  7 12  1  0
  8 18  1  0
  9 27  1  0
 10 23  1  0
 11 35  1  0
 12 36  1  0
 13 19  1  0
 13 28  1  0
 13 33  2  0
 14 15  1  0
 14 17  1  0
 15 18  1  0
 16 18  1  0
 16 31  1  0
 17 29  1  0
 17 31  1  0
 18 30  1  6
 20 27  1  0
 21 27  1  0
 22 27  1  0
 23 25  1  0
 24 26  1  0
 24 30  1  0
 25 26  1  0
 25 28  1  0
 26 34  1  0
 29 32  1  0
  1 37  1  0
  2 38  1  0
  3 39  1  0
  4 40  1  0
  5 41  1  0
  6 42  1  0
  7 43  1  0
 14 44  1  0
 14 45  1  0
 15 46  1  0
 15 47  1  0
 16 48  1  0
 16 49  1  0
 17 50  1  1
 19 51  1  0
 19 52  1  0
 19 53  1  0
 20 54  1  0
 20 55  1  0
 20 56  1  0
 21 57  1  0
 21 58  1  0
 21 59  1  0
 22 60  1  0
 22 61  1  0
 22 62  1  0
 23 63  1  0
 23 64  1  0
 24 65  1  0
 24 66  1  0
 25 67  1  6
 26 68  1  1
 28 69  1  0
 29 70  1  0
 30 71  1  0
 31 72  1  0
 31 73  1  0
 34 74  1  0
M  CHG  2  31   1  32  -1
M  END
>  <OMEGA_C>  (120) 
GL0JQZ1S9ECuSZPBg1f1QHxE40AWG4zBe+oCQcRLBUHEdJzBJdW7QLgm/UBThJfBQhHKQJ+LSD/g
iazBUcWSQB1BMb9XVaXBzNPUQLaG0L/vhazB6vPIQDkK6ED/Io7Byo/ZQDf4B0H1jZ7BxKqhQFUk
Gj89tafBHs/jQHSWqb7L1a7BOTmsQDVo5793z6fB0JbaQJn7vD+cW5DBsWudQF4nDEEV1nbBpfiG
QPLJ+UDqHoPBAz64QIJNvkCNo3nBZKOtQHhC/kCat2PB/gemQCHa1UCWuYbB6rnkQCi7Az+2NofB
WTrrQMXdIUEJ3a3Bh52hQGSXIUEJBqbBWHG7QCvuAUGm17DBthGIQE/t5T8/PKTBmj2iQG3lj0Dk
mo/B2fahQFp1JUC56ZvB2cuGQFzrbUCWZ5fBle3IQIs+E0FRrqjBfvmvQFx22D9CIpPBUAbEQOhK
DUEY81TBfsiLQMFYt0CTt4zBuaPLQNec3EDWs2rBO17OQERCBEG6IUTBOLf3QP4CB0DZjZTBBYxy
QBZkkkB36J/B7oYFQYwxHL6EJrPBStmdQIQrQ8DAhaXBpqAaQYhP8ECAwpHBgAEAQeKD0kAACYXB
tJcOQVbWC0HQ66HBnx+aQE3+/kCoXZnBuCrVQNmB4z8pd67BV71nQFbiU79fnqHBHXfoQOAzH8Dr
XK7Bkoq4QHjnE0HV8n7BlcSGQPNvGEE9TnHBvG1WQLda60DzLH7BPi94QKnfBUEML4rBliKeQFIu
rUCdgnHBLajQQFg5p0AO5H7BYhWSQOiB70Aln1vBX6gDQXWIBz/1lYXBjzfTQI8nUz8d/X/BRvDa
QG/tAL/2eInB9s/dQPiFKUHJCrXB7f30QDNALkFdG6jBQJ0DQTAzGEHwHbDBzkqWQEF5KUFmXa3B
U9KHQBWjF0GwsaLB9/KqQC3NLUGDIaDBOm6vQBiqCUGQJ7jBvjrXQCvC70D80rLBkxKiQJvW70AX
W63B2WeBQA77G0DSMKvBVmhTQNJFuz/Hq6DBJd+nQEMpeUBeYojBNBPBQJPJl0ALXZPBKTu+QDoH
QUCn3Z/BFxNWQPbtUkCPLJPB/G+ZQAImmz808Y7BOX3eQA+7EkFKHVzBD9tkQEOer0A/PIjBV7TV
QPGKzEBg0F3BcaTkQHWE6kDU3nHBJiRQQO2lgkCwyKTB1roJQf5M80DHXpPBW031QIR04kBMKIzB
JOoCQWnjBEEmg5zBJda7QCTh/ECOf5fBcgrKQBAVSD+Le6zBx5uSQBwBMb92TaXBP3fUQGrk0L/A
kazBSuzIQAur50D2Io7BE5DZQFHFB0E1jJ7BGaOhQGojGj/RpqfBHZrjQOlbq74+167BtuGrQAB7
57/s1qfB+X7aQFTNxD+u9o/BKkidQPxDDEGSLHfBtsmGQAKs+UAJL4PBRfu3QAhsvkAQhXnBFpet
QK7y/kDT7WPBJemlQBaz1UBFuIbBP9PkQEXU/z42Y4fBzsO7QLQWAkGp5bDBqQPrQFYqIkG7oq3B
dUChQLtZIUEG5KXBqBGIQMkE5j8TNKTBwC+iQMnIj0BYk4/B+wiiQKmcJUD+65vBgNWGQGz1bUCI
aZfB+d3IQFA9E0EWnKjBoRqwQGKr2D+DKZPBUB3EQE/cDUELclXB27OLQF8tt0D2sozBNnXLQDz6
3EA4tGrBNYTNQAVHBUG8Q0TBc9D3QB/jB0BAgZTBqdZyQMh/kkBr6Z/BMWgFQW0TIr48LrPBskud
QMwtQ8CFn6XBYZ0aQfr37kDx4pHBivL/QMOK0UC/G4XBwJcOQVVYC0FpAKLBYh6aQMXm/kBMU5nB
CEfVQMtD4z+sXK7BNX9nQAkfU7/jj6HB+fjnQPN5H8AWdK7BUly4QPPsE0EGaH/BKKWGQNybGEHm
wnHBxkRWQHlT60CcLH7BwH93QHqnBUErSIrBqsudQIuJrUCqVHHBJlTQQGAqp0Adp37Byw+SQISG
8EAXqlvBi90DQV9Z1z68cYbB6GfWQIyaTj/HfX/BlsXXQOAT9L6VyonBjLavQMT3CUGWKrjBg73X
QHBp8ECU7LLB6oSiQD3D70BRf63BAJ/dQIf4KUHlxrTBUGz0QHRsLkGLxqfBtJ4DQVWxGEFR66/B
9uOVQI9gKUFmMK3BgJaHQIkyF0FWpqLBBEuqQIVxLUHp6J/BmFuBQJTaG0D6K6vBvXRTQEeVuz+w
naDBCa+nQF/OeED8W4jBrhbBQOmul0BMTJPByz++QGg0QUBM5Z/BkgdWQDDlUkC+NpPBTrmZQIRC
lT/XS4/B3gnfQFfGEkGDj1zB9rdkQONvr0DdNojBo17VQLcgzUDOt13BMZLkQPmZ6kD96HHBdolQ
QK3OgkAyz6TB

>  <OMEGA_E>  (120) 
qEmxPuTWsD4=

>  <OMEGA_NBR>  (120) 
    183828

$$$$
50214043
     RDKit          3D

 68 71  0  0  1  0  0  0  0  0999 V2000
    8.6852    7.3730  -18.3151 C   0  0  0  0  0  0  0  0  0  0  0  0
    5.7690    9.5283  -22.9805 C   0  0  0  0  0  0  0  0  0  0  0  0
    8.3387    8.1358  -19.4378 C   0  0  0  0  0  0  0  0  0  0  0  0
    7.6786    6.8719  -17.4707 C   0  0  0  0  0  0  0  0  0  0  0  0
    5.6630    8.6340  -21.8440 C   0  0  0  0  0  0  0  0  0  0  0  0
    5.9750    7.8411  -18.9101 C   0  0  0  0  0  0  0  0  0  0  0  0
    6.3655    0.7728  -21.5675 C   0  0  0  0  0  0  0  0  0  0  0  0
    4.5989   -0.6802  -20.7067 C   0  0  0  0  0  0  0  0  0  0  0  0
    6.6635   -1.6465  -21.5738 C   0  0  0  0  0  0  0  0  0  0  0  0
    6.7690   10.4223  -22.6918 C   0  0  0  0  0  0  0  0  0  0  0  0
    6.9833    8.3421  -19.7421 C   0  0  0  0  0  0  0  0  0  0  0  0
    6.3093    7.1573  -17.7262 C   0  0  0  0  0  0  0  0  0  0  0  0
    5.0889    0.6105  -20.9860 C   0  0  0  0  0  0  0  0  0  0  0  0
    7.1565   -0.3552  -21.8487 C   0  0  0  0  0  0  0  0  0  0  0  0
    5.3822   -1.8076  -21.0089 C   0  0  0  0  0  0  0  0  0  0  0  0
    6.6291    9.0303  -20.9599 C   0  0  0  0  0  0  0  0  0  0  0  0
    6.8465    1.5031  -18.0891 C   0  0  0  0  0  0  0  0  0  0  0  0
    5.3566    8.2816  -14.2696 C   0  0  0  0  0  0  0  0  0  0  0  0
    4.8915    8.9164  -15.5906 C   0  0  0  0  0  0  0  0  0  0  0  0
    6.2950    7.0873  -14.5133 C   0  0  0  0  0  0  0  0  0  0  0  0
    4.2062    7.8613  -16.4674 C   0  0  0  0  0  0  0  0  0  0  0  0
    5.6551    6.0478  -15.4647 C   0  0  0  0  0  0  0  0  0  0  0  0
    5.1674    6.6871  -16.8019 C   0  0  0  0  0  0  0  0  0  0  0  0
    7.1639    0.5381  -16.9505 C   0  0  0  0  0  0  0  0  0  0  0  0
    4.2894    1.8186  -20.5690 C   0  0  0  0  0  0  0  0  0  0  0  0
    5.0804    4.5248  -17.9658 C   0  0  0  0  0  0  0  0  0  0  0  0
    5.0790    2.6196  -19.5165 C   0  0  1  0  0  0  0  0  0  0  0  0
    4.2204    3.7372  -18.9394 C   0  0  2  0  0  0  0  0  0  0  0  0
    5.5150    1.7314  -18.4194 N   0  0  0  0  0  0  0  0  0  0  0  0
    4.3466    5.7158  -17.5382 N   0  0  0  0  0  0  0  0  0  0  0  0
    7.7569    2.1275  -18.6237 O   0  0  0  0  0  0  0  0  0  0  0  0
    7.2802   10.1111  -21.4691 O   0  0  0  0  0  0  0  0  0  0  0  0
    3.7792    4.5923  -19.9946 O   0  0  0  0  0  0  0  0  0  0  0  0
    8.3934   -0.1980  -22.3713 F   0  0  0  0  0  0  0  0  0  0  0  0
    4.9076   -3.0446  -20.7433 F   0  0  0  0  0  0  0  0  0  0  0  0
    9.7237    7.1701  -18.0985 H   0  0  0  0  0  0  0  0  0  0  0  0
    5.1746    9.4967  -23.8817 H   0  0  0  0  0  0  0  0  0  0  0  0
    9.1081    8.5621  -20.0645 H   0  0  0  0  0  0  0  0  0  0  0  0
    7.9483    6.2643  -16.6196 H   0  0  0  0  0  0  0  0  0  0  0  0
    4.9635    7.8204  -21.7205 H   0  0  0  0  0  0  0  0  0  0  0  0
    4.9379    7.9796  -19.1775 H   0  0  0  0  0  0  0  0  0  0  0  0
    6.7337    1.7620  -21.7960 H   0  0  0  0  0  0  0  0  0  0  0  0
    3.6228   -0.8035  -20.2612 H   0  0  0  0  0  0  0  0  0  0  0  0
    7.2680   -2.5135  -21.7962 H   0  0  0  0  0  0  0  0  0  0  0  0
    7.0947   11.2337  -23.3258 H   0  0  0  0  0  0  0  0  0  0  0  0
    5.8905    9.0399  -13.6779 H   0  0  0  0  0  0  0  0  0  0  0  0
    4.4750    7.9344  -13.7107 H   0  0  0  0  0  0  0  0  0  0  0  0
    4.1807    9.7276  -15.3744 H   0  0  0  0  0  0  0  0  0  0  0  0
    5.7621    9.3244  -16.1250 H   0  0  0  0  0  0  0  0  0  0  0  0
    7.2305    7.4535  -14.9613 H   0  0  0  0  0  0  0  0  0  0  0  0
    6.5146    6.6030  -13.5504 H   0  0  0  0  0  0  0  0  0  0  0  0
    3.3309    7.4652  -15.9317 H   0  0  0  0  0  0  0  0  0  0  0  0
    3.8792    8.3338  -17.4054 H   0  0  0  0  0  0  0  0  0  0  0  0
    6.4012    5.2730  -15.6949 H   0  0  0  0  0  0  0  0  0  0  0  0
    4.7937    5.5882  -14.9579 H   0  0  0  0  0  0  0  0  0  0  0  0
    8.2468    0.5413  -16.7577 H   0  0  0  0  0  0  0  0  0  0  0  0
    6.6290    0.8539  -16.0426 H   0  0  0  0  0  0  0  0  0  0  0  0
    6.8443   -0.4766  -17.2301 H   0  0  0  0  0  0  0  0  0  0  0  0
    4.1002    2.4537  -21.4470 H   0  0  0  0  0  0  0  0  0  0  0  0
    3.3309    1.4930  -20.1386 H   0  0  0  0  0  0  0  0  0  0  0  0
    5.3126    3.9005  -17.0904 H   0  0  0  0  0  0  0  0  0  0  0  0
    6.0160    4.8256  -18.4601 H   0  0  0  0  0  0  0  0  0  0  0  0
    5.9611    3.0632  -20.0015 H   0  0  0  0  0  0  0  0  0  0  0  0
    3.3634    3.3023  -18.4042 H   0  0  0  0  0  0  0  0  0  0  0  0
    4.8109    1.2668  -17.8824 H   0  0  0  0  0  0  0  0  0  0  0  0
    3.5940    5.4267  -16.9466 H   0  0  0  0  0  0  0  0  0  0  0  0
    3.9775    6.1670  -18.3507 H   0  0  0  0  0  0  0  0  0  0  0  0
    3.2419    4.0962  -20.6011 H   0  0  0  0  0  0  0  0  0  0  0  0
  1  3  2  0
  1  4  1  0
  2  5  1  0
  2 10  2  0
  3 11  1  0
  4 12  2  0
  5 16  2  0
  6 11  2  0
  6 12  1  0
  7 13  2  0
  7 14  1  0
  8 13  1  0
  8 15  2  0
  9 14  2  0
  9 15  1  0
 10 32  1  0
 11 16  1  0
 12 23  1  0
 13 25  1  0
 14 34  1  0
 15 35  1  0
 16 32  1  0
 17 24  1  0
 17 29  1  0
 17 31  2  0
 18 19  1  0
 18 20  1  0
 19 21  1  0
 20 22  1  0
 21 23  1  0
 22 23  1  0
 23 30  1  0
 25 27  1  0
 26 28  1  0
 26 30  1  0
 27 28  1  0
 27 29  1  0
 28 33  1  0
  1 36  1  0
  2 37  1  0
  3 38  1  0
  4 39  1  0
  5 40  1  0
  6 41  1  0
  7 42  1  0
  8 43  1  0
  9 44  1  0
 10 45  1  0
 18 46  1  0
 18 47  1  0
 19 48  1  0
 19 49  1  0
 20 50  1  0
 20 51  1  0
 21 52  1  0
 21 53  1  0
 22 54  1  0
 22 55  1  0
 24 56  1  0
 24 57  1  0
 24 58  1  0
 25 59  1  0
 25 60  1  0
 26 61  1  0
 26 62  1  0
 27 63  1  6
 28 64  1  1
 29 65  1  0
 30 66  1  0
 30 67  1  0
 33 68  1  0
M  CHG  1  30   1
M  END
>  <OMEGA_C>  (121) 
wfYKQfHv60BohZLBgJu4QNFzGEEO2LfBdmsFQVksAkGGgJvBALf1QO7m20D2w4vB5Ta1QLkkCkGX
wK7BdDO/QAfq+kD4R5fByrHLQCbTRT9EiqzBNyqTQLsiLr9mp6XBqjvVQNzB0r87l6zBmZvYQN7B
JkHCiLXByXbfQF55BUHW753BIubJQIUI5UA6z43BidiiQMFJHD9A46fBWQLlQPritb4yyq7Bnzqs
QFxg578xEqjBXiHUQBp8EEHwrafBgBbbQBhkwD9utpDBRmmrQJqBBEEWUGTB6IacQIypDkEKc3nB
33DJQDDL4kCXNmjBfZmGQBWQ+0A4vYPBUPa0QHOHwUBab3fBh1ulQNr81UA5aobBWj7lQCvECT+d
mofBf0KJQKzG6D9ejaTB+5KiQBHLkED1uY/BRYeiQCinJ0DcIZzBeg2HQIYub0DZg5fB/3qwQISd
3T/bWpPBvBeLQPbntkA7TozBMjj4QKMpCEBa/ZTBBvfoQBHHIUGxwKvBHN5xQMXzkkAI9Z/BQEsG
QRi1Sr5n+LLBTAudQIjbQsA18qXBG5QbQb5x5UDIyZDBgZalQH7yF0GwDb/BuboRQTr+CEEdhKDB
Flj+QOR0yEDa9ITBLNWeQG5A+kCow63B4AKeQI5Y/0CCa5nBi3rXQJWI4T9AXq7Bw9xnQPCuTb/f
FqLBY5PoQMbcIMCuXq7BpgfjQF+9M0Evm7rB5368QGqjEEHT2FrBejOPQMvm/UAqX1vBlciFQHCk
G0Gg/XXBBWO4QJQwFUH6/4DBomDnQOqC7kCsYW/Br3fQQHtL00CBzljB2i1VQBHj7kBv6H7B+0R4
QDlXBUE9PovBwtbMQIi8qEBFHnvBt2WZQLnSskC5U2/B+/IDQX2PCj+uD4bBtSDUQMSYWj9OV4DB
MATbQKgA9L5X14nBojSDQAIKHUBek6vByCxVQNMavz/XG6HBsQCqQBSieUAOuYjBv4LAQH1rmkA6
rpPBRMG+QAkLREAAA6DBZEJXQB9YU0DOO5PB7fKZQJoloj8QD4/BwgRmQGCnrUClkofB349+QG5Y
xUA4zpLBM3tPQCMUg0AAz6TBSFEKQVE/8UAw7JHBuYzQQC4oIEGZjLfBTEkEQZnlA0EhIpvByhH1
QPgg4EDdIovBhInfQJelIEGZkqzBAna9QMXW+kAK/5bB9zzHQKE7Kz959KzB4JiSQEgIQb/1DKTB
S5HRQESg37/oaKzBJHC5QN6iDUFSv7jBbfbcQITNBUH2s53BbfDIQKyM5kBGYI3BJ7CgQADSBj+r
MKfBH9DfQGK97r7vea/B+dyqQFz88b/8vKbBKKLQQNxNDkHN8KfBJvbcQLjTwz+9/pDBvQqpQKTc
A0HwJ2PBsgibQO5dDkFOQnjB1oLHQLLb4UByD2fBoJKFQJ1T+0BCWIPB72m0QIoLwUA4AXfB2ryk
QCg01kABG4bBzDboQECjGz+ur4fBaNOHQKgr4D+B2KPBPL2jQNYckkBTDJDBXtmiQADvJkBeI5zB
rSuIQM3ScECsvpfBhxCyQDyK4z8DJ5PBzS2LQP4Qt0DmO4zBz535QL+BBkA95pXBEBi4QDCAA0Eh
IK/BvVp1QA82k0DsW6DBYpcCQdaqpr75zLTBphudQKOdR8AL0qPBiQwbQRcG7UDnCZDBjXLWQKIW
LEFhn73B6koQQZ4OC0FPNqDBXHD+QNX2zUBHK4TBMJHyQOz5LEFR1KjB8SWcQCx0/UCbM5nBwt3R
QHEO0z8Bbq/BA2tqQNHLXL9ylp/BvlHkQO+hJ8AlaK7B1taqQHgSCEFdEcDB4YC5QIvdD0GSQlnB
E36MQA4X/EBaqVrB3jeEQPRSG0Fj1XTB7zu3QM76FEGWOoDBMs3lQKgh7kC+mG3BjqjNQNCv0UCY
u1fBoABTQBwl7kAfXX7BzIt2QJJyBUEvzorBsSDNQIg3qUCu5HrBhRaZQIwGsUAJVG/BlZIFQY7q
FT+RnYbB6gfZQBwoez9ZVIDB1pHcQGjG0L5pZonBtZl/QMUZFkC5+arB8WNUQNFWuD/BzJ/BoeGs
QP/Se0CnNonBU7rAQFU8nUCaMZTBimS+QBYXQUAEiaDB/rxYQIjvVkDMbJPBYC2cQI8grz+NUo7B
iiBnQIZorEDtiYfBYmN9QHgJxkANlJLBBetSQK8ig0DEKaXBowgKQXR160B4mZPB7T/MQGqcLkFF
WbLBN58DQeevAEG725zBIkT1QPor3UDGMozBPL3lQM+zHEE+m67BVrm8QPWe+UABdZfBUW/KQBuK
QT/cCK3Biq2TQOnqLr+MJaXBBh3UQFnm1L8f4azB1RWlQMAbLUFAdq3B7lbbQOkmBEGdw57BBxLJ
QCJR5UBN7I3BdK6iQHVdGj8+0qfBQjHjQOK/wL5dhK/BqzqsQG9q6L8ZwafBFu3MQF1jEkE8NKfB
IanaQO9xwD8bhZDBL+eqQEhFBEHxzmPBDECbQFF8DkEexHjBmyjKQKWB40BbJ2jBtQOGQOr++kA+
coPBtku2QHXRwUC9U3fBCnWlQIsO1kAmQobByfHjQIYiCD+dZofBRG+JQO/q6D/LgqTBjUKjQDQs
kUDdyo/B8P+iQCL8J0CdLpzBKtyHQLyncED/rpfBSUuwQKHd3j9nUpPBsDeLQC5ztkAGBozB8jP4
QDbgB0AmqpTBx+CkQH8SG0G4b6fBlDR1QB7ok0DZK6DB2qsEQXxNab7ceLTBZnidQJwrQ8A+VaXB
U88aQRmL5UA5JpLBoz7WQIzROkEP7rfB3msPQRVsBkFEe6LBvk//QP3gy0DiJoXBBtMCQXhoGEHv
IrHBCSObQOz4/UB3LZnBDtXVQO/03j+eHa/BebxqQKOOTL+mGaHB9SDnQFUdIsA/ya7BHv2KQDhS
OEE6Ra7Buj27QPWEEEE6KlrBqCePQCEv/EAy6lrB9OiDQMYiG0EZFnXByKi2QBJ1FUE9qoDB0WDn
QMVq8EC7i2/B31HSQKkC1EAK41jBJLBUQECX7UDjUn7BHDp2QI0VBUGM54rBgtLOQL7UqUB0RHvB
G3GbQJYnskCKEm/Bzj4DQUpmBj+ntoXBIG7SQGJBWT9iM4DBoJjZQGVT9b44tonBuVODQPXAHEBA
kKvBAJNVQHVhwD9cAKHBmmerQKgXeUBd9YjBptDAQGnUm0DDwpPB6Xi/QBEzQ0CtFKDBIvFXQCTD
VUA+f5PBzGqZQEWUpD+xE4/B9T5oQJlCrEBOG4fBDxh8QP7dxEB/XJLBEfhSQLVHhEDGFqXBsaAL
QZkZ9kCv+o7BL8zPQMJMH0EI2rbB2lUHQbgyBkH5fpjBenL1QP/d5ED46ojBfyXZQP35DEEpBbDB
ASDCQJ1pAEHO05XBZcGkQPxeXz2oH67BGfucQIfZZr92PZzBmcW/QDQkDMCwXarBGeLMQNnLMEGk
QrDBcSPkQJehCEG3+5vBpDfKQPnS6kBZHYzB3yCWQKs4KD6xeKPBwkS5QJX4j7+mlbHBosGxQKHk
BMCHrp/BkSvbQEmvFEHwv6XB+x/nQP1Z5j9gCJPBv1ugQKdWAEHwO1/B+5KVQGIdDUFbm3PB+LDA
QEXe3EACEmTBIMaDQA1W/EDPkILBCP2wQMFev0C5eXbBZQSkQK8u2ECprYXBMWT9QFQ1kD+NkInB
1EaAQEE5uD9StJ/B27ClQF5GlUBC0JDBefygQPZzH0AnpJvBvf+IQPmVcEAeuZfBTq+6QL3a9D8M
3JLBhjmMQEMqukBY04zBzy78QF+oB0AY6prBC7vTQKEyKkG4+6XBG2t1QKElkECqzqDBg6/GQPUO
nr/t1rvB4Sm4QCUZRsCUvJjBNvEbQbor8kB0TozBDuvLQB8iH0HKb7/B6E8UQSThDEH3Hp3B+nD8
QMXk0kCUv4HBG5jdQBIy+UAjirLB9JKhQEeDAkGdiJjBJzqgQJf3Xz/MoLPBV0OSQFzLUL8WDpTB
bX7PQDDoRcADBq3BCE7GQKIAQUFqxLLBMSeuQHg9C0H6QlPB3NWCQIBi8kDq2FjBnuJ6QFdVGUG6
v2/BAsOyQOfzFEFejXnB41zfQMVn60Cyu2jBYz7FQB53yUAnkFXB+0VMQH937UBmOX/BOld5QCbA
B0HsuonBBd/KQJPnqEAXfXrBtfOUQOxirUChyHDBetsPQXlAgj+IT4vB9Tz5QONA3z9OW4LB6jvv
QMMGCT5DNojBCFNcQDFZ7z/LaqbBVldUQLpnmD+8JpnBgBqyQFvigkBZ+4nB75fAQPcVoUDrqJXB
mR62QEluMUBvT6LB6NNaQPA3XEDD4pLBczGrQJB0yj9oYYzB22NmQC+qrkD+wIjBR8iBQCi5ykBs
J5PBh+ZRQDIpfUCKI6XBILbIQOAtC0FZeJ7B4uQ5QTk5BUFSHovBMr30QNJACkFx/pvBwoWqQGVz
AUFIlZfBXK0oQQwgCUF0w5LBNxvkQJQY6UCWXIzBRm/ZQJymbT8ZkazBsuyrQMZ5R79YcaTBzjTu
QDSgtb+bYq3BW60xQT4S8UBKLYPBsQ0BQc7X/UDpy5LBnD+4QGrv7ECjOI7Bdji0QDKnEj+A2qbB
zHb2QJiPiL36ya/BLNfIQHAp47/0v6fBmhsXQVBF/UDD4I7Bt8XmQF0z1z8tcI/BpPaZQMCzAUG4
82HBZoiIQM+bDEFsQHbBtp68QJqV4kAsj2fB3LJrQCDT90Da7ILBagOsQFASwkCKMHjBikyYQD9A
10BGf4bBsKDyQBRcNT+5gYbBuaeVQJ080j8tMaPBXyShQP8vkkD2mI/B8tirQBRxJkBHS5vBSsKL
QGwmakDPopfBKLq7QLkl7D/i85HBTIWDQMf0tEBbnozB6Y8BQS6ICkDaA5XBBOwcQVi16EBNnIXB
FP58QIbyjUCjnKDBThENQVCCjT5bP7XBZsfAQBabRMA9fKXBGhW+QNNOE0HNnaXBVBJKQTQ2C0EV
oIvBGvUFQREaEkG5D6HBmtKIQJRdAkGAcZnBmp4pQU1tEkGWB5rBxRjvQGqW1UDEx4XBs57fQARn
+z/Odq7BBGyPQJZ0hr+YEKDBBEMCQeW5C8DW3K/BSTM6Qdm75UCSbnjBS7mnQGvxDUFrV1fB2BN/
QKcN80Atr1nBHnteQGz6F0Fwt3HBbbWiQKZDFUElOX7BEI3YQDRm80AKMm7BcxPGQIhf0UDp81jB
/GA3QDGO5kDS133BGJlSQHs2BEHABYrBbuHGQFmErUArDn3B+B2TQJhnrkAZkXDBtcUKQQgVEj8G
WYbB9uDnQByRjj9ej33BXv7iQMFOhb429IfBJnqKQCClDUA4LarBJUR0QBfWlT8QNp/BLa2pQKJj
f0CTa4jB4EW+QErxn0DXJJPBN7nGQEQURkAKYJ/BBlVgQL1sSkCT4JPBBhymQBUjtj+YHY3BbN5X
QDicqED9LYjBkYpuQBGGwUDfTpPBiAFiQFLRd0AXt6XB

>  <OMEGA_E>  (121) 
eGGnPpy0rD7MS6M+HiMyP/RPOD8=

>  <OMEGA_NBR>  (121) 
    189520

$$$$
50214042
     RDKit          3D

 68 71  0  0  1  0  0  0  0  0999 V2000
    8.6296    7.4135  -18.4668 C   0  0  0  0  0  0  0  0  0  0  0  0
    8.2199    8.0758  -19.6353 C   0  0  0  0  0  0  0  0  0  0  0  0
    7.6737    6.9562  -17.5401 C   0  0  0  0  0  0  0  0  0  0  0  0
    5.0378    9.6336  -21.1544 C   0  0  0  0  0  0  0  0  0  0  0  0
    5.8948    7.7668  -18.9808 C   0  0  0  0  0  0  0  0  0  0  0  0
    4.6238   -0.6444  -20.7526 C   0  0  0  0  0  0  0  0  0  0  0  0
    6.4073    0.8249  -21.5484 C   0  0  0  0  0  0  0  0  0  0  0  0
    6.7092   -1.5929  -21.5896 C   0  0  0  0  0  0  0  0  0  0  0  0
    5.1176   10.6293  -22.0838 C   0  0  0  0  0  0  0  0  0  0  0  0
    7.1745    9.7536  -21.9139 C   0  0  0  0  0  0  0  0  0  0  0  0
    6.8450    8.2591  -19.8896 C   0  0  0  0  0  0  0  0  0  0  0  0
    6.3921    9.1142  -20.9873 C   0  0  0  0  0  0  0  0  0  0  0  0
    6.2884    7.1631  -17.7732 C   0  0  0  0  0  0  0  0  0  0  0  0
    5.1192    0.6513  -20.9964 C   0  0  0  0  0  0  0  0  0  0  0  0
    5.4147   -1.7654  -21.0590 C   0  0  0  0  0  0  0  0  0  0  0  0
    7.2062   -0.2967  -21.8315 C   0  0  0  0  0  0  0  0  0  0  0  0
    6.7997    1.5125  -18.0133 C   0  0  0  0  0  0  0  0  0  0  0  0
    5.3131    8.2568  -14.2465 C   0  0  0  0  0  0  0  0  0  0  0  0
    4.8433    8.9043  -15.5580 C   0  0  0  0  0  0  0  0  0  0  0  0
    6.3088    7.1166  -14.5164 C   0  0  0  0  0  0  0  0  0  0  0  0
    4.1969    7.8495  -16.4588 C   0  0  0  0  0  0  0  0  0  0  0  0
    5.7114    6.0626  -15.4761 C   0  0  0  0  0  0  0  0  0  0  0  0
    5.1809    6.6940  -16.8010 C   0  0  0  0  0  0  0  0  0  0  0  0
    7.0847    0.4655  -16.9411 C   0  0  0  0  0  0  0  0  0  0  0  0
    4.3102    1.8514  -20.5765 C   0  0  0  0  0  0  0  0  0  0  0  0
    5.0688    4.5096  -17.9187 C   0  0  0  0  0  0  0  0  0  0  0  0
    5.0814    2.6326  -19.4972 C   0  0  1  0  0  0  0  0  0  0  0  0
    4.2240    3.7551  -18.9313 C   0  0  2  0  0  0  0  0  0  0  0  0
    5.4808    1.7299  -18.3977 N   0  0  0  0  0  0  0  0  0  0  0  0
    4.3476    5.7095  -17.5049 N   0  0  0  0  0  0  0  0  0  0  0  0
    7.7358    2.0334  -18.6109 O   0  0  0  0  0  0  0  0  0  0  0  0
    6.3992   10.6737  -22.5560 O   0  0  0  0  0  0  0  0  0  0  0  0
    3.8336    4.6343  -19.9878 O   0  0  0  0  0  0  0  0  0  0  0  0
    4.9324   -3.0077  -20.8361 F   0  0  0  0  0  0  0  0  0  0  0  0
    8.4523   -0.1288  -22.3282 F   0  0  0  0  0  0  0  0  0  0  0  0
    9.6811    7.2545  -18.2786 H   0  0  0  0  0  0  0  0  0  0  0  0
    8.9547    8.4433  -20.3363 H   0  0  0  0  0  0  0  0  0  0  0  0
    7.9963    6.4443  -16.6454 H   0  0  0  0  0  0  0  0  0  0  0  0
    4.1484    9.2962  -20.6430 H   0  0  0  0  0  0  0  0  0  0  0  0
    4.8436    7.8533  -19.2130 H   0  0  0  0  0  0  0  0  0  0  0  0
    3.6384   -0.7764  -20.3309 H   0  0  0  0  0  0  0  0  0  0  0  0
    6.7784    1.8183  -21.7528 H   0  0  0  0  0  0  0  0  0  0  0  0
    7.3208   -2.4552  -21.8109 H   0  0  0  0  0  0  0  0  0  0  0  0
    4.3068   11.2721  -22.3933 H   0  0  0  0  0  0  0  0  0  0  0  0
    8.2206    9.5624  -22.1023 H   0  0  0  0  0  0  0  0  0  0  0  0
    5.8020    9.0206  -13.6239 H   0  0  0  0  0  0  0  0  0  0  0  0
    4.4403    7.8525  -13.7128 H   0  0  0  0  0  0  0  0  0  0  0  0
    4.1085    9.6914  -15.3332 H   0  0  0  0  0  0  0  0  0  0  0  0
    5.7071    9.3463  -16.0762 H   0  0  0  0  0  0  0  0  0  0  0  0
    7.2200    7.5362  -14.9678 H   0  0  0  0  0  0  0  0  0  0  0  0
    6.5627    6.6297  -13.5632 H   0  0  0  0  0  0  0  0  0  0  0  0
    3.3215    7.4292  -15.9419 H   0  0  0  0  0  0  0  0  0  0  0  0
    3.8745    8.3304  -17.3941 H   0  0  0  0  0  0  0  0  0  0  0  0
    6.4918    5.3278  -15.7232 H   0  0  0  0  0  0  0  0  0  0  0  0
    4.8778    5.5554  -14.9684 H   0  0  0  0  0  0  0  0  0  0  0  0
    8.1710    0.3176  -16.8517 H   0  0  0  0  0  0  0  0  0  0  0  0
    6.6810    0.8087  -15.9771 H   0  0  0  0  0  0  0  0  0  0  0  0
    6.6072   -0.4852  -17.2209 H   0  0  0  0  0  0  0  0  0  0  0  0
    4.1375    2.5010  -21.4473 H   0  0  0  0  0  0  0  0  0  0  0  0
    3.3439    1.5190  -20.1695 H   0  0  0  0  0  0  0  0  0  0  0  0
    5.2555    3.8701  -17.0433 H   0  0  0  0  0  0  0  0  0  0  0  0
    6.0279    4.7940  -18.3761 H   0  0  0  0  0  0  0  0  0  0  0  0
    5.9805    3.0697  -19.9559 H   0  0  0  0  0  0  0  0  0  0  0  0
    3.3424    3.3282  -18.4307 H   0  0  0  0  0  0  0  0  0  0  0  0
    4.7602    1.2466  -17.9004 H   0  0  0  0  0  0  0  0  0  0  0  0
    3.6033    5.4348  -16.8961 H   0  0  0  0  0  0  0  0  0  0  0  0
    3.9674    6.1451  -18.3208 H   0  0  0  0  0  0  0  0  0  0  0  0
    3.3058    4.1580  -20.6180 H   0  0  0  0  0  0  0  0  0  0  0  0
  1  2  2  0
  1  3  1  0
  2 11  1  0
  3 13  2  0
  4  9  2  0
  4 12  1  0
  5 11  2  0
  5 13  1  0
  6 14  2  0
  6 15  1  0
  7 14  1  0
  7 16  2  0
  8 15  2  0
  8 16  1  0
  9 32  1  0
 10 12  2  0
 10 32  1  0
 11 12  1  0
 13 23  1  0
 14 25  1  0
 15 34  1  0
 16 35  1  0
 17 24  1  0
 17 29  1  0
 17 31  2  0
 18 19  1  0
 18 20  1  0
 19 21  1  0
 20 22  1  0
 21 23  1  0
 22 23  1  0
 23 30  1  0
 25 27  1  0
 26 28  1  0
 26 30  1  0
 27 28  1  0
 27 29  1  0
 28 33  1  0
  1 36  1  0
  2 37  1  0
  3 38  1  0
  4 39  1  0
  5 40  1  0
  6 41  1  0
  7 42  1  0
  8 43  1  0
  9 44  1  0
 10 45  1  0
 18 46  1  0
 18 47  1  0
 19 48  1  0
 19 49  1  0
 20 50  1  0
 20 51  1  0
 21 52  1  0
 21 53  1  0
 22 54  1  0
 22 55  1  0
 24 56  1  0
 24 57  1  0
 24 58  1  0
 25 59  1  0
 25 60  1  0
 26 61  1  0
 26 62  1  0
 27 63  1  6
 28 64  1  1
 29 65  1  0
 30 66  1  0
 30 67  1  0
 33 68  1  0
M  CHG  1  30   1
M  END
>  <OMEGA_C>  (122) 
xhIKQYU77UAJvJPBr4QDQZg2AUEUFZ3B5Y71QACZ3kAKUozB/zWhQEkjGkEhPKnBD6K8QNGJ+ECh
2JfBhfaTQCf4JL86BabB7QjNQJIpUz8GY6zBDLLWQLnly790t6zBT8OjQIMRKkGqq7DBSJXlQN8O
HEHBT6/BOgrbQFIlBEEAHp/BbozMQKzTEUEH5qfBsDrJQFc45UCBL47BUtCjQA65Jj+z+KfB1USt
QEL34b/oeKjBYJnmQO7tl77bpq7BKJfZQPmXwT9XG5DBkwSqQPYbBEF68WPBBPyaQCV4DkGq7XjB
GeLJQPG640D+QmjBxUyGQAQv+0CIq4PBEMS2QAYBwkApnnfB8MmlQEA11kCKaIbBhLXiQLpP7j5T
h4fBke2JQMH67D+tnKTBwTOiQFpOkEB3WY/BhpqiQK98KEAy+pvBByuHQL9TcEBXc5fB22KvQPxr
3T9lLpPBex+LQAK0tkDxCYzBVov3QHUjAkAM45TB/cXMQHTHKkGWcrTBkVl1QDJMlED05p/BWdad
QCF+QMBOsKbBkTwHQSXfA74XoLLByOUaQQsl6ECBOpLBi0YPQd4XB0GvsKLBd+H/QL43zkDgKYXB
i7+EQG+9FEHzJKXBwP6aQNdN+0BHtJnB7tpoQA7FRr+spaLB8+jYQI696D+kBa7B10PqQJwhHcCs
fK7BYdGJQIlaNEGQJbPBg4cDQZX/GEGG0bDBmKm5QI9UEEGF+1nBiBaOQM5H+0DRZ1vBoHiDQCYQ
G0HRVHXBSaC2QG6KFUESnIDB4AnnQOIo8UDue2/BSwHSQOUm1ECyAlnBkpNUQDm87UAdEn/BMvh3
QCVJBUEbJ4vBJ73PQI99qkAcknvBwhacQAnGsUCXfm/BdbwCQa2coj5g0IbBiMrVQNIJTz9Von/B
x23TQJNn+L5zxInBNGaEQAMQIED4k6vBFwJWQEZuwj8yW6HBuCyoQK2vd0C9WIjBfOTAQMhomUBN
ApPBkmC/QLh2RECXpZ/B9OlVQAMCVUArcpPBtFOYQIKRnz8YNI/B6ZtmQEDqrUBBK4fBOup9QGWk
xEDzkJLB8pJTQK4OhUCd8aTBDQIKQRE+7EB37JPBCHsDQfBnAUEQEJ3BmG/1QGhd3UB1jozBNY7o
QBWfHEGHyq/BW4i8QB4o+kDPspfBTnqTQP70Jb+4FabBOnXMQIaGUD/FmKzB1SnWQGI/zb/3v6zB
8WvPQJ+dKkG8X7XB4LSkQIrCGkE3Y6nBIQrbQEkABUHX757BhiTNQDS+EkG1xafBczDJQJA/5UCs
O47BJUijQL40JT9kJqjBZNesQOTC4r/TbajBqP/lQOJOnr7wza7BvEfZQBA1wz+AApDBCtOrQD7h
A0H0DWTBdgecQNg4DkFv6njBLTnLQLT34kARmmjBVqaGQMWp+kDGiYPBiVO3QDtnwUABz3fBWf6l
QD7Q1UCZc4bBJGviQHBI6D6qn4fByKSJQLCt7D+4wqTB22KiQPT/j0DOco/BjIqiQKnSJ0DDG5zB
bzqHQJWnb0BFhZfBsUSvQELR2j8AYJPBwlWLQH5utkDoHozBejv3QOhzBkDNXpTBw6CmQBpGKUEo
f7HBwPN0QBf7k0Ca8Z/BVLmdQBi3QMBiX6bBT/MGQXbaE76yxLLBBc4aQW9J5kCXi5LBg0APQRBU
B0HopqLBPK7/QKHOy0CzkYXBJhQFQTSBGUGsE7HBbeOaQBEQ/kCBapnB895nQOfeRr8CtaLBAlLY
QPg15z/nTK7B3rPpQKnqHcCzfK7BngLaQPP4NEF3w7vBiFKIQFNRFkG+/KTBlxS8QHwVEEH7UVrB
RyqQQMse+0DgMFvBTsCEQLLdGkElHnXBHGK3QFg5FUHdv4DBa0joQI4e8ECRC3DB5afTQEBT00DJ
aFnBHydWQLUn7UBMeH7Byih3QKcCBUEC9YrBuu7PQLSdqUCF7HvB0LKcQKh4sUDYf2/B3JoCQdDV
rz5onobBaffTQI7FPz8/6X/BN6jUQLoMAb/XP4rBATmEQJ8kIEDVtavBElRVQErFwj9ggaHBnneo
QModd0CUcojBDAXBQJsYmUCAI5PB7FO/QAS/Q0Anx5/BKUBWQGNAVEBEepPBMESYQH+pmD/Dp4/B
/eZmQKShrUC0RYfB4oV+QK14xEAxpZLB4gZTQJe6hECu96TBehkKQeUk60DS4JPBraMDQQA5AUGk
65zBTYf1QKkx3EDuiIzBi4zoQJsVHEGHzK/Ba9u8QBZG+kB4h5fBC6/MQFjWSz/Zi6zBGFuTQOgJ
Jr/x96XB6r3VQMH5z78enqzBo5rPQOwoKkGMYrXBtWelQJ+YG0G546jBq2bbQB0aBUFnuZ7Bl3rN
QNT2EkE3gKfBE13JQNHL5EDBJI7BdnOjQJu7Iz99GajBLO7lQGnaq74Qt67BYV+sQMHL47/+SqjB
xbvZQH4Jvz93bpDBZWmsQErPA0EaCGTBb62cQIIqDkF45njBaFbLQIxm4kAIjmjBlueGQMeh+kCS
e4PB1gW3QAL9wECvtHfB+felQJ6J1UBqZ4bBTbXiQOAMAz/VWofBheuJQB3a7D870qTBKkOiQKsI
kEDng4/BQaeiQHU2KEBKLZzBoSWHQKq/b0DPl5fBwX+vQPBE3D87a5PBpTeLQLFdtkCTHozBklz3
QCFGCECCXZTBwDinQEamKUHnMrHBaoN0QDgClEBaAaDBv+kGQVB/PL7zt7LBEsqcQDDlQMBTQKbB
L94aQRev5ECBjpLBtW8PQTgzB0FDe6LBVqL/QAcOykDRoIXBvukEQeFyGEGPQrHBpzybQDqP/kAq
OJnBGdDYQHBc5D94R67Bt6xnQC1cRL+qjaLBCgzpQOSqH8A5U67BFAvaQNMCNEF6/LvBD1iJQBPg
F0GuM6TBqAq9QMv0D0E2YlrBUq2QQLNj+0B0FVvBLaeFQE3tGkFuG3XBFhq4QB8EFUFbxoDBXoro
QOsn70C9B3DB/JvTQJG80kCGWFnB26NWQLRc7UCWRn7BR5p3QO79BEEz5orBG1PPQNTeqEDAynvB
MzKcQNZvsUBXYG/BkY4CQdtXBD8Kf4XBNH7QQLa1Tz9GN4DBnPrYQMXs/75azonBx8mEQL/cH0Ce
0avBKZtVQAHnwz+5maHBAHmoQHX7dkA8iojB9NTAQARFmUCNN5PBN2C/QIZsREDp15/BEjpWQOIN
VEAKjZPB1XKYQN0Inz+aZo/BRbJmQP5yrUChR4fBekB+QA+ZxECnnZLBdaRSQBK3hEDfBqXBR2jS
QF28CUHFJJ/Bhrf+QK+8BkGljZ3BZMu0QKAkAUESu5fBS7kvQRSr+UDdQpjBOgLvQBca4kCr3Y3B
x+rKQBZyOT/bjazBbOaRQF2/L7/KXaXBDj/RQAEE2r8zWK3BtCNBQfyE8EAq/pHBOGQkQUc54kCJ
DojBjGIGQasS9UBctJTBa/gcQQkS8EDi2JHB7lbDQDA46kCrxY7B5dSiQEKXFz95eafBATDiQMa/
2L6yb6/B9vGoQC+l6r+SYqjB38vZQNlctj+Lx4/BgLqxQCMdAEHHgGHBiXafQBV7DEFOwXTBDejP
QHui3EA8+WjBJdqGQGyy+kDo8oHBajy5QBnxvkDZFnnBekWkQLcZ10DwZ4bB5FbhQNTOqj5YcIfB
NHOKQBO16D8UFKTBGFuiQF6ekUBmgY/B7B6kQCIkJ0DKs5vBROiIQJ6vcUANr5fBWuKvQIVy3T8Q
qpLB1vuJQHG1t0AoJozBlHr4QH0n9D/BhpTBUBM6QWxu4kAxRYjBz4d9QPiMlEA0ZaDBbEYEQXpX
l77NUrTB1jeYQCDBQ8DCk6bBDBzHQKWTEkFFAqbBn8oKQVSsDUF/BqPBdu+SQOC7A0EX4ZjBQuwv
QVjSAkGGXaDBsSH6QA6PzEBwtYfBrrTXQG9V2j/OOa7BTI9mQGUdSb96cKHBwyfjQD1yJcAGi6/B
r61RQebj80CIWZTB1pQaQfvL2ECNWIHB5H7DQHNBC0FkLFfBPDCXQGT58UBBZljB9YyJQCz1GEGF
627B3vK5QL34E0E2mn3BlxDsQKwS60CdrnDB1S7aQA2+yUBiClvBm65YQLfR60CRBnvBo+JzQD+0
BkHrqojBo+TQQEoFqEBNS3/B99SfQOCErUCjknDBDecBQejz+j2+2YbB3VrVQB5RLD8CP3/BuUfQ
QCGvFL+Y1YnBcLGEQMwkHUDbGqvBtkJXQEy9wT8FmKDBmIOoQPBbekAhgojBPPrAQOWum0ChCpPB
PEDBQMiIQEDcfJ/B0C1XQDSWWEBy9ZPBuDaYQIDvqT9/WY7BXlVkQCFWrkDoWIfBtJN7QMy5xUCZ
qZLBQHNdQJg+hUBWmKXBkD4KQSQO8UB0N5PBpeUDQS9kBEGNLZzBGob1QHYC4EDdQozBdyOvQBku
B0ESlq/BRue8QFNM/UAicJfBzJXMQLAFST9CjqzBIn6TQKpDK7+P/KXBL7HVQB1W0b+i2azB60Kz
QGiYEUEQJbnBCwzjQI91IEE1Bq7BEf7bQKEVB0HVXp7BPTnPQDhKEEHRiKjBMDvJQPRz50CMC47B
j4KjQE50Hz9+B6jBmsvlQLnPr76x3K7BN3KsQO//5b+teKjBMmnZQP54vj+LGJDBHLSrQNxsA0Fz
kmPBU3WbQNQADkG6PXjBBT7LQGpX4kD9Z2jBYVSGQFl/+kCsWYPBfI63QOhEwUDZ+XfBQROmQKBc
1kBhdIbBDS7iQN/fzz71xYfByfKJQAdm6j99qqTBzI2jQNIqkUAx0o/B7tuiQOVMJ0AhEZzBo62H
QDuVb0DogpfBhF6vQJG92j8sRpPBOO6LQHoHt0DAT4zBvoj3QAvGAkDcjJTBXIbRQD9FIUE3AbjB
NuxyQP37kkA1+p/BzsUGQRqwPr4F8bLBQt6cQNA+QsBClKbBvAkbQePa60CEppHB4sMPQVFvC0GZ
YKHB+4H/QDQKzUDue4XBLYuYQN1c9UB/qq3BmV6bQKWHAEHgTZnBjKDYQBY94z+jPq7BfC5oQIH0
Sr9RhKLB2vfoQOUrIMAgqq7BaqahQCQQDkGvXcDBlRD8QA65KkHk/arBHPW7QH6OD0EZv1nBXTyQ
QDvY+UAxsVrBRumDQCdwGkFHLXTB9ZK2QHhRFUFBYIDBwVDoQMjc70Auq2/BRpzTQIMn0kAbWVnB
KPxVQMRQ7EBaLX7B5+l1QLsjBUE4r4rBslLQQDbPqUCZUHzBOgadQDbXsEBw1W/BvnYCQUuTiT5B
5YbBXWbUQBhuNT/UC4DBDobTQGopCr9eYIrBTnOEQBujHkBipavBrAJWQMDOwD+cX6HBnZarQLd1
ekA52ojBIijBQJMOm0DZ45PBTba/QE/NQkDnwJ/BcZdYQD9oVEDpJZPBvyeYQDy/nD+XXI/BmDpo
QNF/rUBnh4fBmXp/QLxtxUDqxZLBCRxQQIYPg0BJxaTB

>  <OMEGA_E>  (122) 
tLukPjgApT5gTqU+zJz3PkhfpD4=

>  <OMEGA_NBR>  (122) 
    195212

$$$$
50212924
     RDKit          3D

 74 76  0  0  1  0  0  0  0  0999 V2000
    8.5885    7.5427  -18.4984 C   0  0  0  0  0  0  0  0  0  0  0  0
    7.6559    7.0092  -17.5948 C   0  0  0  0  0  0  0  0  0  0  0  0
    8.1534    8.2640  -19.6218 C   0  0  0  0  0  0  0  0  0  0  0  0
    5.8441    7.8745  -18.9648 C   0  0  0  0  0  0  0  0  0  0  0  0
    6.4164    0.8311  -21.5823 C   0  0  0  0  0  0  0  0  0  0  0  0
    4.6330   -0.6444  -20.7987 C   0  0  0  0  0  0  0  0  0  0  0  0
    6.7120   -1.5873  -21.6584 C   0  0  0  0  0  0  0  0  0  0  0  0
    6.2663    7.2087  -17.7951 C   0  0  0  0  0  0  0  0  0  0  0  0
    6.7697    8.4524  -19.8605 C   0  0  0  0  0  0  0  0  0  0  0  0
    5.1290    0.6535  -21.0300 C   0  0  0  0  0  0  0  0  0  0  0  0
    7.2105   -0.2889  -21.8861 C   0  0  0  0  0  0  0  0  0  0  0  0
    5.4200   -1.7634  -21.1223 C   0  0  0  0  0  0  0  0  0  0  0  0
    6.7669    1.4706  -17.9978 C   0  0  0  0  0  0  0  0  0  0  0  0
    4.8810    8.8891  -15.5743 C   0  0  0  0  0  0  0  0  0  0  0  0
    6.4103    7.1095  -14.5741 C   0  0  0  0  0  0  0  0  0  0  0  0
    4.1999    7.8141  -16.4296 C   0  0  0  0  0  0  0  0  0  0  0  0
    5.7715    6.0513  -15.5076 C   0  0  0  0  0  0  0  0  0  0  0  0
    5.4488    8.2748  -14.2805 C   0  0  2  0  0  0  0  0  0  0  0  0
    5.1911    6.6827  -16.8133 C   0  0  2  0  0  0  0  0  0  0  0  0
    7.0304    0.3648  -16.9804 C   0  0  0  0  0  0  0  0  0  0  0  0
    5.9541    8.0873  -22.1951 C   0  0  0  0  0  0  0  0  0  0  0  0
    7.3046   10.1604  -21.6984 C   0  0  0  0  0  0  0  0  0  0  0  0
    4.9661    9.9766  -20.8373 C   0  0  0  0  0  0  0  0  0  0  0  0
    4.3200    1.8511  -20.5994 C   0  0  0  0  0  0  0  0  0  0  0  0
    5.0794    4.4927  -17.9208 C   0  0  0  0  0  0  0  0  0  0  0  0
    5.0828    2.6149  -19.5014 C   0  0  1  0  0  0  0  0  0  0  0  0
    4.2271    3.7349  -18.9262 C   0  0  2  0  0  0  0  0  0  0  0  0
    6.2601    9.1629  -21.1289 C   0  0  0  0  0  0  0  0  0  0  0  0
    5.4589    1.6911  -18.4131 N   0  0  0  0  0  0  0  0  0  0  0  0
    4.3579    5.6913  -17.5058 N   0  0  0  0  0  0  0  0  0  0  0  0
    7.7138    2.0430  -18.5272 O   0  0  0  0  0  0  0  0  0  0  0  0
    4.3774    7.7858  -13.4806 O   0  0  0  0  0  0  0  0  0  0  0  0
    3.8214    4.6150  -19.9761 O   0  0  0  0  0  0  0  0  0  0  0  0
    8.4527   -0.1172  -22.3913 F   0  0  0  0  0  0  0  0  0  0  0  0
    4.9367   -3.0072  -20.9089 F   0  0  0  0  0  0  0  0  0  0  0  0
    9.6452    7.3977  -18.3287 H   0  0  0  0  0  0  0  0  0  0  0  0
    7.9990    6.4431  -16.7414 H   0  0  0  0  0  0  0  0  0  0  0  0
    8.8777    8.6776  -20.3078 H   0  0  0  0  0  0  0  0  0  0  0  0
    4.7880    7.9437  -19.1802 H   0  0  0  0  0  0  0  0  0  0  0  0
    6.7907    1.8264  -21.7713 H   0  0  0  0  0  0  0  0  0  0  0  0
    3.6495   -0.7797  -20.3735 H   0  0  0  0  0  0  0  0  0  0  0  0
    7.3201   -2.4480  -21.8947 H   0  0  0  0  0  0  0  0  0  0  0  0
    5.7018    9.3422  -16.1497 H   0  0  0  0  0  0  0  0  0  0  0  0
    4.1447    9.6636  -15.3137 H   0  0  0  0  0  0  0  0  0  0  0  0
    6.6835    6.6266  -13.6243 H   0  0  0  0  0  0  0  0  0  0  0  0
    7.3150    7.5085  -15.0561 H   0  0  0  0  0  0  0  0  0  0  0  0
    3.3646    7.3802  -15.8604 H   0  0  0  0  0  0  0  0  0  0  0  0
    3.8147    8.2793  -17.3489 H   0  0  0  0  0  0  0  0  0  0  0  0
    6.5395    5.3134  -15.7829 H   0  0  0  0  0  0  0  0  0  0  0  0
    4.9570    5.5480  -14.9661 H   0  0  0  0  0  0  0  0  0  0  0  0
    6.0011    9.0552  -13.7365 H   0  0  0  0  0  0  0  0  0  0  0  0
    8.1151    0.2291  -16.8582 H   0  0  0  0  0  0  0  0  0  0  0  0
    6.5845    0.6422  -16.0138 H   0  0  0  0  0  0  0  0  0  0  0  0
    6.5811   -0.5745  -17.3353 H   0  0  0  0  0  0  0  0  0  0  0  0
    5.5879    8.5727  -23.1117 H   0  0  0  0  0  0  0  0  0  0  0  0
    6.8712    7.5232  -22.4203 H   0  0  0  0  0  0  0  0  0  0  0  0
    5.1855    7.3998  -21.8121 H   0  0  0  0  0  0  0  0  0  0  0  0
    6.8987   10.6422  -22.6001 H   0  0  0  0  0  0  0  0  0  0  0  0
    7.5291   10.9273  -20.9425 H   0  0  0  0  0  0  0  0  0  0  0  0
    8.2266    9.6184  -21.9559 H   0  0  0  0  0  0  0  0  0  0  0  0
    4.6276   10.4710  -21.7597 H   0  0  0  0  0  0  0  0  0  0  0  0
    4.1799    9.2976  -20.4756 H   0  0  0  0  0  0  0  0  0  0  0  0
    5.1760   10.7363  -20.0700 H   0  0  0  0  0  0  0  0  0  0  0  0
    4.1574    2.5137  -21.4622 H   0  0  0  0  0  0  0  0  0  0  0  0
    3.3488    1.5159  -20.2064 H   0  0  0  0  0  0  0  0  0  0  0  0
    5.2734    3.8556  -17.0453 H   0  0  0  0  0  0  0  0  0  0  0  0
    6.0347    4.7779  -18.3856 H   0  0  0  0  0  0  0  0  0  0  0  0
    5.9909    3.0515  -19.9425 H   0  0  0  0  0  0  0  0  0  0  0  0
    3.3525    3.3044  -18.4166 H   0  0  0  0  0  0  0  0  0  0  0  0
    4.7279    1.1935  -17.9462 H   0  0  0  0  0  0  0  0  0  0  0  0
    3.6198    5.4162  -16.8898 H   0  0  0  0  0  0  0  0  0  0  0  0
    3.9692    6.1218  -18.3204 H   0  0  0  0  0  0  0  0  0  0  0  0
    4.7253    7.4065  -12.6821 H   0  0  0  0  0  0  0  0  0  0  0  0
    3.2893    4.1379  -20.6020 H   0  0  0  0  0  0  0  0  0  0  0  0
  1  2  2  0
  1  3  1  0
  2  8  1  0
  3  9  2  0
  4  8  2  0
  4  9  1  0
  5 10  2  0
  5 11  1  0
  6 10  1  0
  6 12  2  0
  7 11  2  0
  7 12  1  0
  8 19  1  0
  9 28  1  0
 10 24  1  0
 11 34  1  0
 12 35  1  0
 13 20  1  0
 13 29  1  0
 13 31  2  0
 14 16  1  0
 14 18  1  0
 15 17  1  0
 15 18  1  0
 16 19  1  0
 17 19  1  0
 18 32  1  0
 19 30  1  6
 21 28  1  0
 22 28  1  0
 23 28  1  0
 24 26  1  0
 25 27  1  0
 25 30  1  0
 26 27  1  0
 26 29  1  0
 27 33  1  0
  1 36  1  0
  2 37  1  0
  3 38  1  0
  4 39  1  0
  5 40  1  0
  6 41  1  0
  7 42  1  0
 14 43  1  0
 14 44  1  0
 15 45  1  0
 15 46  1  0
 16 47  1  0
 16 48  1  0
 17 49  1  0
 17 50  1  0
 18 51  1  1
 20 52  1  0
 20 53  1  0
 20 54  1  0
 21 55  1  0
 21 56  1  0
 21 57  1  0
 22 58  1  0
 22 59  1  0
 22 60  1  0
 23 61  1  0
 23 62  1  0
 23 63  1  0
 24 64  1  0
 24 65  1  0
 25 66  1  0
 25 67  1  0
 26 68  1  6
 27 69  1  1
 29 70  1  0
 30 71  1  0
 30 72  1  0
 32 73  1  0
 33 74  1  0
M  CHG  1  30   1
M  END
>  <OMEGA_C>  (123) 
qWoJQdpd8UCu/JPB/Pz0QDJL4EAUwozBQXQCQVM5BEFo+ZzBvQK7QID7+0Dmt5fB0lLNQEnEVD+U
qKzBTEGUQCr5JL/MY6bBWMjWQNosy79ORK3BTIXIQJyt5kBaXI7BkKHYQOE8B0Fl4p7B1yCkQNZK
Jz9XPajBgbzmQH/ok77JFq/Bi3CtQJS44b9o+qjBfIrYQJI8vD9o+4/BHjGcQJ05DkFrMHnBAiHN
QFGB40CLL2nBvmWGQEIN+kDEb4PBWbC4QAqkwUAaH3jBg1yuQHxlBEEAfWTB3B2mQGTY1UCygYbB
2/jgQLzGuj7H14fBNoi+QJRlAUF5j7HBfb/pQM2QIkFKlq3BqOqeQPSfH0HFsqbBKj2KQBbw7D+U
y6TBeIqiQBzEj0C4XY/B5KWiQGVaJ0DTApzBX0SHQCsJb0DyaJfBvlLIQBybEkH/B6nB7q6uQKh1
2D8WTpPBHnSLQHQftkDkC4zBXtf2QPTAAkDCN5TBChSMQFwl+UC2sFfBl5J0QDmuk0Ajz5/BZT4H
QdAK8L1bIbPBjPmdQHd2QMBpRafB31IaQT+67EA1oZLB1ff/QI8tzkBz7oXBMgsOQWTXCkFudqLB
sjeZQOwy/kACcZnBvE3ZQJXG6T+bK67ByJBpQDmaR7/y/KLBED7qQKWrHMA/KK/B5nS2QIl5FUGF
MoHBRKGEQCyeGkHzBHXBBN/VQDoN1EAY/VnBYxTqQFpF8EDz5XDB01VXQHwq7EAsxH3BmyN0QB14
BEGOyorBVEPRQHMHqkD1hnzBYZ+eQJGJsUAVdW/BqAjAQPrhEEGSyFvBhNcBQX+Raj6c3YbBn7TS
QM9nJD84HIDBm5jSQNYPE7+ororB28+yQKYpCUHO5LjB5+DbQPC98EDTXLPBw++lQIDL7EA3f67B
0MHcQGFGKkHvzLTBsu7wQDbWLkE0iqfB/Z8DQfbkGUG4pa/BkhWUQGGJJ0HsE67BqcGFQNrCFEEd
zqPB5qGlQLnHK0FHj6DBqAmFQOXgIECosqvBSVJWQEwKwj+spqHBqb+oQJHCdkCtXIjBQhzBQFLk
mEC4FZPBsrW/QEtLQ0BLip/BoI9WQBF7U0AxVZPBvEqXQJXDmD/HkY/BZKpnQG5RrUBfHofBFgh+
QMHlw0BFkJLB/TWXQAYC7UAV6krBgIRSQNpphED20KTBWYMJQeYl8UDG8JPBcxH1QBIB4EDQwIzB
+p0CQfonBEHZ7JzB7T67QCnE+0A4wJfBNOiTQNytJL9wUKbBFhzNQObbUj+po6zBqozWQL40zL+3
CK3B6Z/IQNp05kDNYo7BXvjYQHohB0EN4p7BUtijQITiJj+xP6jBpyWtQOgB4r+axKjBDJDmQJxc
mb73767BiuPYQNgovj8XBpDBbjmcQGA1DkGtUHnBQRDNQPVz40D/Q2nBKnCGQBcK+kC9gYPB25i4
QDuUwUDELXjBSE+uQHRhBEHPmGTBsB2mQIjB1UDAi4bB+XnhQGJpxj5K1IfBVRG9QGh/AUEUbLHB
YNLqQGLxIUEdwq3BV2SgQL5aIEHzeqbB5B+KQKA07T8/1KTBYpSiQNfDj0Bza4/BVrGiQPp4J0D7
EJzBLj6HQK3UbkCga5fBJLHIQGifEkHB/ajBVwCvQPzG2D/VYJPBRXCLQMQKtkCBE4zBXRn3QNcg
BECcPpTBsvaLQP4p+UDz0lfB4M5zQHuCk0AezJ/Bd8OdQPFxQMDn56bB1D8HQY5nCL5L4LLB4mga
Qet/7ECRjZLBafD/QBHHzUAe74XBtz4OQdvVCkHeX6LBgnqZQM77/UBbgZnB77FoQLwWRr+G86LB
yhvZQKOL6D8KO67BOQPqQPNZHcBg2K7BdIi2QDlxFUE9QIHBlKyEQEidGkHwKnXBP8vVQBII1EAI
D1rB6wXqQLIu8EAZ/HDBfUFXQNo57EA28H3BIHN0QEZ2BEGm34rBoCLRQNfnqUA6jXzBGHueQOWN
sUAMhG/Ba/m/QArdEEEQ4lvBWRoCQehyhj75zIbBdPbSQBNkKj9+IIDBcHHTQBrEDr9CporBP1ex
QOphCUEZubjBDKHZQBHl70BmVbPB0vWjQMvu7UDtNa7B1tLdQJfEKUGO8LTBqEbzQCErLkGHyqfB
WMgDQQbAGEG666/BlniVQIFdKEEo063B88SGQH3zFUEmbKPBe3CoQIl0LEFJaqDBf/qEQGLmIEC+
vqvB1QhWQDzzwj9Dq6HBRwCpQILVdkC4a4jBcwrBQI78mEDVLZPBuJ+/QMCtQ0AioZ/BQtxWQI/2
UkBjTZPBob+XQJPPlz+ZrI/BLsVnQCorrUDNIofB69B9QPvTw0CnlJLB9wmXQGsG7UAxCUvBNqlR
QL8nhEAkx6TB

>  <OMEGA_E>  (123) 
EJhKPsDWSj4=

>  <OMEGA_NBR>  (123) 
    197877

$$$$
50212937
     RDKit          3D

 76 78  0  0  1  0  0  0  0  0999 V2000
    8.5958    7.6649  -18.4877 C   0  0  0  0  0  0  0  0  0  0  0  0
    7.6730    7.0842  -17.6011 C   0  0  0  0  0  0  0  0  0  0  0  0
    8.1461    8.4091  -19.5919 C   0  0  0  0  0  0  0  0  0  0  0  0
    5.8464    7.9468  -18.9535 C   0  0  0  0  0  0  0  0  0  0  0  0
    6.3152    0.8100  -21.5952 C   0  0  0  0  0  0  0  0  0  0  0  0
    4.6291   -0.6809  -20.6412 C   0  0  0  0  0  0  0  0  0  0  0  0
    6.6582   -1.6013  -21.6318 C   0  0  0  0  0  0  0  0  0  0  0  0
    6.2798    7.2482  -17.8089 C   0  0  0  0  0  0  0  0  0  0  0  0
    6.7588    8.5770  -19.8259 C   0  0  0  0  0  0  0  0  0  0  0  0
    5.0752    0.6174  -20.9507 C   0  0  0  0  0  0  0  0  0  0  0  0
    7.1099   -0.2992  -21.9277 C   0  0  0  0  0  0  0  0  0  0  0  0
    5.4157   -1.7903  -20.9919 C   0  0  0  0  0  0  0  0  0  0  0  0
    6.7700    1.4475  -17.9481 C   0  0  0  0  0  0  0  0  0  0  0  0
    5.4365    8.7794  -13.1773 C   0  0  0  0  0  0  0  0  0  0  0  0
    5.7793    5.9744  -15.5827 C   0  0  0  0  0  0  0  0  0  0  0  0
    4.1870    7.7456  -16.4378 C   0  0  0  0  0  0  0  0  0  0  0  0
    6.3653    6.9917  -14.6023 C   0  0  0  0  0  0  0  0  0  0  0  0
    4.8562    8.7867  -15.5669 C   0  0  0  0  0  0  0  0  0  0  0  0
    5.2078    6.6617  -16.8591 C   0  0  0  0  0  0  0  0  0  0  0  0
    7.0299    0.3815  -16.8870 C   0  0  0  0  0  0  0  0  0  0  0  0
    6.1069    8.2649  -22.2150 C   0  0  0  0  0  0  0  0  0  0  0  0
    7.2022   10.4349  -21.5308 C   0  0  0  0  0  0  0  0  0  0  0  0
    4.8497    9.9624  -20.8340 C   0  0  0  0  0  0  0  0  0  0  0  0
    4.2720    1.8042  -20.5077 C   0  0  0  0  0  0  0  0  0  0  0  0
    5.1242    4.5062  -17.9758 C   0  0  0  0  0  0  0  0  0  0  0  0
    5.0762    2.5822  -19.4575 C   0  0  1  0  0  0  0  0  0  0  0  0
    4.2440    3.7283  -18.9192 C   0  0  2  0  0  0  0  0  0  0  0  0
    6.2389    9.3043  -21.0809 C   0  0  0  0  0  0  0  0  0  0  0  0
    5.4254    8.1101  -14.3897 N   0  0  0  0  0  0  0  0  0  0  0  0
    6.4692    8.5752  -12.2831 N   0  0  0  0  0  0  0  0  0  0  0  0
    5.4577    1.6896  -18.3415 N   0  0  0  0  0  0  0  0  0  0  0  0
    4.3955    5.6951  -17.5794 N   0  0  0  0  0  0  0  0  0  0  0  0
    7.7192    1.9685  -18.5242 O   0  0  0  0  0  0  0  0  0  0  0  0
    4.5129    9.5199  -12.8626 O   0  0  0  0  0  0  0  0  0  0  0  0
    3.8254    4.5782  -19.9896 O   0  0  0  0  0  0  0  0  0  0  0  0
    8.3054   -0.1125  -22.5301 F   0  0  0  0  0  0  0  0  0  0  0  0
    4.9791   -3.0366  -20.7070 F   0  0  0  0  0  0  0  0  0  0  0  0
    9.6552    7.5389  -18.3198 H   0  0  0  0  0  0  0  0  0  0  0  0
    8.0266    6.5100  -16.7575 H   0  0  0  0  0  0  0  0  0  0  0  0
    8.8621    8.8555  -20.2660 H   0  0  0  0  0  0  0  0  0  0  0  0
    4.7894    8.0011  -19.1682 H   0  0  0  0  0  0  0  0  0  0  0  0
    6.6526    1.8081  -21.8325 H   0  0  0  0  0  0  0  0  0  0  0  0
    3.6854   -0.8237  -20.1358 H   0  0  0  0  0  0  0  0  0  0  0  0
    7.2644   -2.4554  -21.8955 H   0  0  0  0  0  0  0  0  0  0  0  0
    6.5708    5.2712  -15.8812 H   0  0  0  0  0  0  0  0  0  0  0  0
    4.9692    5.4236  -15.0822 H   0  0  0  0  0  0  0  0  0  0  0  0
    3.3681    7.2737  -15.8751 H   0  0  0  0  0  0  0  0  0  0  0  0
    3.7813    8.2314  -17.3375 H   0  0  0  0  0  0  0  0  0  0  0  0
    6.5602    6.4956  -13.6400 H   0  0  0  0  0  0  0  0  0  0  0  0
    7.3084    7.3847  -15.0098 H   0  0  0  0  0  0  0  0  0  0  0  0
    5.6572    9.2853  -16.1325 H   0  0  0  0  0  0  0  0  0  0  0  0
    4.1156    9.5334  -15.2445 H   0  0  0  0  0  0  0  0  0  0  0  0
    8.1134    0.2221  -16.7841 H   0  0  0  0  0  0  0  0  0  0  0  0
    6.6153    0.7142  -15.9239 H   0  0  0  0  0  0  0  0  0  0  0  0
    6.5478   -0.5604  -17.1879 H   0  0  0  0  0  0  0  0  0  0  0  0
    5.7364    8.7594  -23.1251 H   0  0  0  0  0  0  0  0  0  0  0  0
    7.0904    7.8154  -22.4166 H   0  0  0  0  0  0  0  0  0  0  0  0
    5.3998    7.4788  -21.9113 H   0  0  0  0  0  0  0  0  0  0  0  0
    6.7966   10.9280  -22.4265 H   0  0  0  0  0  0  0  0  0  0  0  0
    7.3051   11.1725  -20.7212 H   0  0  0  0  0  0  0  0  0  0  0  0
    8.1879   10.0057  -21.7632 H   0  0  0  0  0  0  0  0  0  0  0  0
    4.5154   10.4695  -21.7511 H   0  0  0  0  0  0  0  0  0  0  0  0
    4.1205    9.1866  -20.5575 H   0  0  0  0  0  0  0  0  0  0  0  0
    4.9314   10.6962  -20.0185 H   0  0  0  0  0  0  0  0  0  0  0  0
    4.0657    2.4539  -21.3711 H   0  0  0  0  0  0  0  0  0  0  0  0
    3.3221    1.4648  -20.0690 H   0  0  0  0  0  0  0  0  0  0  0  0
    5.3574    3.8962  -17.0906 H   0  0  0  0  0  0  0  0  0  0  0  0
    6.0587    4.7900  -18.4821 H   0  0  0  0  0  0  0  0  0  0  0  0
    5.9823    2.9872  -19.9320 H   0  0  0  0  0  0  0  0  0  0  0  0
    3.3759    3.3297  -18.3736 H   0  0  0  0  0  0  0  0  0  0  0  0
    6.4564    9.0293  -11.3922 H   0  0  0  0  0  0  0  0  0  0  0  0
    7.2298    7.9733  -12.5265 H   0  0  0  0  0  0  0  0  0  0  0  0
    4.7257    1.2309  -17.8377 H   0  0  0  0  0  0  0  0  0  0  0  0
    3.6361    5.4188  -16.9904 H   0  0  0  0  0  0  0  0  0  0  0  0
    4.0361    6.1349  -18.4025 H   0  0  0  0  0  0  0  0  0  0  0  0
    3.2703    4.0884  -20.5849 H   0  0  0  0  0  0  0  0  0  0  0  0
  1  2  2  0
  1  3  1  0
  2  8  1  0
  3  9  2  0
  4  8  2  0
  4  9  1  0
  5 10  2  0
  5 11  1  0
  6 10  1  0
  6 12  2  0
  7 11  2  0
  7 12  1  0
  8 19  1  0
  9 28  1  0
 10 24  1  0
 11 36  1  0
 12 37  1  0
 13 20  1  0
 13 31  1  0
 13 33  2  0
 14 29  1  0
 14 30  1  0
 14 34  2  0
 15 17  1  0
 15 19  1  0
 16 18  1  0
 16 19  1  0
 17 29  1  0
 18 29  1  0
 19 32  1  0
 21 28  1  0
 22 28  1  0
 23 28  1  0
 24 26  1  0
 25 27  1  0
 25 32  1  0
 26 27  1  0
 26 31  1  0
 27 35  1  0
  1 38  1  0
  2 39  1  0
  3 40  1  0
  4 41  1  0
  5 42  1  0
  6 43  1  0
  7 44  1  0
 15 45  1  0
 15 46  1  0
 16 47  1  0
 16 48  1  0
 17 49  1  0
 17 50  1  0
 18 51  1  0
 18 52  1  0
 20 53  1  0
 20 54  1  0
 20 55  1  0
 21 56  1  0
 21 57  1  0
 21 58  1  0
 22 59  1  0
 22 60  1  0
 22 61  1  0
 23 62  1  0
 23 63  1  0
 23 64  1  0
 24 65  1  0
 24 66  1  0
 25 67  1  0
 25 68  1  0
 26 69  1  6
 27 70  1  1
 30 71  1  0
 30 72  1  0
 31 73  1  0
 32 74  1  0
 32 75  1  0
 35 76  1  0
M  CHG  1  32   1
M  END
>  <OMEGA_C>  (124) 
jogJQRJH9UDa5pPBiYn1QGGx4kAlz4zBc1YCQYuLBkE9vJzB+xW7QOVL/kCtoJfBNxbKQGdZTz8P
w6zB+SGUQFdQLr8kIaXBqA/VQED4zL/sDa3B1vPIQKLx50CgeI7BMUjYQDM7CUGFm57B22eiQE8L
Hj/xmqfBD4TjQDYumb75a6/BiE2tQF4o5b9c76fBA6TYQGFIuT/BlY/B6fetQHN4DEEx1lLB4O+4
QO8tv0CmUnnB//uFQLfb90CxgIPBKLDLQES830DXomnBU2abQHiWDEEsEnnBXaamQLMs1UCJ34bB
tPTgQJZOwz59GIfBgWvDQO48BEFfuLHBBnjmQF/1JkEFP6zBpjCbQCZmH0ELrKbBJLSIQF/w5j/e
D6TBjPmjQAEzkEBvzo/BiXCiQGdDJUD1qJvBjc6HQNybbkB6WpfB9aTHQIveFEHGpajBIJ2tQMjC
AUFKPGbB/QPPQAw0CUFih0TBQKWuQLFD2D9bu5LBFKiMQE4+tkCaoozB0wP3QHz4+z+DMZTB1WmQ
QJRRGEFfzU3B8tN0QLeAkkCd6p/B1+IEQZx25r2iPbTBc1SfQM5XQsDwp6XB2XsaQX4+8UACj5LB
72wAQVRS0EBHD4bBVMsNQUiwDUG4IKLBxEKZQJIEAEGHWJnBPuLUQK9v5z/oqK7BvN1rQEbcUr8w
FqHBuXXoQKYkHcD2Ka/BykPSQN2tqECSGX7B9AOfQDyOrUCZUHHB3o5XQPzB6EBVAH7BewFyQJ2z
A0FEs4rB1OzRQODbz0CdPVrBGN7pQHNP7EBPKHDB7Ae1QIWQFEFoD4HBDLODQNGIGEGT6XPBg9AB
QSt6Yz7tRYbBlrDTQNXUNj9nyH7B34fRQDh2D7/CgInBqpC3QH8mDEErALnBteTiQPIX+kAxVbPB
f8usQKFS70BYSq/BF37ZQDnZLkGJabPB+sLpQHbCMkEGxaXBswEDQTwXIEEQG67BxH2QQASDJ0FS
Aq7BatuDQHb8EkG7daTBW86dQHAjK0H5JaDB1hmCQD4MHUAA+KrBgZ1UQJN9uz9HjaDBkm+rQCNb
eUCluYjBjODBQFhHmUBD25PBwG6/QPwtP0CvdJ/BHA9YQFQaVUAY/ZLBnprOQAp4EEFuRjbBQFrn
QAol/0CNbEjBBDmXQNeMnT+Ps47BerVoQDdnrUBP7IfB1CeBQM1QxEA/OJPB2ExRQGPUgkDoraTB

>  <OMEGA_E>  (124) 
IH2EPg==

>  <OMEGA_NBR>  (124) 
    199430

$$$$
50214045
     RDKit          3D

 68 71  0  0  1  0  0  0  0  0999 V2000
    8.5168    7.5586  -18.6026 C   0  0  0  0  0  0  0  0  0  0  0  0
    5.7567   10.3247  -22.9286 C   0  0  0  0  0  0  0  0  0  0  0  0
    8.0016    8.2636  -19.7036 C   0  0  0  0  0  0  0  0  0  0  0  0
    7.6426    7.0423  -17.6232 C   0  0  0  0  0  0  0  0  0  0  0  0
    6.4897    9.3239  -22.1505 C   0  0  0  0  0  0  0  0  0  0  0  0
    5.7459    7.9202  -18.8569 C   0  0  0  0  0  0  0  0  0  0  0  0
    6.3223    0.6868  -21.6163 C   0  0  0  0  0  0  0  0  0  0  0  0
    4.5766   -0.6788  -20.5874 C   0  0  0  0  0  0  0  0  0  0  0  0
    6.5656   -1.7377  -21.5206 C   0  0  0  0  0  0  0  0  0  0  0  0
    4.7699   10.9467  -22.2004 C   0  0  0  0  0  0  0  0  0  0  0  0
    6.6102    8.4452  -19.8137 C   0  0  0  0  0  0  0  0  0  0  0  0
    6.2392    7.2452  -17.7338 C   0  0  0  0  0  0  0  0  0  0  0  0
    5.0742    0.5843  -20.9659 C   0  0  0  0  0  0  0  0  0  0  0  0
    7.0684   -0.4738  -21.8898 C   0  0  0  0  0  0  0  0  0  0  0  0
    5.3180   -1.8391  -20.8724 C   0  0  0  0  0  0  0  0  0  0  0  0
    6.0340    9.2535  -20.8627 C   0  0  0  0  0  0  0  0  0  0  0  0
    6.7851    1.5458  -17.9902 C   0  0  0  0  0  0  0  0  0  0  0  0
    5.4344    8.0910  -14.1309 C   0  0  0  0  0  0  0  0  0  0  0  0
    4.8720    8.7948  -15.3750 C   0  0  0  0  0  0  0  0  0  0  0  0
    6.4385    6.9903  -14.5169 C   0  0  0  0  0  0  0  0  0  0  0  0
    4.1993    7.7643  -16.2859 C   0  0  0  0  0  0  0  0  0  0  0  0
    5.8193    5.9749  -15.5031 C   0  0  0  0  0  0  0  0  0  0  0  0
    5.2019    6.6677  -16.7537 C   0  0  0  0  0  0  0  0  0  0  0  0
    7.0306    0.5066  -16.9001 C   0  0  0  0  0  0  0  0  0  0  0  0
    4.3123    1.8320  -20.5944 C   0  0  0  0  0  0  0  0  0  0  0  0
    5.1528    4.5751  -18.0457 C   0  0  0  0  0  0  0  0  0  0  0  0
    5.1122    2.6337  -19.5518 C   0  0  1  0  0  0  0  0  0  0  0  0
    4.2828    3.7966  -19.0171 C   0  0  2  0  0  0  0  0  0  0  0  0
    5.4811    1.7564  -18.4225 N   0  0  0  0  0  0  0  0  0  0  0  0
    4.3847    5.6948  -17.5004 N   0  0  0  0  0  0  0  0  0  0  0  0
    7.7405    2.0737  -18.5495 O   0  0  0  0  0  0  0  0  0  0  0  0
    3.8821    4.6476  -20.0909 O   0  0  0  0  0  0  0  0  0  0  0  0
    8.2654   -0.3748  -22.5101 F   0  0  0  0  0  0  0  0  0  0  0  0
    4.8323   -3.0499  -20.5193 F   0  0  0  0  0  0  0  0  0  0  0  0
    4.6969   10.3379  -20.5797 S   0  0  0  0  0  0  0  0  0  0  0  0
    9.5825    7.4119  -18.5062 H   0  0  0  0  0  0  0  0  0  0  0  0
    5.9684   10.5502  -23.9634 H   0  0  0  0  0  0  0  0  0  0  0  0
    8.6657    8.6615  -20.4567 H   0  0  0  0  0  0  0  0  0  0  0  0
    8.0411    6.4900  -16.7849 H   0  0  0  0  0  0  0  0  0  0  0  0
    7.2909    8.7164  -22.5447 H   0  0  0  0  0  0  0  0  0  0  0  0
    4.6794    8.0353  -18.9827 H   0  0  0  0  0  0  0  0  0  0  0  0
    6.7043    1.6552  -21.9037 H   0  0  0  0  0  0  0  0  0  0  0  0
    3.6268   -0.7555  -20.0791 H   0  0  0  0  0  0  0  0  0  0  0  0
    7.1366   -2.6292  -21.7345 H   0  0  0  0  0  0  0  0  0  0  0  0
    4.1218   11.7179  -22.5898 H   0  0  0  0  0  0  0  0  0  0  0  0
    5.9424    8.8335  -13.4981 H   0  0  0  0  0  0  0  0  0  0  0  0
    4.6040    7.6376  -13.5697 H   0  0  0  0  0  0  0  0  0  0  0  0
    4.1330    9.5490  -15.0667 H   0  0  0  0  0  0  0  0  0  0  0  0
    5.6916    9.2859  -15.9201 H   0  0  0  0  0  0  0  0  0  0  0  0
    7.3155    7.4570  -14.9892 H   0  0  0  0  0  0  0  0  0  0  0  0
    6.7520    6.4581  -13.6067 H   0  0  0  0  0  0  0  0  0  0  0  0
    3.3773    7.2841  -15.7348 H   0  0  0  0  0  0  0  0  0  0  0  0
    3.7961    8.2794  -17.1703 H   0  0  0  0  0  0  0  0  0  0  0  0
    6.6047    5.2800  -15.8351 H   0  0  0  0  0  0  0  0  0  0  0  0
    5.0290    5.4136  -14.9832 H   0  0  0  0  0  0  0  0  0  0  0  0
    8.1130    0.3690  -16.7611 H   0  0  0  0  0  0  0  0  0  0  0  0
    6.5809    0.8513  -15.9572 H   0  0  0  0  0  0  0  0  0  0  0  0
    6.5744   -0.4496  -17.1959 H   0  0  0  0  0  0  0  0  0  0  0  0
    4.1597    2.4489  -21.4923 H   0  0  0  0  0  0  0  0  0  0  0  0
    3.3361    1.5527  -20.1713 H   0  0  0  0  0  0  0  0  0  0  0  0
    5.4711    3.9139  -17.2262 H   0  0  0  0  0  0  0  0  0  0  0  0
    6.0390    4.9590  -18.5723 H   0  0  0  0  0  0  0  0  0  0  0  0
    6.0217    3.0293  -20.0275 H   0  0  0  0  0  0  0  0  0  0  0  0
    3.4043    3.4024  -18.4853 H   0  0  0  0  0  0  0  0  0  0  0  0
    4.7453    1.2836  -17.9377 H   0  0  0  0  0  0  0  0  0  0  0  0
    3.6880    5.3286  -16.8835 H   0  0  0  0  0  0  0  0  0  0  0  0
    3.9408    6.1719  -18.2589 H   0  0  0  0  0  0  0  0  0  0  0  0
    3.3382    4.1585  -20.6971 H   0  0  0  0  0  0  0  0  0  0  0  0
  1  3  2  0
  1  4  1  0
  2  5  1  0
  2 10  2  0
  3 11  1  0
  4 12  2  0
  5 16  2  0
  6 11  2  0
  6 12  1  0
  7 13  2  0
  7 14  1  0
  8 13  1  0
  8 15  2  0
  9 14  2  0
  9 15  1  0
 10 35  1  0
 11 16  1  0
 12 23  1  0
 13 25  1  0
 14 33  1  0
 15 34  1  0
 16 35  1  0
 17 24  1  0
 17 29  1  0
 17 31  2  0
 18 19  1  0
 18 20  1  0
 19 21  1  0
 20 22  1  0
 21 23  1  0
 22 23  1  0
 23 30  1  0
 25 27  1  0
 26 28  1  0
 26 30  1  0
 27 28  1  0
 27 29  1  0
 28 32  1  0
  1 36  1  0
  2 37  1  0
  3 38  1  0
  4 39  1  0
  5 40  1  0
  6 41  1  0
  7 42  1  0
  8 43  1  0
  9 44  1  0
 10 45  1  0
 18 46  1  0
 18 47  1  0
 19 48  1  0
 19 49  1  0
 20 50  1  0
 20 51  1  0
 21 52  1  0
 21 53  1  0
 22 54  1  0
 22 55  1  0
 24 56  1  0
 24 57  1  0
 24 58  1  0
 25 59  1  0
 25 60  1  0
 26 61  1  0
 26 62  1  0
 27 63  1  6
 28 64  1  1
 29 65  1  0
 30 66  1  0
 30 67  1  0
 32 68  1  0
M  CHG  1  30   1
M  END
>  <OMEGA_C>  (125) 
3kQIQajf8UAh0pTB2Ta4QAUyJUHGbbfBuQYAQaQ3BEH6oJ3BT5D0QC1a4UA6/IzBQKvPQIouFUFH
NLHBE963QIxy/UDg2pbBiVDKQHnPLz8y7qzBK3OSQL3GLb8Ps6TBkBnSQA5u3r80KqzBGaOYQLYl
L0F7mrHBtobTQL4fB0F1gp7B0afHQAfZ50DN3o3Bs1+iQJCSFT8ouqfBpTDiQAib8r5gHq/B3iyq
QNBm67+t+qbBMxbBQHYOFEG95qbBeR/ZQCrexT/f64/BWuatQKF0AUFVGGLBc+ebQJa3DEEuAHbB
XgjOQFqw30BeRWjBp2CGQO90+ECHSYLBvze6QKcyv0CGDHjBu3WmQAle1UCSB4bBb/rgQHazAT9W
M4fBPf6JQPB/6j9UwaTBqOOkQN5mkkCYXZDBFJejQPyOKEAgapzB3AyJQFD7ckAbI5jBGGWvQCTT
4D89YZPBRE+MQHk7tkDWAIzBV7L3QL63BEBjZZTBhHR4QCS5lEA/uqDBBT8EQRrmv763FLTBHaKa
QKQxQ8CBJ6TBxUyWQCNoJUFGo6TBwVEZQT0u7UC8DJTBaP2+QHjNKEH5tL/Bu6YKQXCVCkE8p6PB
PKgAQeWtz0CMR4bBB0/pQE92C0GRW7TBrr2VQHmQAEGj3JfBQonWQFLe0z/YOq/BBx1oQMlmQb/x
oaDBKV/kQA1EKMAu4K3BY+WDQGd8O0Hgt7TBUSi+QDRWDUFF+FfBEVSTQIFn9EB+HVnBx0GEQNzI
GEE3EXHBryG2QB6TFEGnuH7B8RjqQMyf7kCX02/BEhDYQGqozkActVnBfSVYQBwX6UDHwXvB7vNy
QHB4BEG1XInB0FnTQCX2qECpXH3BK+2gQGA8rUAfu2/B/M4BQVTovD6zFobBepbSQBrsWT+qUH/B
2GHSQMc05r4okYnBYRyFQE+6HEA78KvB84JVQH29xj+8XqHB/BKvQGx9ekBDz4nBKD/BQDuwnkAF
lJTB+rHAQMPfQUBZOKDBY+BZQGXAWUDy4ZPBztmXQGVLpD9ZgI/B1AdsQDaEqkBsEYfBqzV8QPp/
xUA8EpLBl6RVQNYShUC1k6XBLMQKQTtg8EDNxZHBDpzUQHzrIUEQ8LfBKx8FQfr/AkHqL5vB62r1
QApT4ED5+orBidHkQJ7eHkF/D63B78q+QFOm+kAtKJfBJ5fGQOzFRT8/Ha3B7RCWQAqTR7+EIqTB
OujUQKKzz7/sjq3BneO3QKdWEkE05rrBc8veQIMHBUEi7p3BvIDJQLoH50DrZ43Bho2hQDjHCT/F
8KbBelTgQHGUnL65XbDBmKevQM8A7r9BfqfBS6zSQO1oDUEmPqjBTtfcQHkfxj8jUZDBWbenQAa4
BEHUeWPB1eCaQOU5D0FKwnjB1T3GQAKF40CCCWfB9b+FQNkt/UAPsYPBlnyzQMigwkDUAnfBGa6k
QFqM10AuN4bBHxDoQLjBFT/kRofBBjaHQOIw2j/pB6PBL2WjQFu0kkC+2Y/Bh1eiQP/ZJUA/kJvB
ILCHQD52cEBsW5fBReaxQKc25T9/c5LBniCLQB5XuED8VYzBHzb5QKWb+j+AQJbBgCV0QAI4kkBR
HaDBuvcBQdRLm73KN7bBrZakQFHpR8Af2qTBh1quQORtAEEkjrDBd2sbQckL7EC4vI/BJifeQIX4
LkHQEr3B6lkRQae1CUFhSaDB3jX+QCHGzkCO3oPBXDX8QPcfKUEKTKnBWJmdQL7U/UBPbZnBCivP
QNf34z+rV6/B+2FzQL/Idb8ia5/BsbToQBneHMAADrDBuxmpQC1dEUFqscLBg763QOexEEH5XlnB
8raKQKfh/UB+WFvBqCuEQA5OHEEMoXXBmZK3QPasFUGiU4DBZrzkQCep70BKZW3BmO3LQJSC00B0
n1fBPitSQIB08EBgZH/B0Nx4QIBeBkHSO4vBTSvMQOqTqkCBmHrBMMuXQIToskC1gm/BDFMFQZL/
wj7kYofB8T3fQF2chD+CHn/BhWHWQKF6tr4dXYjBuN54QBguE0Cg7KnBW2tWQPgEqj8yoZ7BXFSs
QJCcfkD+2ojB7X/AQM4QnUB2EZTBarS9QD0/P0A/GaDB7+9XQEpfV0CZ7pLBJCqcQI7ksj81fo3B
CeplQOlprkCzt4fBl9V+QLoGx0AP0JLB4olRQH+0gUAdzqTBmL4JQSzv8ECIpJPBaFOeQFpZK0HR
SbHBdM4CQUGcA0E5vZzBmIb1QAn24EDYQ4zBobqhQGmQG0HzsajBGZa7QCp4/ECOPpfBSuDJQKIr
ND8BBa3BkEKTQLNfMb+/maTBYPnSQA+7278RV6zBm7LEQJn8LkGjTrbBdHrZQPqpBkFjh57B4gXJ
QJBx50BA4I3BDlGiQKc8FD+4qqfBNDXiQPo4476xVK/BcHWrQNWD678A/qbBnebKQPYWFEFgbafB
QxjaQGZ6xz/oFZDBh0KrQLZkAUHlJGLBiPiaQP/dDEHJTnbBwanLQM6e30DA4GfBAmGGQNxf+UDu
yYLB8ZG4QCtzv0AlDnjBRV+mQE/L1UBBO4bBwiDjQEyCAD+/kofBdXiJQKwP6D8gkqTB0GSkQJc2
kkCRTZDBKyqjQBz9J0DxT5zBjFOIQLqCcUBH6ZfB6gewQAkR4D8YWpPB3jWMQGTbtkCeQIzBUA/4
QHMXB0DeoJTBc510QB+mk0Dwc6DBhRIEQayvpb61b7TB1MGcQGvNQ8DTH6TBRzDtQGlXH0Gt6LDB
NqMaQQYH7ED4TJLBZ9qAQOJFM0GXcrPB5VcOQTTYCUGhXaLBajoAQVqbz0CaT4XBwfuGQOhZFkFG
4qPBfcyZQPC3/0CA3pjBlXTVQC3w1j+uVq/BrlVqQMdSSb8Va6DB9pblQEdHJsCqJa7BPCTJQI0s
OkEzzLzBscu6QIkkDUE8l1fByvGPQG049EBBxFnBYRmDQEz1GEHGtnHBoPy1QBC8FEEFZX7BIjzo
QJGH7kDK9G7BCrvUQHFhzkDmN1nBkuJVQNVc6kA+gH3B+252QDgvBUHl+InBQtHRQH/zqEB98HzB
OoaeQB7ArUDiMHDBXfQCQb8wwT54qIbB9jPVQGtVUj8A0H/BOcbUQFbh6L44BIrBcNCDQLB/G0Aj
uKvBizNVQDQZwj8VEqHBqi6uQH95e0CMk4nBIPzAQDCZnUAkk5TBItC/QMFOQkD+OaDB+Z5ZQJVd
V0CUgJPBSv+YQLj7oT8DYY/BlUVqQB74q0CJbIfBHgV+QN4HxkCSeZLBTodRQBujg0BIMqXBD5gL
QVVS9UA2BI/BjDTAQFwCK0H1OrPBAV4HQeahBUGOlJjBwkf1QBnM5EAc44jBdIjAQPEdJEFZ9KfB
GQPCQAUZAUGKoJXBirmkQIJXaT2CLq7BzhOdQOkyZ7/oTpzBtcO/QEIMDMCzd6rBBXjaQJS4HkHl
kLnBPi3kQPfLCEFA7ZvB+BHKQMx760D/AIzBdy6WQEK6KD4uhaPBQjW5QM2Wj785q7HBWtOxQBzx
BMCkxp/Btu3bQJo7E0ENO6bBsjznQP8L5j9cGpPB6megQGAtAEGlEl/B/FuVQLYDDUFIYHPBQL3A
QIqc3EDjB2TBOoSDQNE2/EBSdoLBU+6wQNNIv0B9enbB3uijQAlV2EDupIXBnJD9QLN/jz9KqInB
rVeAQMI5uD/XuZ/Buc2lQARzlUAJ2JDBaw2hQAWEH0BNqpvBUxSJQDyncEA5upfB4M66QKno9D8J
5pLBdUuMQIpdukAk3IzBRjn8QNJ+B0Ae/5rBjTZ1QBobkED+zaDBnozGQKlqnb+K7rvBGki4QGM/
RsAX2ZjBy5P0QAYmC0EIF7LB3+YbQawe8UAGXIzBqmmtQKQ/OEGEMLbBoW0UQYalC0E0X53BZCr8
QKjJ0kB6t4HBonatQDJ5K0EjwqHBVW6hQIzfA0ESJ5jBvyegQCPfYD9qrLPB3GmSQK6hUb8VHpTB
23fPQN7GRcDrJK3BzmfeQDPrIEFCFMLB4EquQMoNC0GnGlPB/feCQMz78UCkoVjBhVl6QN8sGUFw
a2/BJXGyQFbtFEHiWXnBW2DfQMU060CNtGjBtmLFQHQUyUACk1XBBQpMQOsg7UCW+n7BKFZ4QIq7
B0HHmInBBcXKQPnSqEC3kXrBKeWUQINIrUC/zHDBFu4PQSFFgT/ebYvB94n5QPVt3j+jcILB/Vnv
QHQlBD4PTojBlVNcQCdw7z/KbKbBP5dUQIYymD8YKpnBNk6yQJMkg0AcAorBFqXAQG9CoUAotpXB
oiS2QH6OMUAPV6LBKipbQNQ6XEDQ3JLBcl6rQOu6yj/0Z4zBEExmQMTXrkBc1ojBgQiCQE4Cy0Bd
MZPBQa5RQNDyfEAnHqXB

>  <OMEGA_E>  (125) 
5EyCPtjYkD6Y44A+HMsmPw==

>  <OMEGA_NBR>  (125) 
    204056

$$$$
50214046
     RDKit          3D

 62 64  0  0  1  0  0  0  0  0999 V2000
    6.1269    9.2918  -21.0509 C   0  0  0  0  0  0  0  0  0  0  0  0
    8.5287    7.7195  -18.6524 C   0  0  0  0  0  0  0  0  0  0  0  0
    8.0259    8.4269  -19.7593 C   0  0  0  0  0  0  0  0  0  0  0  0
    7.6485    7.1662  -17.7005 C   0  0  0  0  0  0  0  0  0  0  0  0
    5.7522    8.0071  -18.9819 C   0  0  0  0  0  0  0  0  0  0  0  0
    4.5946   -0.6412  -20.8278 C   0  0  0  0  0  0  0  0  0  0  0  0
    6.4371    0.8028  -21.5294 C   0  0  0  0  0  0  0  0  0  0  0  0
    6.6679   -1.6200  -21.6597 C   0  0  0  0  0  0  0  0  0  0  0  0
    6.6361    8.5688  -19.9264 C   0  0  0  0  0  0  0  0  0  0  0  0
    6.2437    7.3210  -17.8387 C   0  0  0  0  0  0  0  0  0  0  0  0
    5.1331    0.6468  -21.0100 C   0  0  0  0  0  0  0  0  0  0  0  0
    5.3585   -1.7730  -21.1598 C   0  0  0  0  0  0  0  0  0  0  0  0
    7.2077   -0.3310  -21.8421 C   0  0  0  0  0  0  0  0  0  0  0  0
    6.7194    1.4077  -17.9378 C   0  0  0  0  0  0  0  0  0  0  0  0
    5.3963    7.9804  -14.1075 C   0  0  0  0  0  0  0  0  0  0  0  0
    4.8724    8.7513  -15.3286 C   0  0  0  0  0  0  0  0  0  0  0  0
    6.4384    6.9359  -14.5327 C   0  0  0  0  0  0  0  0  0  0  0  0
    4.2284    7.7823  -16.3248 C   0  0  0  0  0  0  0  0  0  0  0  0
    5.8661    5.9734  -15.5904 C   0  0  0  0  0  0  0  0  0  0  0  0
    5.2322    6.7089  -16.8265 C   0  0  0  0  0  0  0  0  0  0  0  0
    6.9266    0.2690  -16.9433 C   0  0  0  0  0  0  0  0  0  0  0  0
    4.3396    1.8535  -20.5814 C   0  0  0  0  0  0  0  0  0  0  0  0
    5.1217    4.5335  -17.9632 C   0  0  0  0  0  0  0  0  0  0  0  0
    5.0997    2.6061  -19.4742 C   0  0  1  0  0  0  0  0  0  0  0  0
    4.2575    3.7527  -18.9326 C   0  0  2  0  0  0  0  0  0  0  0  0
    5.7230    9.8887  -21.9675 N   0  0  0  0  0  0  0  0  0  0  0  0
    5.4263    1.6822  -18.3691 N   0  0  0  0  0  0  0  0  0  0  0  0
    4.4009    5.7371  -17.5508 N   0  0  0  0  0  0  0  0  0  0  0  0
    7.6949    1.9451  -18.4519 O   0  0  0  0  0  0  0  0  0  0  0  0
    3.8570    4.6083  -20.0028 O   0  0  0  0  0  0  0  0  0  0  0  0
    4.8363   -3.0072  -20.9877 F   0  0  0  0  0  0  0  0  0  0  0  0
    8.4677   -0.1818  -22.3091 F   0  0  0  0  0  0  0  0  0  0  0  0
    9.5951    7.5995  -18.5311 H   0  0  0  0  0  0  0  0  0  0  0  0
    8.7049    8.8600  -20.4789 H   0  0  0  0  0  0  0  0  0  0  0  0
    8.0463    6.6194  -16.8583 H   0  0  0  0  0  0  0  0  0  0  0  0
    4.6863    8.0997  -19.1297 H   0  0  0  0  0  0  0  0  0  0  0  0
    3.5961   -0.7592  -20.4334 H   0  0  0  0  0  0  0  0  0  0  0  0
    6.8420    1.7917  -21.6861 H   0  0  0  0  0  0  0  0  0  0  0  0
    7.2578   -2.4914  -21.9030 H   0  0  0  0  0  0  0  0  0  0  0  0
    5.8602    8.6885  -13.4050 H   0  0  0  0  0  0  0  0  0  0  0  0
    4.5555    7.4716  -13.6135 H   0  0  0  0  0  0  0  0  0  0  0  0
    4.1236    9.4873  -15.0007 H   0  0  0  0  0  0  0  0  0  0  0  0
    5.7093    9.2722  -15.8167 H   0  0  0  0  0  0  0  0  0  0  0  0
    7.3128    7.4531  -14.9546 H   0  0  0  0  0  0  0  0  0  0  0  0
    6.7460    6.3564  -13.6498 H   0  0  0  0  0  0  0  0  0  0  0  0
    3.3845    7.2765  -15.8328 H   0  0  0  0  0  0  0  0  0  0  0  0
    3.8597    8.3546  -17.1888 H   0  0  0  0  0  0  0  0  0  0  0  0
    6.6798    5.3262  -15.9495 H   0  0  0  0  0  0  0  0  0  0  0  0
    5.0890    5.3562  -15.1159 H   0  0  0  0  0  0  0  0  0  0  0  0
    8.0032    0.0795  -16.8212 H   0  0  0  0  0  0  0  0  0  0  0  0
    6.4908    0.5467  -15.9722 H   0  0  0  0  0  0  0  0  0  0  0  0
    6.4347   -0.6401  -17.3194 H   0  0  0  0  0  0  0  0  0  0  0  0
    4.1939    2.5208  -21.4437 H   0  0  0  0  0  0  0  0  0  0  0  0
    3.3604    1.5303  -20.1983 H   0  0  0  0  0  0  0  0  0  0  0  0
    5.3403    3.9134  -17.0813 H   0  0  0  0  0  0  0  0  0  0  0  0
    6.0640    4.8174  -18.4545 H   0  0  0  0  0  0  0  0  0  0  0  0
    6.0285    3.0148  -19.8988 H   0  0  0  0  0  0  0  0  0  0  0  0
    3.3815    3.3484  -18.4042 H   0  0  0  0  0  0  0  0  0  0  0  0
    4.6697    1.2253  -17.9015 H   0  0  0  0  0  0  0  0  0  0  0  0
    3.6453    5.4634  -16.9556 H   0  0  0  0  0  0  0  0  0  0  0  0
    4.0366    6.1820  -18.3689 H   0  0  0  0  0  0  0  0  0  0  0  0
    3.3149    4.1213  -20.6123 H   0  0  0  0  0  0  0  0  0  0  0  0
  1  9  1  0
  1 26  3  0
  2  3  2  0
  2  4  1  0
  3  9  1  0
  4 10  2  0
  5  9  2  0
  5 10  1  0
  6 11  2  0
  6 12  1  0
  7 11  1  0
  7 13  2  0
  8 12  2  0
  8 13  1  0
 10 20  1  0
 11 22  1  0
 12 31  1  0
 13 32  1  0
 14 21  1  0
 14 27  1  0
 14 29  2  0
 15 16  1  0
 15 17  1  0
 16 18  1  0
 17 19  1  0
 18 20  1  0
 19 20  1  0
 20 28  1  0
 22 24  1  0
 23 25  1  0
 23 28  1  0
 24 25  1  0
 24 27  1  0
 25 30  1  0
  2 33  1  0
  3 34  1  0
  4 35  1  0
  5 36  1  0
  6 37  1  0
  7 38  1  0
  8 39  1  0
 15 40  1  0
 15 41  1  0
 16 42  1  0
 16 43  1  0
 17 44  1  0
 17 45  1  0
 18 46  1  0
 18 47  1  0
 19 48  1  0
 19 49  1  0
 21 50  1  0
 21 51  1  0
 21 52  1  0
 22 53  1  0
 22 54  1  0
 23 55  1  0
 23 56  1  0
 24 57  1  6
 25 58  1  1
 27 59  1  0
 28 60  1  0
 28 61  1  0
 30 62  1  0
M  CHG  1  28   1
M  END
>  <OMEGA_C>  (126) 
UA/EQDCrFEEzaKjBX3UIQfkF90AQOJXBR2oAQZvUBkH3Ep7B3MD0QDBR5UCQmo3BuRG4QPIcAEH9
2pfBwQaTQGYmJL9Gn6bBB/3NQAyDTT81PKzBbF/VQC1dz78DR63BK1vUQK0ZCUFXaZ/BDczHQGtF
6kCYtY7BFUKkQBqUJT+OFKjB3nirQFjx4r9aR6nBlKXmQDJ0qb6tvK7BPgXXQMAwtD+rgI/Bfq6s
QLFf/0BXuGHBDeubQC8FDEEUQnXBxgfOQB/z3UAEhmjBKU+HQEUI+UA0mYLBt7a7QFQmv0BCcnnB
+m2nQJSv1kCpnIbBeqbdQIC/iT7Zi4fBr92KQJ8/7T+0pqTB2uSjQAYSkUCgtI/BGjGjQJjJJkAU
y5vBoj2IQNIrcED1dZfBLSO3QAI4HkFiva/BcKStQDtT1z/o85LBL9SMQDqWt0D2Z4zBbDz2QNf3
+D9knZPB6Nh2QCN3k0CrBaDBy8KaQOx1QMDc5qfB0XsHQWwsOr4QebLBi4UZQYMv80C3P5TBPUcL
QaDCDUG91KPBjr0AQXTS00C83YbBcPaVQFyYAUGKCZnBbyZmQARdQr+ld6PBZfHaQB1W5T87fa3B
qD/oQO5yH8A/Oa/BuYa7QAMEC0EDe1bBZ8aRQP8W70Dc0FnBc/SDQNDLF0HpAnDByLK2QAhbFEFL
EX3BjwLqQCmA7kAARm/BDN/XQKlny0CBZVrB3JtYQPDY6EBaU33ByQR3QIKsBUGagonB8cDVQI9w
qkAtMX/BstiiQENmq0CR2nHBLg0AQcnToj3EkYbB2bTPQBL1Cz8Xjn/B9ejNQDDgI78UjorBFTSG
QJ1UIUCfjKvBnxBXQDriwz8NlqHBo+OqQEF1ekB7pojBgAzCQMEnmkDZopPBrunAQIryQECrMJ/B
gWpYQMlMVkDbO5PB+W2VQA7VnD8/No/BkkxpQHXUrkAjpYfBeCuBQODSxUB285LBmCdUQJDhg0Do
5aTBgK3AQHPwFkGibafB+AIIQcyv9kBrr5XBJx//QPRZB0FJPJ7BS4z0QGRh5EDh+I3BnBS3QL1U
AEFEpJfBT2zOQKSeSD9YLKzBU3eSQE6kIb9NwabB3QDVQPNR0r+A9qzBsYPSQGzfCUGRLJ/B3ILH
QFbb6UBKvo7BbEakQPsYJj+mPajBMeLmQA6Cub4ybq7B5bqqQCRL4796K6nB7qPWQOkttD+ck4/B
IVGtQKAmAEE88GHB2N+bQMolDEEUhnXBhavOQNTQ3kA8vmjB1SuHQL6P+ECphoLB9x+8QFxfv0CC
UHnBjXunQORQ1kAhj4bBhfXcQFQUkj4fdofBKzuLQJJO7z9K8KTB0tWjQAqTkEDmno/BzVGjQBMG
J0Cm9pvBAm6IQEdWcEBtkpfBp5ixQMLgIUFh+a3BpmqtQJhx1j/cK5PBwsuMQMIHt0ApRYzBtwT2
QLwt+T+1mJPBjIB4QBQVlEBsFaDBSNAHQTRUbr7K6rHBdoiZQDslQMA8uafBBBkZQfE/8kCBBpXB
jiEKQaWUDkFXCaTBwe0AQUoW0kDFcIfBAN+UQFm3AUG4p5jBYtrbQGIM4j8Dcq3B0WpkQB3aO7+q
w6PBM7PnQA6EIcDRvq7Bol28QEeuC0GB+VbBlrmSQIce8EDZuFnBLtaDQJTlF0FkTXDBR022QMp6
FEGkoX3Be13qQOlS70Aqzm/BwgDZQIbAzEBcjFrBL0hZQLJG6EAr1nzBA1x1QGAoBUEMdInBJxnW
QMCJqkDmBX/BMXGjQH7Pq0BJdHHBPmH/QLzk2z0gS4bB4FLOQF+bEj8/l3/BAbjNQEkwIr9ScYrB
+XKHQMF5IkDz26vBcgFXQBURyD+bBaLBYlCqQCCYeEC7nIjBNEPCQB+zmUBmaZPBizHBQFc7QUD5
RJ/BqitYQMhhVkA8fJPB9xaVQCtZmj80lI/BQ7lpQGU0rkCscIfBKcuAQHQsxUD3yZLBhC1WQJ3d
hEBWEqXBs5obQfpM+UBOzZbBgk7JQFIJDUGge5/BuCX2QHkwC0FmTZ/B5YSwQMHdAkFhiJfBYinx
QF6J6kDsFo/BOt/OQAhtQz9Wu6vBtqeRQA4oIr9D7KbBWtrTQPW11L8WLa3B+e8EQQxL/kBdIJfB
pBTEQCY07kA+Fo/B+nOkQNKnIz9e96fBiK/mQIiaxr7RN67BIEKpQMkd5L/tlanBqo7VQBDyqj81
Po/BBsavQLor+EDPBmDB0AKdQDXbCUHzEXLBjhfSQGAM2kB+AmnBsaqHQN4I90D8bYHBuuy/QPzB
vUAT83rBy7OnQHoo10BVmIbBlnTaQGy/Uj6XHYfB77OLQLRd7j+io6TBPs+jQNJDkUD0o4/B6qyj
QKN3JkCVpJvBBvOIQDxicUAwm5fBkA8uQYh+9ECIPpbBzZ6sQCSg1j/4rZLBgd+MQDsXuEACY4zB
kpT1QCCQ5z9Hd5PBZK98QAZUlEDIS6DBgNYHQURJir6Gi7HBQxGXQMQaQMA5majBh9u5QNI5FkGO
sqXB1KcEQdbqEkGnXaXBxg+OQHoGBEHS25fByWsAQbJm2EDR3YjBnf/cQA/s3j85s6zBH09iQIAI
Or/OFKTBtRDmQFn7IsA3Ia/BQTm+QMGNBkG53FPBExOWQFEe5UBQr1jBrRSFQBHjFEEuXmvBc9O2
QGsbE0F/qHnB76LsQKVC7UBVcG/BaQHeQGxzxUBAClzBl8NbQJa95EADH3vBTB90QB6zBUEQwIfB
9p7aQO8nrEBLJ4HBHlKpQArspkAdw3PBXZD8QDhiG71FJ4bBPDDNQHNEBj88v37BpyHJQNvgLr+k
9onBiROIQLIeIkDHjavB6M9XQBSaxz+KvqHBp9mpQEBRekCyk4jBaXbCQMMlmkBgWpPBlQPCQIwu
P0Dx3J7B/tRXQHIZWUDyqZPBl7KTQNbFoj9B2Y7BQS5pQJuRr0DJoYfBK1+BQI1MxkD285LBWuRa
QCgshUAOWqXBUOoaQZlp+kBcWJfBF0XHQBGmDUH7cp/BVR/0QEXZC0FGfZ/BOR2vQGhEA0HVcZfB
sWTwQBDw6kD5aI/Bx3+RQGXFIr9r+6bBCbPOQOWTQj9z06vBIdjTQCI/1b8lIK3BvDwEQTM0/0Cv
fJfBMFTDQPWf7kDNKY/BW0GkQBcpIz91E6jBmzmpQAqZ5L/QjanBPZnmQGCuyL74O67BSyrVQIgC
qz/EMI/BF6ywQGt9+EBxHWDBst+cQAnQCUFMCXLBRwHTQJan2kBqWGnB42uHQKl+9kBeTYHBzZTA
QH0MvkC8GnvBBaSnQIQh10DQmYbBc/HZQDRfUD5IFofB8ZmLQKpt7j+6vKTBxSakQIctkUCFq4/B
aKujQO0ZJkDptpvBTDaJQDZUcUAhpZfBAWQtQU+19UAi6ZbB41isQPAF1T/1yJLBbvWMQPXIt0Bu
V4zBnUj1QIxg6T/3Q5PBinZ9QNZplEDzUaDBQDGXQCRrQMA1eKjB7NIHQV67jL4/hLHBtFK3QAT3
FkFiiaXBxmcDQTXDE0HplaXBrqKMQNdoBEEBmpfBVEcAQQZj2EDCV4nBJudhQHJ2Or8+LKTBX8jc
QGN63j+r16zBPiPmQIdJI8CGA6/BG1i/QOjcBkH2JVTBdH2XQNE35UCLeVjBZ9OEQJGsFEFLKmvB
RCK2QAA+E0EP3nnBdyLtQEcb7kCxA3DBP43fQFlCxkABclzBooBcQKDI40AmnXrB2v5xQOJHBUGd
kYfBiTfbQMGfrEBpT4HBaWGqQFMSp0Dot3PBGhL8QE9+7LzW/oXBCRDMQIBNAz/Lxn7BsCDJQE6T
ML+KCYrBeheIQJ9QIkDCo6vBlYFXQH8NyD+E26HB5XOqQNPieUDOpIjBTa3CQC9XmkDXZ5PB/xzC
QHlzPkB96p7BxjtYQJlUWUA0tJPBrVOTQGRDnz9sGY/B7eRpQLP7rkBpiIfB1w+BQC7oxUAR4JLB
mZdbQCRdhUA2Y6XBUkghQW/v9EDY7I/B5t7dQOhhB0HW5Z7B6MsEQRkDBkEKR5zBAsa+QH7s/UAb
5pfBxDv3QEfx5UCC3IvB08GKQKDtOz0aWbLBkonEQEBi4r0WTKXBRXfIQG//sb9d1bXBPB4LQTOq
90BFu5LB5O/KQHvR6UDuLY7B/NicQF4e5T78fKjB/YqgQGs8Xr+VALnBH2XaQERFgb9d96vBe1na
QCsD6D/8AI3BdHmrQMKKAUH072HBS5KcQL51DUFvLXbBBZzLQNKY30B2k2fB1TeIQBR9+0CxIYPB
SFy5QLx8wEBvsXjBhtWnQOV110AiqIbBtvPnQLSkZz9VxIPBzv2DQBzdtD+oUKHBVwOmQE8ekkC1
p5DBWlqhQAkYGEC8y5rBM6WIQKwZaUCvMpfBFkozQZe58kD3i43B0V6xQNR+1D9zPpHBjemNQC0Q
uECZ5ozBo5f0QHKCJECJE5HBfJ1zQA+1i0CgVaDB6x+PQNRxn78tcMLBfE8AQd0pwb9C0qjB3SHU
QMHmDkFFSabBVK8QQS6+DEFvkaHBLUudQBQsAEFz9JnBEKUAQdwu1UBavITBljtYQC6k4T7hy7TB
8RzSQC8EIz59pp3ByUXZQKBBBcB6+LrB3dW6QJIADUE8AlfB1YWPQGKy9EANBVrBQ8yEQCWiGUHS
rHHBuUS4QEJJFUGZtX3BKADpQB9g7kBA1m3B+SXTQPlYzUB9AVnBUSxYQJqW7ECqwH7BLUd8QMu8
BkGXQ4rB+P/SQLJlqkBpiH3B1gOfQAk7rkBDa3HBg/sEQdRpiT9P8oHBGo/UQD4wkT/bT3nBBBzj
QKweFr4gDYbBwmJdQPAlAUCfYabB525hQNPrUj9DqJvBnXGyQJp9gEBts4nB4N3AQEulnEAEs5XB
dGi8QAWYK0DL3p/BEANbQNFlVUD/KZLBXnqdQLIYgz/QlY3B2ctrQLXurUBjQojBcfyBQOkXx0Cf
TZPBlChPQKnOc0DKeqTB

>  <OMEGA_E>  (126) 
aL94PvBMez7g8MA+kAfEPuQ/JD8=

>  <OMEGA_NBR>  (126) 
    209361

$$$$
50214052
     RDKit          3D

 67 70  0  0  1  0  0  0  0  0999 V2000
    8.6103    7.3940  -18.4791 C   0  0  0  0  0  0  0  0  0  0  0  0
    8.1934    8.0262  -19.6585 C   0  0  0  0  0  0  0  0  0  0  0  0
    7.6599    6.9571  -17.5413 C   0  0  0  0  0  0  0  0  0  0  0  0
    5.8693    7.7656  -18.9788 C   0  0  0  0  0  0  0  0  0  0  0  0
    6.4001    0.8127  -21.5811 C   0  0  0  0  0  0  0  0  0  0  0  0
    4.6544   -0.6652  -20.7205 C   0  0  0  0  0  0  0  0  0  0  0  0
    6.7099   -1.6048  -21.6379 C   0  0  0  0  0  0  0  0  0  0  0  0
    5.2003    9.7161  -21.1056 C   0  0  0  0  0  0  0  0  0  0  0  0
    6.9273   10.5045  -22.6939 C   0  0  0  0  0  0  0  0  0  0  0  0
    6.8179    8.2176  -19.9092 C   0  0  0  0  0  0  0  0  0  0  0  0
    6.2749    7.1675  -17.7686 C   0  0  0  0  0  0  0  0  0  0  0  0
    5.1326    0.6334  -20.9853 C   0  0  0  0  0  0  0  0  0  0  0  0
    7.1917   -0.3059  -21.8976 C   0  0  0  0  0  0  0  0  0  0  0  0
    5.4387   -1.7830  -21.0552 C   0  0  0  0  0  0  0  0  0  0  0  0
    6.4021    9.0473  -21.0389 C   0  0  0  0  0  0  0  0  0  0  0  0
    6.8041    1.4618  -18.0507 C   0  0  0  0  0  0  0  0  0  0  0  0
    5.3953    8.2027  -14.1983 C   0  0  0  0  0  0  0  0  0  0  0  0
    4.9508    8.8933  -15.4970 C   0  0  0  0  0  0  0  0  0  0  0  0
    6.3450    7.0317  -14.4927 C   0  0  0  0  0  0  0  0  0  0  0  0
    4.2445    7.8827  -16.4088 C   0  0  0  0  0  0  0  0  0  0  0  0
    5.7151    6.0255  -15.4825 C   0  0  0  0  0  0  0  0  0  0  0  0
    5.1802    6.7011  -16.7874 C   0  0  0  0  0  0  0  0  0  0  0  0
    7.0724    0.4653  -16.9268 C   0  0  0  0  0  0  0  0  0  0  0  0
    4.3194    1.8315  -20.5621 C   0  0  0  0  0  0  0  0  0  0  0  0
    5.0621    4.5382  -17.9477 C   0  0  0  0  0  0  0  0  0  0  0  0
    5.0891    2.6347  -19.4973 C   0  0  1  0  0  0  0  0  0  0  0  0
    4.2226    3.7634  -18.9477 C   0  0  2  0  0  0  0  0  0  0  0  0
    7.3025    9.4459  -22.0242 N   0  0  0  0  0  0  0  0  0  0  0  0
    5.4854    1.7471  -18.3859 N   0  0  0  0  0  0  0  0  0  0  0  0
    4.3337    5.7307  -17.5036 N   0  0  0  0  0  0  0  0  0  0  0  0
    7.7431    2.0532  -18.5733 O   0  0  0  0  0  0  0  0  0  0  0  0
    3.8242    4.6244  -20.0145 O   0  0  0  0  0  0  0  0  0  0  0  0
    8.4134   -0.1328  -22.4501 F   0  0  0  0  0  0  0  0  0  0  0  0
    4.9734   -3.0274  -20.8076 F   0  0  0  0  0  0  0  0  0  0  0  0
    5.3163   10.9957  -22.2551 S   0  0  0  0  0  0  0  0  0  0  0  0
    9.6630    7.2427  -18.2911 H   0  0  0  0  0  0  0  0  0  0  0  0
    8.9252    8.3670  -20.3759 H   0  0  0  0  0  0  0  0  0  0  0  0
    7.9856    6.4574  -16.6409 H   0  0  0  0  0  0  0  0  0  0  0  0
    4.8166    7.8773  -19.1926 H   0  0  0  0  0  0  0  0  0  0  0  0
    6.7614    1.8080  -21.7936 H   0  0  0  0  0  0  0  0  0  0  0  0
    3.6866   -0.8018  -20.2610 H   0  0  0  0  0  0  0  0  0  0  0  0
    7.3152   -2.4642  -21.8856 H   0  0  0  0  0  0  0  0  0  0  0  0
    4.3206    9.4761  -20.5269 H   0  0  0  0  0  0  0  0  0  0  0  0
    7.5394   11.0099  -23.4263 H   0  0  0  0  0  0  0  0  0  0  0  0
    5.9137    8.9345  -13.5613 H   0  0  0  0  0  0  0  0  0  0  0  0
    4.5077    7.8219  -13.6718 H   0  0  0  0  0  0  0  0  0  0  0  0
    4.2584    9.7133  -15.2558 H   0  0  0  0  0  0  0  0  0  0  0  0
    5.8325    9.2984  -16.0152 H   0  0  0  0  0  0  0  0  0  0  0  0
    7.2749    7.4266  -14.9279 H   0  0  0  0  0  0  0  0  0  0  0  0
    6.5731    6.5112  -13.5508 H   0  0  0  0  0  0  0  0  0  0  0  0
    3.3623    7.4857  -15.8854 H   0  0  0  0  0  0  0  0  0  0  0  0
    3.9256    8.3943  -17.3289 H   0  0  0  0  0  0  0  0  0  0  0  0
    6.4781    5.2833  -15.7600 H   0  0  0  0  0  0  0  0  0  0  0  0
    4.8767    5.5196  -14.9813 H   0  0  0  0  0  0  0  0  0  0  0  0
    8.1535    0.4157  -16.7304 H   0  0  0  0  0  0  0  0  0  0  0  0
    6.5488    0.7907  -16.0157 H   0  0  0  0  0  0  0  0  0  0  0  0
    6.7078   -0.5291  -17.2238 H   0  0  0  0  0  0  0  0  0  0  0  0
    4.1302    2.4717  -21.4364 H   0  0  0  0  0  0  0  0  0  0  0  0
    3.3611    1.4924  -20.1418 H   0  0  0  0  0  0  0  0  0  0  0  0
    5.2784    3.8984  -17.0795 H   0  0  0  0  0  0  0  0  0  0  0  0
    6.0063    4.8432  -18.4227 H   0  0  0  0  0  0  0  0  0  0  0  0
    5.9873    3.0678  -19.9617 H   0  0  0  0  0  0  0  0  0  0  0  0
    3.3449    3.3374  -18.4397 H   0  0  0  0  0  0  0  0  0  0  0  0
    4.7608    1.3253  -17.8409 H   0  0  0  0  0  0  0  0  0  0  0  0
    3.5960    5.4424  -16.8931 H   0  0  0  0  0  0  0  0  0  0  0  0
    3.9445    6.1818  -18.3068 H   0  0  0  0  0  0  0  0  0  0  0  0
    3.2994    4.1356  -20.6375 H   0  0  0  0  0  0  0  0  0  0  0  0
  1  2  2  0
  1  3  1  0
  2 10  1  0
  3 11  2  0
  4 10  2  0
  4 11  1  0
  5 12  2  0
  5 13  1  0
  6 12  1  0
  6 14  2  0
  7 13  2  0
  7 14  1  0
  8 15  2  0
  8 35  1  0
  9 28  2  0
  9 35  1  0
 10 15  1  0
 11 22  1  0
 12 24  1  0
 13 33  1  0
 14 34  1  0
 15 28  1  0
 16 23  1  0
 16 29  1  0
 16 31  2  0
 17 18  1  0
 17 19  1  0
 18 20  1  0
 19 21  1  0
 20 22  1  0
 21 22  1  0
 22 30  1  0
 24 26  1  0
 25 27  1  0
 25 30  1  0
 26 27  1  0
 26 29  1  0
 27 32  1  0
  1 36  1  0
  2 37  1  0
  3 38  1  0
  4 39  1  0
  5 40  1  0
  6 41  1  0
  7 42  1  0
  8 43  1  0
  9 44  1  0
 17 45  1  0
 17 46  1  0
 18 47  1  0
 18 48  1  0
 19 49  1  0
 19 50  1  0
 20 51  1  0
 20 52  1  0
 21 53  1  0
 21 54  1  0
 23 55  1  0
 23 56  1  0
 23 57  1  0
 24 58  1  0
 24 59  1  0
 25 60  1  0
 25 61  1  0
 26 62  1  6
 27 63  1  1
 29 64  1  0
 30 65  1  0
 30 66  1  0
 32 67  1  0
M  CHG  1  30   1
M  END
>  <OMEGA_C>  (127) 
t8MJQb6b7EBA1ZPBGRgDQTtrAEGYRJ3Bvh31QEeg3kCeVIzBGtG7QJh/+ECv1JfBRs3MQPMNUD8K
pqzBefCUQCBKKr+Ww6XB2bfWQPNozb+DGq3BLGmmQDZ1G0Eu2KjBWqzdQHUSKEEdjbXBayzaQBt7
A0H5RZ/BYszIQCFc5UAiJo7B+z2kQMskIj/d4afBCyLmQMignL5ELq/BmAmuQEo55L8icajBG97M
QLXBEEGzT6jB47rZQNgauz/YZ5DBEqasQCM+A0FtLGPB9WyeQCZLDkHB83fBNArLQJwD4UAa4mfB
UdOHQFk//EA+RYPBceK2QJbQwEA7uHfBmMSlQItv1kCfTIbBxVDiQFo+7j4ZaofBaziKQJ9t6j9H
f6TB//yhQEA5kUDulI/B99miQEWfKEBl+pvB4x+HQDPbcED3lJfB6a3pQGoiF0GjMbDBXYivQGmg
3z9fFpPBS62KQAxit0BqB4zBKMf3QG1nA0ANlpTB4750QHL7k0CpHaDBep0GQc73B77OmbPBPyaf
QE7BQcD7dabBih+qQD/uL0FtCrLBh5saQevD50A+VJLBxs0OQWjfBUG+AaPBrYn/QEijzkCeIIXB
MCGaQJAS/EB9ipnBWF3YQP1t5z83Wa7BwfBrQD9ATb+HFqLBchbqQPm1HcC1Fa/BhEKKQByeF0ED
N6TBW0LxQGkoMEEMabvBoTy9QILzDkE8+1jB/D6QQChN+kDNv1rB00SIQNJpG0GXF3TB9qO6QGbG
FEEOH4DBocvoQGCm7UDb2G7B51bSQBBc0EBC0FjBZi9XQJeK70C5Kn7BxD17QBNPBkGfoYrBlkzP
QIUQqUAiKXzBTQ6cQKGgsEBPs2/B6HQCQaPc1D7M14XBDZDRQPxrSj88IIDBZ6bWQJFzB79lyonB
+iqEQL0vHkDRfavBJBxXQIIGvz9nIqHBpOioQPJ+eUDSoojBYzPAQNr7mkCeYZPB1Je/QBNXRECU
sZ/BfxJWQPaXVUCQhJPBcliYQDGiqT83uo7B5CRmQDIorkANJYfBY3J8QCDRxUBRdJLBvyhTQJlW
hECEGaXBIa4IQQW1+kAy8pLBdlEBQaE6CEEfA5zB2Q70QIFB50DJ84vBzwO5QGgY/0AzLJfBQj7K
QP2nLz/fq6zB0xCTQNBXNL92bKTBr5nSQNZr3r9ILazBUevbQCP5H0Glcq7BMMCvQLwMB0E8MrnB
8IXWQO7mCEErPJ7B1lHHQCKm6kBNwY3BlaOiQDAbET9TVKfBaEjiQIBh7r4kC6/BuemqQGiK7b9q
5qbBhOPIQF29D0EYx6jBy0/aQMyPuj8AOJDBBiarQFEtAUH9omHBlmmaQErLDEF0oXXBxHTLQOg4
30BPhWfBTYCFQIZp+UCZdYLBQgC5QGXIv0A8R3jBZ8mlQK3H1kDwK4bB50/iQNZ86z5+MYfBzP+J
QLu65j9pMqTBCQGlQJhNk0CrT5DBoN6jQH7fJ0APBJzB3imJQH6AckCp15fB5zauQAHXAkGd8a7B
IEawQDvV4j9D3JLBtDyMQBqzt0ATUIzB83T4QHO06z/nspXBiQt3QPqdk0DXhaDB/zQEQdYZs77E
ELTB3rubQKy8RMAfKaTBNqLPQMRVHUGX07vBJKEZQbzg+EC9U5HB1ocMQYYUEEEkSaHBq6z/QBWG
1UDmIIXB/zeXQLAsAEGl85jBQhTWQAOO1D9y767B5KxpQAJlS79BTKDBnv/kQFDTJ8AnBq7Bfo3v
QBV3LEHODKvB6VafQLDA+0DCQr/BgN66QD7gDEGEGFfBfvuPQIW080CbLFnB3Z+CQK7XGEFJ0nDB
bj61QPS6FEG1zX3BH2HoQItN7kDhIm7BctnTQCJAzUAn+1jBxltVQPu06UBoqHzBA9tyQPtRBUHI
g4nBCNPSQIJfqkDRnH3BDpWfQDzPrECmpXDBFEkCQTtRVz7y4YbBgXjYQDqzZz8VEH/BQKbPQFS3
6L4PqYjBUROEQPeWGkBPWqvB4oVWQBLqwD9inqDBejOvQHZbfkBojonBLFvBQE//nkBOoZTBwbbA
QMQbQUCc85/Bod9aQBBgWUBrbJPB4/GYQEcJsz9tRY7B/vlpQI6JrECgk4fBs4N+QG/YxkCEkZLB
NzRUQABYg0AoPaXBaBcKQYBE7UAB3ZPBoHsDQRSyAUGLEZ3BMLb1QOoT3kBWfYzBbJ+8QDJD+UAw
x5fB8UzNQJw3UT+0hazB/A2UQDZiJL8wHKbB5qrWQBggzb8XxazB5I3lQONXHEEROq/B5XSZQNl+
J0Fxra/BuOzaQG7DBEEKB5/BGGDJQA4o5UAFO47BEQekQMyiJj/1HajBBLnmQCtGnr65wK7B1UKt
QCk94r/CfqjBc9vLQM5QEkFE1qfBOhvZQPMcwT8eGJDBi26rQMAvBEEYHWTBWeebQBFqDkE0E3nB
0v3KQLyg40Cqe2jBT7iGQAvh+kAYmYPBzGq3QBHVwUALrXfBvB2mQA3w1UDEaobBeZXhQE971j5y
04fBGz+KQGWW7T8jy6TBL7eiQEWCkECAko/B1dGiQPGzKEBvIZzB+FuHQBFscEAFk5fB+OSgQN1g
GEElr6jBSymvQLwj3T9JWZPBuVuLQF9atkCL/4vBql33QOYUBEB7fpTB/2h0QDEylEDe/Z/B8lQH
QeQiGL6itLLBBdmdQCVoQMDVjKbBH+DHQCCdLkEperbBwusaQefj50Dfb5LBXjUPQSLUB0H9n6LB
GxEAQWjqzEAVdYXBEPOaQLlC/ECKkpnBqVPZQFh65z8lLa7BSfhoQD/KRL9avqLByRrqQJz1HcDk
hq7BeaIDQRdCGUGIVbDBufF0QIijLkFuDbHBc3u7QHlzEEG9XlrBRq2PQKW7+0BQU1vBkpKEQI8T
G0H9a3XBm1y3QA1fFUFLzoDBBxroQDfO8ECB3W/BPUjTQBEo1EA3OlnBZxdWQLJ47UCkoX7BFqZ3
QFEIBUEXDovBEzXQQHssqkAgs3vBVdScQIvKsUAeY2/BDSYCQb8yjT5S7IbBkLvTQPWVNz9/GIDB
ctPSQF+9Bb9nforBRfWEQIVbIECgxavBAWpWQI6hwz+fk6HBGr6pQOKud0A3q4jB793AQO9RmkDV
ZJPBAbi/QHKaREBHv5/BduZWQCveVEDKdpPBwN+XQGaYnj+Sf4/BOEhoQD/xrEBRBYfBhL58QPh0
xEBKZ5LBZT5SQMzPhEDi9qTB62fIQLRYCkGD6p/Bijz1QJlECkHF2J7BELKuQMV1AEGZDZjBGlHu
QGZR6UCFro7BW1vLQOasLD9cpKzB0S6QQL4HJb9obaXBXszOQCdu4b9U4qzB5VgkQYGE9kAiKIrB
7m45QQXdFkFgh5PBXBoEQW6A/0CuBZbBnJrBQFuh60DkLo/BGa+iQGkSGz+Qx6fBsGvhQA9yAr+F
K6/BZSmmQDjg6b/PBKjB/bsaQYBBA0G6RJPBEqfXQEEHtD8AeY/BWbKxQOIC/EBlpWDBRBGeQPHq
CkFYI3PBblbSQFvJ20AtRWnBJs6GQF/j90DhbYHBze69QGk+vkAmMHrBSJKlQAh11kCzaYbBxAbd
QErYnT5RFofB1qaLQBY57z9ir6TBBlOkQO/OkUAh14/BNfqkQL7hJ0B0BZzBDmOKQMVSc0BXB5jB
qq8nQQ8IEkFpl5jB1JGuQETH2z/A+pLBckmLQKlptkDA7IvBLHn3QFbx8j/AqJPByJmAQMG6lUCj
saDB7DcEQdy0476uzrPBfkaUQP+jQcDuyqXBDUA8QZUVCEG80YfBs6+5QOr1EUFYvqbB94EEQecu
EkE6uaTBrkaMQHn9AEH0yJjBzTP9QJUe1kBUiYjBt4TZQPQw0T9Pa67BVVNiQNDKMb+ko6HBpa7f
QGbpKsDF3K7BccgdQXhx3UDhMoXBIOFEQTWSIkFxSpbBy8HBQM0BCUHhf1XBZCSYQFS56kBaLFjB
oxOHQOiLFkGgoGzBpaq3QP53E0HJq3vBcSDtQEFJ7UCrmnDB2lPeQPcsyEDY8FvBEHFaQKzx5kB2
PHrBb3dxQJ2cBUH34ofB5HrXQH/JqkCwsoDBo+imQCUtqUAXDHLBokb/QEKszT2364XBMOHOQHqV
Iz+j837BeMjMQEMMG7/10onBsj+IQGTFIEAFxqvBaoZXQD2bzj/4kKHBEResQJL4eED8HInBzhrC
QPhgnUC2iJPBJPfCQBP1P0DTgp/B7sRZQIguW0C5S5TB1OSVQOJipj+eIY/BgTRqQF+hq0AJ1IbB
g+N5QBhlxEDrKZLBO35gQOLOhkAD56XB

>  <OMEGA_E>  (127) 
lPeiPsBLrT5wQ6E+tBsAPw==

>  <OMEGA_NBR>  (127) 
    213935

$$$$
50214048
     RDKit          3D

 71 73  0  0  1  0  0  0  0  0999 V2000
    5.8962    7.9907  -22.2073 C   0  0  0  0  0  0  0  0  0  0  0  0
    8.5714    7.5568  -18.5606 C   0  0  0  0  0  0  0  0  0  0  0  0
    7.6501    7.0506  -17.6288 C   0  0  0  0  0  0  0  0  0  0  0  0
    8.1233    8.2201  -19.7151 C   0  0  0  0  0  0  0  0  0  0  0  0
    5.8218    7.8289  -19.0322 C   0  0  0  0  0  0  0  0  0  0  0  0
    6.3727    0.7419  -21.5521 C   0  0  0  0  0  0  0  0  0  0  0  0
    4.6003   -0.7112  -20.7044 C   0  0  0  0  0  0  0  0  0  0  0  0
    6.6692   -1.6777  -21.5618 C   0  0  0  0  0  0  0  0  0  0  0  0
    6.2581    7.2098  -17.8386 C   0  0  0  0  0  0  0  0  0  0  0  0
    6.7368    8.3824  -19.9572 C   0  0  0  0  0  0  0  0  0  0  0  0
    5.0929    0.5800  -20.9780 C   0  0  0  0  0  0  0  0  0  0  0  0
    7.1643   -0.3862  -21.8321 C   0  0  0  0  0  0  0  0  0  0  0  0
    5.3849   -1.8388  -21.0034 C   0  0  0  0  0  0  0  0  0  0  0  0
    6.7807    1.4481  -17.9881 C   0  0  0  0  0  0  0  0  0  0  0  0
    5.3701    8.2085  -14.2618 C   0  0  0  0  0  0  0  0  0  0  0  0
    4.8796    8.8682  -15.5595 C   0  0  0  0  0  0  0  0  0  0  0  0
    6.3653    7.0751  -14.5582 C   0  0  0  0  0  0  0  0  0  0  0  0
    4.2093    7.8197  -16.4524 C   0  0  0  0  0  0  0  0  0  0  0  0
    5.7718    6.0375  -15.5383 C   0  0  0  0  0  0  0  0  0  0  0  0
    5.1948    6.6850  -16.8419 C   0  0  0  0  0  0  0  0  0  0  0  0
    7.0564    0.3629  -16.9518 C   0  0  0  0  0  0  0  0  0  0  0  0
    4.9363    9.8877  -20.9732 C   0  0  0  0  0  0  0  0  0  0  0  0
    7.2605   10.0042  -21.8849 C   0  0  0  0  0  0  0  0  0  0  0  0
    4.2955    1.7894  -20.5584 C   0  0  0  0  0  0  0  0  0  0  0  0
    5.0875    4.4819  -17.9327 C   0  0  0  0  0  0  0  0  0  0  0  0
    5.0787    2.5722  -19.4868 C   0  0  1  0  0  0  0  0  0  0  0  0
    4.2357    3.7114  -18.9286 C   0  0  2  0  0  0  0  0  0  0  0  0
    6.2163    9.0483  -21.2470 C   0  0  0  0  0  0  0  0  0  0  0  0
    5.6413    7.1453  -22.9683 N   0  0  0  0  0  0  0  0  0  0  0  0
    5.4664    1.6693  -18.3846 N   0  0  0  0  0  0  0  0  0  0  0  0
    4.3637    5.6889  -17.5338 N   0  0  0  0  0  0  0  0  0  0  0  0
    7.7215    2.0039  -18.5454 O   0  0  0  0  0  0  0  0  0  0  0  0
    3.8456    4.5793  -19.9939 O   0  0  0  0  0  0  0  0  0  0  0  0
    8.4039   -0.2283  -22.3480 F   0  0  0  0  0  0  0  0  0  0  0  0
    4.9107   -3.0758  -20.7366 F   0  0  0  0  0  0  0  0  0  0  0  0
    9.6306    7.4353  -18.3885 H   0  0  0  0  0  0  0  0  0  0  0  0
    8.0051    6.5373  -16.7474 H   0  0  0  0  0  0  0  0  0  0  0  0
    8.8406    8.6088  -20.4229 H   0  0  0  0  0  0  0  0  0  0  0  0
    4.7638    7.8803  -19.2427 H   0  0  0  0  0  0  0  0  0  0  0  0
    6.7434    1.7312  -21.7761 H   0  0  0  0  0  0  0  0  0  0  0  0
    3.6212   -0.8346  -20.2656 H   0  0  0  0  0  0  0  0  0  0  0  0
    7.2742   -2.5447  -21.7826 H   0  0  0  0  0  0  0  0  0  0  0  0
    5.8652    8.9672  -13.6381 H   0  0  0  0  0  0  0  0  0  0  0  0
    4.5063    7.7954  -13.7202 H   0  0  0  0  0  0  0  0  0  0  0  0
    4.1541    9.6584  -15.3161 H   0  0  0  0  0  0  0  0  0  0  0  0
    5.7358    9.3079  -16.0920 H   0  0  0  0  0  0  0  0  0  0  0  0
    7.2748    7.5059  -15.0023 H   0  0  0  0  0  0  0  0  0  0  0  0
    6.6216    6.5696  -13.6155 H   0  0  0  0  0  0  0  0  0  0  0  0
    3.3574    7.3822  -15.9112 H   0  0  0  0  0  0  0  0  0  0  0  0
    3.8489    8.3095  -17.3691 H   0  0  0  0  0  0  0  0  0  0  0  0
    6.5644    5.3289  -15.8204 H   0  0  0  0  0  0  0  0  0  0  0  0
    4.9614    5.4968  -15.0275 H   0  0  0  0  0  0  0  0  0  0  0  0
    8.1424    0.2243  -16.8454 H   0  0  0  0  0  0  0  0  0  0  0  0
    6.6286    0.6632  -15.9839 H   0  0  0  0  0  0  0  0  0  0  0  0
    6.5967   -0.5814  -17.2788 H   0  0  0  0  0  0  0  0  0  0  0  0
    5.1676   10.6854  -20.2521 H   0  0  0  0  0  0  0  0  0  0  0  0
    4.5832   10.3351  -21.9140 H   0  0  0  0  0  0  0  0  0  0  0  0
    4.1521    9.2362  -20.5601 H   0  0  0  0  0  0  0  0  0  0  0  0
    7.5095   10.8042  -21.1721 H   0  0  0  0  0  0  0  0  0  0  0  0
    8.1707    9.4390  -22.1341 H   0  0  0  0  0  0  0  0  0  0  0  0
    6.8413   10.4465  -22.8006 H   0  0  0  0  0  0  0  0  0  0  0  0
    4.1221    2.4357  -21.4315 H   0  0  0  0  0  0  0  0  0  0  0  0
    3.3292    1.4662  -20.1439 H   0  0  0  0  0  0  0  0  0  0  0  0
    5.2805    3.8566  -17.0485 H   0  0  0  0  0  0  0  0  0  0  0  0
    6.0433    4.7607  -18.4003 H   0  0  0  0  0  0  0  0  0  0  0  0
    5.9828    2.9935  -19.9505 H   0  0  0  0  0  0  0  0  0  0  0  0
    3.3538    3.2989  -18.4167 H   0  0  0  0  0  0  0  0  0  0  0  0
    4.7402    1.1880  -17.8938 H   0  0  0  0  0  0  0  0  0  0  0  0
    3.6194    5.4212  -16.9220 H   0  0  0  0  0  0  0  0  0  0  0  0
    3.9834    6.1132  -18.3556 H   0  0  0  0  0  0  0  0  0  0  0  0
    3.3133    4.0979  -20.6163 H   0  0  0  0  0  0  0  0  0  0  0  0
  1 28  1  0
  1 29  3  0
  2  3  2  0
  2  4  1  0
  3  9  1  0
  4 10  2  0
  5  9  2  0
  5 10  1  0
  6 11  2  0
  6 12  1  0
  7 11  1  0
  7 13  2  0
  8 12  2  0
  8 13  1  0
  9 20  1  0
 10 28  1  0
 11 24  1  0
 12 34  1  0
 13 35  1  0
 14 21  1  0
 14 30  1  0
 14 32  2  0
 15 16  1  0
 15 17  1  0
 16 18  1  0
 17 19  1  0
 18 20  1  0
 19 20  1  0
 20 31  1  0
 22 28  1  0
 23 28  1  0
 24 26  1  0
 25 27  1  0
 25 31  1  0
 26 27  1  0
 26 30  1  0
 27 33  1  0
  2 36  1  0
  3 37  1  0
  4 38  1  0
  5 39  1  0
  6 40  1  0
  7 41  1  0
  8 42  1  0
 15 43  1  0
 15 44  1  0
 16 45  1  0
 16 46  1  0
 17 47  1  0
 17 48  1  0
 18 49  1  0
 18 50  1  0
 19 51  1  0
 19 52  1  0
 21 53  1  0
 21 54  1  0
 21 55  1  0
 22 56  1  0
 22 57  1  0
 22 58  1  0
 23 59  1  0
 23 60  1  0
 23 61  1  0
 24 62  1  0
 24 63  1  0
 25 64  1  0
 25 65  1  0
 26 66  1  6
 27 67  1  1
 30 68  1  0
 31 69  1  0
 31 70  1  0
 33 71  1  0
M  CHG  1  31   1
M  END
>  <OMEGA_C>  (128) 
E668QCi0/0CAqLHBTSQJQSvR8UAufJTB8830QOGe4UDFB43BOvkBQWmFA0GduJ3BRky6QA2G+kDk
QZjBeO3LQILqPT/GaqzBSDWTQEcONr+moqXBUWrVQHPA1r+TfqzBrELIQIu25kBitY7BMpTXQE4e
BkFVqJ/B5viiQBd6FD/40qfB70HlQAS7xb4XqK7B41CsQH5d678MB6jBOPvYQItcuT+O54/Bdder
QNdVA0FFMGTB1CWcQAvkDUHi83jBULDLQDJn4kB+7mjBsrKGQOE6+kCbnoPBrbK4QFQzwUC2nHjB
tDumQLbr1UBKvIbB783hQK/RuT5SnYfB4fWdQOgzHkEoyafBKVboQEIRIEEzFK/BmXSJQL4L5T+m
d6TB1MyiQA9sj0ASdo/BxYSiQE6eJEDl5JvBPYuHQAOIbUC7bZfBnevGQK7FEEHp+anB7YW0QOWl
5ED7vrfBFO2uQMGr1T+YE5PBWaOLQHMLtkBERYzBfBb3QIc/AEAAXZTBih52QJaJkkB085/BiHYG
QY/Oab66yLLBhySdQFPZRMCB5KXB8xYaQart7UCUG5PBvRQAQSkx0UCs+oXB9XINQbm9CUEIYqPB
1nCYQGor/EAC8ZnB9snXQAaZ3T9nNa7BjMFnQPmnVb/gH6LBg8boQG3cIsDMQq7BBLC7QNR5D0F9
NVrBhTOQQAt0+UDzhVvBe+6EQKCIGkHUDnXB8Yu3QDTtFEFyvIDB4croQJEw8EByCXDB8+PTQEE6
0kD12FnBCeBWQBY77EBylH7BiFR2QLbzBEHY84rB8A/SQGGGqkBVIH3B3MOeQBPmr0B+cHDBVEcC
QQOxZT5Mw4bBWB3UQAvGKT8fvn/BzBfTQNjVFL/3OorBFV2lQHj3KkE1BKLBcamSQMBcJUHqT6/B
Kd6EQGvHE0EOe6TBsE3wQCfeLEGJYKnBObsCQUIGF0GhErHB2OvaQP4kJ0GpZ7bBh+iDQHviG0C6
c6vB5BFVQDSsuz+lJqHBN/qoQK3SdkBdY4jBr2LBQO5XmEDnM5PBUnO/QHyVP0Ccmp/BxKRWQLIh
U0BiVZPBhq+XQN4PmD92Jo/B4aNnQD96rUBDYIfBD/B+QGGfw0BM2JLBlQ1UQAYig0A37qTBhqfv
QMuYIkF4VazBcdsKQRdD8EAuRpPBZrf2QE+p4EAlIYzB1akEQYp8A0EodZzBbJG+QCQt/UCikZfB
xmTNQIhsVD9viazB7PaSQMBpHb+dmKbBJIjVQO7wy78kHa3Bb5PKQKOp50CbFo7BbG3dQC1aB0HB
lJ7BOMKjQLp4LD+UUqjBLmHmQJCDm74F1q7BYL2rQGaa378BDKnBt4/YQOkHuT/tUJDBSgGqQEhq
AkHL9WLBTn+bQP+6DUH0jHfB7TDKQIkA4UD96WfBYkiHQPMd+0D4doPBPKu3QCbJwEDAMnjBwfqm
QKzR1kB6iobBdHHgQMVv3j5VY4fBoDvHQLO5AkElt7HBXlqlQKVVIEHl2KbB7FmKQHvj8D8n7KTB
fFGjQDwrkUDGqY/BGueiQI3UKEBZHZzB6smHQCM6cUCulZfBBQLPQCxJE0EowqjBHckEQW28LkHb
MK/BeaKuQFFh2z+iXpPBs5aMQEoBuEBlfYzBStL2QAqEBEDGEJTBXH91QDtslEDRDKDB51EHQSVW
Hb7qm7LBeoObQEPQPsC4XKfBIJ8bQQPC6kDRsZHBV0oAQW40z0CfF4XBArAQQbxPCUHY76HBfwed
QEYmAEGFgJnBKQbaQDjE6D/d/a3BYi5mQMGtO7+vZKPByKboQLW5HcA66a7BqTK5QOAuDkGgTVjB
wOWNQOfv9kDc9VrBO9ODQFAeGkFkhnPB8Va3QIk2FUF2S3/BT3rnQIxB70B6lm7Bu/XRQAH9z0AQ
AVnBoSZWQFHS7ED8Mn/ByLJ6QPP4BUG+yIrBzuXQQIzVqUD3jHzBS+mcQKWhr0CaonDBNGIBQfGT
0T6JcoXBvivOQMlfOj8cPoDBIRDWQAcqEL9UCYrBDs2uQMFc7kDUGq/B8R28QKP7CkEM+bjBjT/l
QFht9EABdLPBzcOLQP2GFUFVJKTBEDSrQGWULEGmsqDBUZ2bQBYjKEGgWa7BNpGFQErnIkDW1qvB
9iRWQG66xz/xz6HB42epQC9sekBtk4jBZ+/BQA7EmUCab5PBISPAQMcnREBFoZ/BmKpXQKtVVkAI
bZPBKQiXQEeLoD+WaY/B3bZnQJGVr0DL3ofBILyBQJ1jxkDSGZPBQhlTQDv9hEDz/KTBy0GcQHhj
IEEK56XBd+EHQUId9EBmPpTBaCHzQFzY4kAmu4zBuTIAQSl8BUFBH53Br1u3QHob/kDRJ5fB19LL
QHiuWT+w2azBge6TQB/NI7/1J6bBwuDVQAhXyL9ahq3BZ2TGQISR6EDZ9I3BZdvTQB1eCEG0np7B
JjyjQE6OKT+CH6jBCj7lQO9thr47d6/BHSWtQK5O4L9t6ajBnhraQN4XuT/RqpDBMx2sQBD1AUEB
+2HB1/qZQAbvDEERCXbB/r3MQAAZ4UAM9mfBmvyEQFKp+EAmWILBQFG5QDZJwECNs3fBn1alQLLc
1UBg/IXBVUHjQNhJ2z423ofB5cXiQFmrIkHIC67Brpu0QCcFAkH5xLDB1XWJQKhf7T8JgqTBDfSi
QNqskEBSV4/BuL6iQNCgKEAy95vBTKCHQFWncEDMV5fBRPLBQIR3E0HWq6jBwWR8QLt+KkGZq6PB
psOvQPDs3D95PpPBSRqLQJoqtkCEsIvBYNb3QBwYBECbvZTBJ1R1QBSAlEDovJ/Bbz4GQaiDor0s
xrPBy2SeQPMGQMAnA6fBx+QYQdTJ70B5L5PBM0r/QBwU0UDo+IXB+1ULQQ8cDEFn1qLBzk+VQIg0
AEH2hZjB0FbXQFyf7D/ddK7BxsVpQCqJSL+hiaLB5FHpQNHqGsCQkq/BOPS7QJwHDkGL6lfBGKyR
QNst9UB//1jB6veBQAneGEG4N3HBXRu0QPDsFEGPtX7BXLLoQGVH8EAKf2/BjtjWQO9S0ED5VVnB
8j1VQFok6UAV/HvBmn1wQI+ABEEtdYnBMbbSQK83qkCJ4HzBZyWgQAU1rkAPW2/BJfECQUd3yD4T
UYbBTmLSQM5UOT8HhIDBChbYQHKOEL/gbIrBs5j/QNmUGUGdQLDBjn/UQFy6KUE6RrXB0n/rQEl8
L0FQbKjBD6jQQAyI8EAJ47LBrO+bQE1670AFK63BBbmnQGSiCUEWBbjB9xmDQPajIEC+ZKvBPuJV
QBd7wT9AFqHB31+qQKnYd0C8eojBMOfAQAXxmkDfL5PBrWG/QHlbREDyup/BdT9XQFZlVUDKPZPB
IsWYQEyWpD+4747BmsdnQN1HrEDHxIbBvy58QNpjxEA0E5LBFilTQFNDhUAYvaTBJ87HQG9lLUHe
hqLBOIAJQRaS8EDN9pPB+uj0QEKF30CjyYzBdMECQaq1BEGBspzBOG67QE2y/kDMV5fBbSrMQM+R
ST/NdqzBZuaSQMyDLL/PFqbB8C/VQNX+0L+P9azBEJrIQKhd50BvPI7BSF3ZQDNLCEFujp7BYgmj
QOSGHj+a+qfBIVzlQC5Zrb6F2q7BpNurQNg15r+coqjBtTTaQDhwuT/+eJDBJNKrQJQ7AkGQCGPB
KS6bQFpDDUHmYHfB3NXLQLzB4EC2hGjB4BuGQFqK+UCuD4PBgT+4QOMrwEBtTHjBRAqmQLvl1UDo
d4bBUHzjQGs35z6/hofB6jvpQEGlGEFl+rDBDUWdQK4jEkG3savBqHaJQDMH6T8Sg6TB+ymjQA+Y
kEA3tY/B1aGiQBGcJkBU+JvBBlSHQC5vbkCnXpfBrzrKQH0BGEFTS6fBd4rFQMhkPkGjuZ7BDtSv
QE1x2T8QOZPBwLSLQHumtkCdRYzBoMD3QEViBUB+dZTBSOtxQIF2kkAfz5/BPpYGQYXyNL4J4rLB
a0CcQDBnQsB7zabBMlgaQWaK6kCNwpLBnpj/QDROzEAgH4bBlXoOQdmUC0HVCKLBeqiZQL18AUE0
1ZjBpT/YQELF4z9nDq7ByshmQIMbTb8xsKLBhnjoQJHjH8BR0q7BCMu7QEMvDkHB4FjBJp2QQK6I
9kAgTlrBToaDQOWEGUEI8nLB+BS2QAjeFEEtzn/BpnToQPYb70Df1G/BQO3UQLUD0EAUuFnBEhxW
QE666kBApH3B6aV0QND1BEGPRYrBgTPRQJEzqUBaAn3BERieQDcWr0AkMHDBUwADQRHf4z5NzYXB
p8vRQG6ZPj/OSYDBb1bZQJPFDb/nCYrB8jzrQDWkCEHymrTBtETdQA4gJEGr8LbBjpgEQSShHUEP
Qq7BTVOeQCMcAkF/Ua/BgfCFQDo8EkHbGqXBfa6TQNHrHUG6xrHB04eDQD4VHkAgdavBiXZVQHac
vj9YI6HBUwGrQECPeUAgtIjBxt7AQBI9mkA7xJPBjDS/QBqXQkBZvJ/B9hZYQCvuUkDz/5LBT+eY
QGeLnj8AB4/BnaJnQLBirUC1eofByT5/QNz0xEBRwpLBeRNPQE+MgkDNmaTB

>  <OMEGA_E>  (128) 
EP0TPthtFz7wJxs+sGMpPg==

>  <OMEGA_NBR>  (128) 
    218714

$$$$
50212935
     RDKit          3D

 73 75  0  0  1  0  0  0  0  0999 V2000
    8.5531    7.5633  -18.4673 C   0  0  0  0  0  0  0  0  0  0  0  0
    7.6235    7.0566  -17.5437 C   0  0  0  0  0  0  0  0  0  0  0  0
    8.1153    8.2421  -19.6173 C   0  0  0  0  0  0  0  0  0  0  0  0
    5.8076    7.8596  -18.9508 C   0  0  0  0  0  0  0  0  0  0  0  0
    6.3526    0.7969  -21.5790 C   0  0  0  0  0  0  0  0  0  0  0  0
    4.5792   -0.6622  -20.7433 C   0  0  0  0  0  0  0  0  0  0  0  0
    6.6377   -1.6232  -21.6313 C   0  0  0  0  0  0  0  0  0  0  0  0
    6.2333    7.2201  -17.7647 C   0  0  0  0  0  0  0  0  0  0  0  0
    6.7312    8.4217  -19.8615 C   0  0  0  0  0  0  0  0  0  0  0  0
    5.0769    0.6310  -20.9978 C   0  0  0  0  0  0  0  0  0  0  0  0
    7.1369   -0.3296  -21.8828 C   0  0  0  0  0  0  0  0  0  0  0  0
    5.3563   -1.7881  -21.0672 C   0  0  0  0  0  0  0  0  0  0  0  0
    6.7919    1.4881  -18.0057 C   0  0  0  0  0  0  0  0  0  0  0  0
    4.1974    7.8246  -16.3624 C   0  0  0  0  0  0  0  0  0  0  0  0
    5.7379    6.0197  -15.4912 C   0  0  0  0  0  0  0  0  0  0  0  0
    4.9191    8.8334  -15.4670 C   0  0  0  0  0  0  0  0  0  0  0  0
    6.3755    7.0632  -14.5560 C   0  0  0  0  0  0  0  0  0  0  0  0
    5.1618    6.6837  -16.7846 C   0  0  0  0  0  0  0  0  0  0  0  0
    7.0771    0.3985  -16.9760 C   0  0  0  0  0  0  0  0  0  0  0  0
    5.8766    8.0296  -22.1853 C   0  0  0  0  0  0  0  0  0  0  0  0
    7.2751   10.0812  -21.7493 C   0  0  0  0  0  0  0  0  0  0  0  0
    4.9484    9.9630  -20.8489 C   0  0  0  0  0  0  0  0  0  0  0  0
    4.2857    1.8368  -20.5607 C   0  0  0  0  0  0  0  0  0  0  0  0
    5.0551    4.4974  -17.8993 C   0  0  0  0  0  0  0  0  0  0  0  0
    5.0781    2.6147  -19.4921 C   0  0  1  0  0  0  0  0  0  0  0  0
    4.2332    3.7554  -18.9382 C   0  0  2  0  0  0  0  0  0  0  0  0
    6.2200    9.1165  -21.1420 C   0  0  0  0  0  0  0  0  0  0  0  0
    5.4739    1.7090  -18.3935 N   0  0  0  0  0  0  0  0  0  0  0  0
    5.4137    8.1445  -14.2570 N   0  0  0  0  0  0  0  0  0  0  0  0
    4.3289    5.7018  -17.4926 N   0  0  0  0  0  0  0  0  0  0  0  0
    7.7287    2.0428  -18.5708 O   0  0  0  0  0  0  0  0  0  0  0  0
    3.8975    4.6480  -20.0016 O   0  0  0  0  0  0  0  0  0  0  0  0
    8.3737   -0.1683  -22.4041 F   0  0  0  0  0  0  0  0  0  0  0  0
    4.8779   -3.0274  -20.8194 F   0  0  0  0  0  0  0  0  0  0  0  0
    9.6105    7.4304  -18.2925 H   0  0  0  0  0  0  0  0  0  0  0  0
    7.9701    6.5399  -16.6609 H   0  0  0  0  0  0  0  0  0  0  0  0
    8.8387    8.6295  -20.3195 H   0  0  0  0  0  0  0  0  0  0  0  0
    4.7511    7.9203  -19.1667 H   0  0  0  0  0  0  0  0  0  0  0  0
    6.7256    1.7882  -21.7901 H   0  0  0  0  0  0  0  0  0  0  0  0
    3.6025   -0.7884  -20.3001 H   0  0  0  0  0  0  0  0  0  0  0  0
    7.2372   -2.4889  -21.8709 H   0  0  0  0  0  0  0  0  0  0  0  0
    3.3476    7.3949  -15.8117 H   0  0  0  0  0  0  0  0  0  0  0  0
    3.8288    8.3384  -17.2625 H   0  0  0  0  0  0  0  0  0  0  0  0
    6.5025    5.2828  -15.7782 H   0  0  0  0  0  0  0  0  0  0  0  0
    4.9218    5.5120  -14.9563 H   0  0  0  0  0  0  0  0  0  0  0  0
    5.7676    9.2698  -16.0143 H   0  0  0  0  0  0  0  0  0  0  0  0
    4.2208    9.6320  -15.1758 H   0  0  0  0  0  0  0  0  0  0  0  0
    6.6738    6.5739  -13.6170 H   0  0  0  0  0  0  0  0  0  0  0  0
    7.2631    7.4925  -15.0438 H   0  0  0  0  0  0  0  0  0  0  0  0
    8.1639    0.2573  -16.8822 H   0  0  0  0  0  0  0  0  0  0  0  0
    6.6608    0.6964  -16.0023 H   0  0  0  0  0  0  0  0  0  0  0  0
    6.6117   -0.5437  -17.3009 H   0  0  0  0  0  0  0  0  0  0  0  0
    5.5099    8.5072  -23.1059 H   0  0  0  0  0  0  0  0  0  0  0  0
    6.7779    7.4410  -22.4116 H   0  0  0  0  0  0  0  0  0  0  0  0
    5.0975    7.3666  -21.7810 H   0  0  0  0  0  0  0  0  0  0  0  0
    6.8652   10.5498  -22.6561 H   0  0  0  0  0  0  0  0  0  0  0  0
    7.5246   10.8609  -21.0146 H   0  0  0  0  0  0  0  0  0  0  0  0
    8.1830    9.5162  -22.0070 H   0  0  0  0  0  0  0  0  0  0  0  0
    4.6067   10.4455  -21.7765 H   0  0  0  0  0  0  0  0  0  0  0  0
    4.1535    9.3086  -20.4618 H   0  0  0  0  0  0  0  0  0  0  0  0
    5.1856   10.7337  -20.1007 H   0  0  0  0  0  0  0  0  0  0  0  0
    4.1028    2.4886  -21.4277 H   0  0  0  0  0  0  0  0  0  0  0  0
    3.3241    1.5103  -20.1381 H   0  0  0  0  0  0  0  0  0  0  0  0
    5.2161    3.8502  -17.0246 H   0  0  0  0  0  0  0  0  0  0  0  0
    6.0269    4.7800  -18.3302 H   0  0  0  0  0  0  0  0  0  0  0  0
    5.9793    3.0362  -19.9613 H   0  0  0  0  0  0  0  0  0  0  0  0
    3.3265    3.3467  -18.4682 H   0  0  0  0  0  0  0  0  0  0  0  0
    4.7513    1.2258  -17.8992 H   0  0  0  0  0  0  0  0  0  0  0  0
    5.8639    8.8172  -13.6698 H   0  0  0  0  0  0  0  0  0  0  0  0
    4.6321    7.7502  -13.7737 H   0  0  0  0  0  0  0  0  0  0  0  0
    3.5796    5.4297  -16.8888 H   0  0  0  0  0  0  0  0  0  0  0  0
    3.9555    6.1370  -18.3119 H   0  0  0  0  0  0  0  0  0  0  0  0
    3.3831    4.1860  -20.6530 H   0  0  0  0  0  0  0  0  0  0  0  0
  1  2  2  0
  1  3  1  0
  2  8  1  0
  3  9  2  0
  4  8  2  0
  4  9  1  0
  5 10  2  0
  5 11  1  0
  6 10  1  0
  6 12  2  0
  7 11  2  0
  7 12  1  0
  8 18  1  0
  9 27  1  0
 10 23  1  0
 11 33  1  0
 12 34  1  0
 13 19  1  0
 13 28  1  0
 13 31  2  0
 14 16  1  0
 14 18  1  0
 15 17  1  0
 15 18  1  0
 16 29  1  0
 17 29  1  0
 18 30  1  0
 20 27  1  0
 21 27  1  0
 22 27  1  0
 23 25  1  0
 24 26  1  0
 24 30  1  0
 25 26  1  0
 25 28  1  0
 26 32  1  0
  1 35  1  0
  2 36  1  0
  3 37  1  0
  4 38  1  0
  5 39  1  0
  6 40  1  0
  7 41  1  0
 14 42  1  0
 14 43  1  0
 15 44  1  0
 15 45  1  0
 16 46  1  0
 16 47  1  0
 17 48  1  0
 17 49  1  0
 19 50  1  0
 19 51  1  0
 19 52  1  0
 20 53  1  0
 20 54  1  0
 20 55  1  0
 21 56  1  0
 21 57  1  0
 21 58  1  0
 22 59  1  0
 22 60  1  0
 22 61  1  0
 23 62  1  0
 23 63  1  0
 24 64  1  0
 24 65  1  0
 25 66  1  6
 26 67  1  1
 28 68  1  0
 29 69  1  0
 29 70  1  0
 30 71  1  0
 30 72  1  0
 32 73  1  0
M  CHG  2  29   1  30   1
M  END
>  <OMEGA_C>  (129) 
Z9kIQdYG8kASvZPBfvPzQLfP4UB8WYzBU9gBQb3fA0Eu8JzB0Ne5QLyB+0Avm5fBTUjLQFcATD/H
oazBGYmSQFmEKb848qXBqmfUQAPFz7/cDK3BmnfHQCsL50AOHo7BX2bXQGu/BkFz5J7B0HWiQBKG
IT94+6fBj2HkQGC8qL7rD6/B32arQEnh5L+oiajBYlfZQKR6vj+iC5DBsVCGQMRi+kBL5oLBRJ23
QHyhwEDi23fB9midQKpVDUGyeHfBDQTMQNQF4kA95WjBWy2lQIHg1UDGRobBUXfiQDgLzD7KzofB
8Ay8QGx5AEFle7HBQs3oQJRMIUGL/q3BbVmeQJRoH0GZyqbB2CSJQLIb6z9kfKTBZsOhQAzrj0DE
MY/BjH+iQJJXJ0DX75vBLXaHQL9YcEBugZfB1wnHQPvcEUHYIqnBQSqvQBTA2j/1JZPB0DytQP1P
AkGmHGTB/4WKQCt1tkDX8IvBrVH3QNe9AkAJkZTB0HB5QLG8lEAxA6DBf/oFQQpVLL6TO7PBHhic
QJLBQcAbjqbBm8QZQZXF7UDyVpLBEgv/QP5G0UCTSYXBI2sNQUUSCkFgjqLBVQmYQElz/UBaVZnB
ZDjXQBzj5D8NUq7BDI9mQAPSSb+LZqLBOpfnQPFKH8CT967BSz9WQLGi7EDI/HzBJAt1QBJqBUGo
GYrBjxTQQGcMqUBPc3zBOX+dQDBisEAPTW/B/4+4QP1QFEFcHYDBLRGHQKscGkE50HLBhY/VQEBd
0kBh31nB7mroQLPC70A3s3DBb58CQbi8gz7BDofBQCXVQFNFMj+9BIDBC5PTQJ4xC79RaIrBc1Gw
QFodCEHW2LjBMOTYQMAc7kDbSrPB+R6jQCO760BqP67Biq/bQBbMKEHIP7XBucnwQCvGLUHYHajB
bu0CQS9CGEFmDrDB+WmTQO0gJ0FJNq7BremEQOnvFEHcsaPBlPClQFW9K0FVzqDBbkqDQKhFH0D0
a6vB471UQBJRwT/ZGqHBbuqmQGZpdkBYMojBu9zAQOj1mEA/pJLBL1a/QH9RQkDQsJ/BFuVUQPgw
VkDlvpPBRgqYQFTonD+dMY/BB6W7QC4TDUFdt1rBzDmUQLIB+EAIYVzBlhdlQFjArUBSHIfBYid9
QERixEC+fpLByIRYQIDzhUBcOaXBxSsJQVV58EAe0ZPBgoH0QJn74EDxWYzBIDsCQfAkA0HOBJ3B
F5a6QEmp+0CchZfB1wyUQONaKL8k66XBvKrMQD8aTz+rkKzBtSjWQL8ezr8o9azBXBTIQGT35kBL
EI7BwzvYQB2CBkHr3Z7Be8WjQLZKIz8b9qfBzh+tQKvi47/teajBrfblQFYZob7l+K7BaHfZQDGc
vz/BIZDBZHKHQB73+kB1wYLB9cW3QHoAwEA++nfB7lKfQF5ADUGwE3fBY9jMQImh4EAc1WjB/5Sl
QFAN1kDIQYbB/2ziQB0fxD76FojBe1+9QFSJAEH1hLHBVq/pQCtwIUGnwa3B/wKfQBwpH0GTvKbB
O/mJQPKY6z8ZlKTB2sahQNz3kEBhho/BNaaiQB9/KECc/pvBMgOHQCLLcEB5lJfBiPTHQKzIEUGu
EanBjU2vQLTY3T8xKpPBL82uQAHhAUHZ2GPBwomKQC8st0CcBYzBeYH3QImsA0DNlJTB32R1QJ1A
lEBWGKDBE++dQHViQcDZg6bBkcQGQcTHGL5MI7PBBhEaQW2X60AgepLBr3r/QARy0EAxR4XB2tMN
QXT/CEFot6LBcMWYQARJ/kBiLpnB7Y1pQGrDSb9pZKLB04LYQO2i5j+KPK7B/3/pQB9PHsA52a7B
Ny1YQLiL7UCLs3zB16V3QJT1BUFD5onB9svPQMwcqEC0wHzB5mydQDYAsEADe2/B07W6QN0FFEFg
0X/B2o+JQGc4GkFiQ3LBkBDWQDxx0EBI5lnBYYbpQOLz7UAnkHDB65YCQe5ubT67Y4fBDEPVQM6s
KT+6PYDBd0jTQAlrDL9N14rBFbOxQN1KCEEm3LjBt1/aQNh/7kDwVrPBSIOkQKaP60DWX67BD7rc
QJITKUER/rTBV1DxQCrKLUHgyKfBq3UDQcCJGEGmz6/BOzOUQGX8JkEbJK7BA56FQCiNFEG7vKPB
JUSmQNdmK0HwraDB30CEQK0ZH0Bej6vBlUhWQAb/wD9uRaHBCF6oQLTbeEAikojBICnAQOGVmkDk
QpPB9HK/QEk2RECjrp/Bs3lVQOCxVUB9lJPB5h2YQHjuoT8uHo/BhrC9QKlmDEHyXVrBcJOVQEaA
90B6JFzB1YRlQIENrkCXLYfBJaZ8QBinxUA1eJLBxONTQOnYhEA7IqXBv3EJQW8V8kC7mZPBnej0
QM/P4UCIR4zBOpUCQQPtA0EW0pzBHia7QGSL+0BOpZfBb16UQGM6KL+fGqbBWjHNQPdLTz+VoqzB
pKzWQAoPzr9NB63BcnvIQFUJ50DfI47BjOvYQNO+BkGl357BmySkQBePIz8lHajBYIetQIbY47/c
najBSovmQALeoL51Aa/Bno7ZQLzKuT+CeZDBPZOHQNPn+kBH8YLBcga4QAU6wEBeF3jBnhOfQDxN
DUHjY3fBZJ/MQGIS4UBK4mjBweqlQOUI1kA6XIbBnUHiQPRv3z79n4fBtHLrQCdRIEH5T67BTqyh
QOOJIEHOmKbBeSG7QDebAEFzQbHBN0+KQGLQ6z8Wu6TB9A2iQLyjkECehY/BLL6iQNcRKEBvDJzB
Wf+GQACrb0AOfpfBbbPIQGHuEUHIG6nBW1yvQNbh2z+cSJPB2UKuQIoAAkEYEWTBYO6KQHAFt0DK
GIzBP3P3QBfzBEArZZTBFFNzQPKck0Dh7J/BeVueQCVnQcDtqqbB7h8HQVbLGL6CF7PBPlcaQavW
7UBQIpLBccX/QD0+0UA3M4XBFT4OQYMuCkGnYKLBr2SZQCmN/UAGbpnB/PppQHi2Sb86o6LBNh3Z
QPu75j+FRa7BJA7qQF5GHsA05a7BTTdYQFJy7UDQLH3BbEp4QBfgBUEjH4rBK1HQQCyHqEB2w3zB
b7KdQDwHsEBArG/Ba5S6QCYYFEHdAoDBpCSJQHk/GkFJtnLBirHVQMoB0UAb5VnB9FfpQKaO7kAm
gXDB82ACQRZs0T7W5IXBR7LQQGVMOj/sXIDBoJPXQLpDD798PIrBOFveQJ3lJ0F3jLXBv0r1QCjE
LEF1majB3qkDQRx7FkGCebDBTraWQH9RKEHm/63BrZOHQA7NFkEpQaPB9x+rQNLTLEHUwaDBVHmv
QE1UCEFKm7jBTcnWQJzR7EAfKrPB2XmhQCd97UD+yq3BkOiEQEKTH0CzsavBtaZWQAVAwT/5gqHB
SbmoQNy4eEBfhojBXGTAQKwHmkBFUZPB2Yi/QDVjREABq5/BSGRWQOvHU0AkX5PBUiiYQLYzoj8m
Ho/BVc+8QPGTDEHYg1rBafKUQNGZ90CiflzBDSFmQDoYrkDuQYfBjq59QNhaxUBSlJLB5YFRQOkI
hEDJ5aTBMn4JQVV28kB5g5PBzvD0QG1L4kDJMYzBd6sCQYgJBEGvw5zBX0m7QDPL+0Bdn5fBJRXN
QML6UD/qlazBp0WUQL5mKL/nJqbBg6jWQKUPzb8MGq3BWInIQPpu50DvF47BDh3ZQHLXBkHb157B
ZAekQCrUIz+QFKjBb37mQCnFm77sAK/B1nytQJ2B47+WtqjB7YzZQJ5mvz/GFpDBv0+HQPT0+kCk
+ILBCNm3QOVlwEDtFnjBt4ieQHdWDUG3WXfBhR3MQK854UC4xWjBQealQLNA1kBoXYbBDnLiQHPO
xj5P/IfBJXvrQJOkIEESMq7BokyhQEknIEHRtKbBUnC8QL2DAEH/TrHBEieKQGdl6z9TpaTBpcGi
QKIokUDYro/B/9SiQO3sJ0DkA5zByEmHQLPCb0DEdZfBTf7IQJLsEUFyHKnBHnqvQGOh2z/8P5PB
NZGtQGQEAkERAmTBhDqLQPcht0A0JYzBdpz3QCwPBEBxd5TBoJxyQApBk0Cg6J/BcBwHQbEYCb7Z
D7PB/lOeQB1WQcBD1KbBHmIaQf1B7kCyBZLBdb3/QIXf0UBzFoXB9VkOQTA+CkHkUqLBeIyZQIO7
/UCZbpnBjPTYQM7O5z9HLK7BTrtpQFbjSr/8taLBgxTqQNWhHcAJAq/B5pxXQOVX7UCwUn3Bue93
QJ7oBUEfKIrBKEzQQKfVqEAPunzBYX2dQDkIsECxxm/BRxe6QPAxFEFc43/BrHWIQK48GkFYtXLB
DwrVQB0c0UBgxlnBPOToQPzZ7kD8RnDBWZoCQVDzfT7jK4fBFM3UQNb1Kj8aMIDBOLvTQPWTDL8p
wYrB6XjeQKEjKEGEdrXBBZv0QJwmLUGycKjBR+cDQbQQF0GhSLDBa2yWQNndJ0FeIq7BxGeHQEYo
FkEwdaPBt/6pQMF/LEG/0qDBh9uwQFQoCEEXsLjBSYvYQJYl7UCFJLPBg/qiQFbT7EAY7q3B5m6E
QHFbH0AVmKvBcKRWQAJawD9dXKHBXn6qQEokekBouIjB74bAQNQMm0CprJPBDZ2/QHnwQ0AqrZ/B
AZxXQFsdVED4LpPBWlCYQItJnT8kV4/Bxuy7QImYDEEzY1rBozSUQImB90AQh1zByxhnQEG8rUDy
TYfB9Ll9QISOxUAulZLBZkBQQDVpg0DtxKTB

>  <OMEGA_E>  (129) 
oN0+PkDUQT6A5kI+oOhDPg==

>  <OMEGA_NBR>  (129) 
    223600

$$$$
50214047
     RDKit          3D

 68 71  0  0  1  0  0  0  0  0999 V2000
    8.6473    7.5058  -18.4019 C   0  0  0  0  0  0  0  0  0  0  0  0
    8.2626    8.2597  -19.5176 C   0  0  0  0  0  0  0  0  0  0  0  0
    7.6719    6.9771  -17.5400 C   0  0  0  0  0  0  0  0  0  0  0  0
    5.4788    8.4924  -21.9325 C   0  0  0  0  0  0  0  0  0  0  0  0
    5.9160    7.9213  -18.9365 C   0  0  0  0  0  0  0  0  0  0  0  0
    4.6093   -0.6773  -20.7552 C   0  0  0  0  0  0  0  0  0  0  0  0
    6.3863    0.7892  -21.5698 C   0  0  0  0  0  0  0  0  0  0  0  0
    6.6767   -1.6302  -21.6316 C   0  0  0  0  0  0  0  0  0  0  0  0
    5.4476    9.1008  -23.1598 C   0  0  0  0  0  0  0  0  0  0  0  0
    7.1683   10.1280  -21.6312 C   0  0  0  0  0  0  0  0  0  0  0  0
    6.8967    8.4442  -19.7991 C   0  0  0  0  0  0  0  0  0  0  0  0
    6.5125    9.0645  -21.0589 C   0  0  0  0  0  0  0  0  0  0  0  0
    6.2915    7.2281  -17.7632 C   0  0  0  0  0  0  0  0  0  0  0  0
    5.1056    0.6182  -20.9999 C   0  0  0  0  0  0  0  0  0  0  0  0
    5.3918   -1.8002  -21.0771 C   0  0  0  0  0  0  0  0  0  0  0  0
    7.1752   -0.3344  -21.8736 C   0  0  0  0  0  0  0  0  0  0  0  0
    6.8007    1.4908  -18.0099 C   0  0  0  0  0  0  0  0  0  0  0  0
    5.3754    8.2043  -14.2181 C   0  0  0  0  0  0  0  0  0  0  0  0
    4.8725    8.8763  -15.5065 C   0  0  0  0  0  0  0  0  0  0  0  0
    6.3549    7.0614  -14.5290 C   0  0  0  0  0  0  0  0  0  0  0  0
    4.2062    7.8399  -16.4202 C   0  0  0  0  0  0  0  0  0  0  0  0
    5.7298    6.0370  -15.5041 C   0  0  0  0  0  0  0  0  0  0  0  0
    5.1887    6.7030  -16.8123 C   0  0  0  0  0  0  0  0  0  0  0  0
    7.0840    0.3892  -16.9927 C   0  0  0  0  0  0  0  0  0  0  0  0
    4.3033    1.8207  -20.5692 C   0  0  0  0  0  0  0  0  0  0  0  0
    5.1030    4.5358  -17.9734 C   0  0  0  0  0  0  0  0  0  0  0  0
    5.0859    2.6094  -19.5011 C   0  0  1  0  0  0  0  0  0  0  0  0
    4.2352    3.7395  -18.9338 C   0  0  2  0  0  0  0  0  0  0  0  0
    5.4845    1.7076  -18.4020 N   0  0  0  0  0  0  0  0  0  0  0  0
    4.3681    5.7262  -17.5439 N   0  0  0  0  0  0  0  0  0  0  0  0
    7.7371    2.0595  -18.5615 O   0  0  0  0  0  0  0  0  0  0  0  0
    3.7934    4.5870  -19.9947 O   0  0  0  0  0  0  0  0  0  0  0  0
    4.9144   -3.0415  -20.8376 F   0  0  0  0  0  0  0  0  0  0  0  0
    8.4150   -0.1686  -22.3865 F   0  0  0  0  0  0  0  0  0  0  0  0
    6.5886   10.4202  -23.2424 S   0  0  0  0  0  0  0  0  0  0  0  0
    9.6944    7.3308  -18.2040 H   0  0  0  0  0  0  0  0  0  0  0  0
    9.0121    8.6979  -20.1599 H   0  0  0  0  0  0  0  0  0  0  0  0
    7.9751    6.3728  -16.6977 H   0  0  0  0  0  0  0  0  0  0  0  0
    4.8208    7.6870  -21.6414 H   0  0  0  0  0  0  0  0  0  0  0  0
    4.8699    8.0503  -19.1721 H   0  0  0  0  0  0  0  0  0  0  0  0
    3.6291   -0.8078  -20.3209 H   0  0  0  0  0  0  0  0  0  0  0  0
    6.7596    1.7823  -21.7722 H   0  0  0  0  0  0  0  0  0  0  0  0
    7.2795   -2.4937  -21.8710 H   0  0  0  0  0  0  0  0  0  0  0  0
    4.8007    8.8026  -23.9716 H   0  0  0  0  0  0  0  0  0  0  0  0
    7.9407   10.7049  -21.1444 H   0  0  0  0  0  0  0  0  0  0  0  0
    5.8867    8.9556  -13.5983 H   0  0  0  0  0  0  0  0  0  0  0  0
    4.5146    7.7982  -13.6665 H   0  0  0  0  0  0  0  0  0  0  0  0
    4.1411    9.6561  -15.2478 H   0  0  0  0  0  0  0  0  0  0  0  0
    5.7233    9.3322  -16.0342 H   0  0  0  0  0  0  0  0  0  0  0  0
    7.2635    7.4819  -14.9847 H   0  0  0  0  0  0  0  0  0  0  0  0
    6.6181    6.5497  -13.5915 H   0  0  0  0  0  0  0  0  0  0  0  0
    3.3458    7.4014  -15.8935 H   0  0  0  0  0  0  0  0  0  0  0  0
    3.8590    8.3422  -17.3351 H   0  0  0  0  0  0  0  0  0  0  0  0
    6.4967    5.2971  -15.7769 H   0  0  0  0  0  0  0  0  0  0  0  0
    4.8960    5.5305  -14.9959 H   0  0  0  0  0  0  0  0  0  0  0  0
    8.1709    0.2527  -16.8925 H   0  0  0  0  0  0  0  0  0  0  0  0
    6.6587    0.6717  -16.0184 H   0  0  0  0  0  0  0  0  0  0  0  0
    6.6264   -0.5511  -17.3338 H   0  0  0  0  0  0  0  0  0  0  0  0
    4.1179    2.4677  -21.4392 H   0  0  0  0  0  0  0  0  0  0  0  0
    3.3430    1.4882  -20.1481 H   0  0  0  0  0  0  0  0  0  0  0  0
    5.3474    3.9171  -17.0973 H   0  0  0  0  0  0  0  0  0  0  0  0
    6.0318    4.8382  -18.4793 H   0  0  0  0  0  0  0  0  0  0  0  0
    5.9842    3.0394  -19.9682 H   0  0  0  0  0  0  0  0  0  0  0  0
    3.3785    3.3154  -18.3895 H   0  0  0  0  0  0  0  0  0  0  0  0
    4.7626    1.2223  -17.9087 H   0  0  0  0  0  0  0  0  0  0  0  0
    3.6191    5.4357  -16.9484 H   0  0  0  0  0  0  0  0  0  0  0  0
    3.9939    6.1748  -18.3556 H   0  0  0  0  0  0  0  0  0  0  0  0
    3.2511    4.0881  -20.5942 H   0  0  0  0  0  0  0  0  0  0  0  0
  1  2  2  0
  1  3  1  0
  2 11  1  0
  3 13  2  0
  4  9  2  0
  4 12  1  0
  5 11  2  0
  5 13  1  0
  6 14  2  0
  6 15  1  0
  7 14  1  0
  7 16  2  0
  8 15  2  0
  8 16  1  0
  9 35  1  0
 10 12  2  0
 10 35  1  0
 11 12  1  0
 13 23  1  0
 14 25  1  0
 15 33  1  0
 16 34  1  0
 17 24  1  0
 17 29  1  0
 17 31  2  0
 18 19  1  0
 18 20  1  0
 19 21  1  0
 20 22  1  0
 21 23  1  0
 22 23  1  0
 23 30  1  0
 25 27  1  0
 26 28  1  0
 26 30  1  0
 27 28  1  0
 27 29  1  0
 28 32  1  0
  1 36  1  0
  2 37  1  0
  3 38  1  0
  4 39  1  0
  5 40  1  0
  6 41  1  0
  7 42  1  0
  8 43  1  0
  9 44  1  0
 10 45  1  0
 18 46  1  0
 18 47  1  0
 19 48  1  0
 19 49  1  0
 20 50  1  0
 20 51  1  0
 21 52  1  0
 21 53  1  0
 22 54  1  0
 22 55  1  0
 24 56  1  0
 24 57  1  0
 24 58  1  0
 25 59  1  0
 25 60  1  0
 26 61  1  0
 26 62  1  0
 27 63  1  6
 28 64  1  1
 29 65  1  0
 30 66  1  0
 30 67  1  0
 32 68  1  0
M  CHG  1  30   1
M  END
>  <OMEGA_C>  (130) 
PVsKQc0v8EAwN5PBozMEQY0nBEEDJJzBPID1QI5E30DWUYzB/1GvQO3gB0Gyda/B10+9QDZ7/UDd
fZfBq3+TQLZmLb+eCqbBrFzMQB4LSj8Fj6zBQqfVQHmp0L9tDa3B4lKuQLicEUE8R7nBC2PlQHUM
IkGiDK3BJbLcQKMbB0GCZJ7BOWbQQCQIEUGTeKjBtVPJQEdM50ANG47BaWGjQPFCHj/T/6fBjoms
QCts5r/inajBBpvlQIs3q74r/a7BD5/ZQLbTvj9CFJDB/AKsQM9EA0FhfWPB4OubQFUFDkGeGnjB
hVvLQBL34UDvdmjBapmGQCTg+kB5XIPBY1q3QMQuwUDqEHjBiwmmQJx+1kCrf4bBHLDiQLxFxz4S
8YfB67SJQE8L6T+gjaTB7EujQJ8lkUBuyY/B7r+iQOz/JkAnApzB04aHQH9Tb0CDeJfBIoGvQMmR
2j9EN5PBrMeLQAg9t0DyWYzBmJb3QCnOA0D5fZTBw8ZyQI3IkkAO9Z/BaEKdQCuoQsBTs6bBCaQG
QX2gLL53F7PBc9XSQPO4JkFv8LnBbhwbQYSV6kDBoZHBwDEQQbEqC0FiR6HB0TP/QD/uy0D7lIXB
wUOaQNX79UCAIa3BndabQAHOAEGFYJnB+kNoQNLNTr8vkaLBRE7YQJUh5D9+La7B3/HoQBWYH8Dm
967BYJ+ZQKLXDEHRxb/BmBr+QGdHK0GlJ6nBhl+8QB5KD0G/klnB4HeQQOKK+UAnqlrBrIOEQDt/
GkH99nPB4CS3QIFQFUEXRoDBiG7oQO1r70CAwW/BGMfTQCKX0UDrdlnB5iBWQDfY7EDfS37BP/p2
QKl5BUFBrorB4eTPQHKBqUAZbnzB26ucQOT5sEBO72/B7LsCQZ5egT7KI4fB1hPVQLf1Kz+uJYDB
OwvUQHgXDb+Yq4rBwcWDQM3uHUBwg6vBA/RVQOB8vj9iL6HBDB6rQMmxekBSx4jBQATBQFjSmkCt
1ZPBdH6/QEaFQkDcvp/B6DlYQNQvVEC8HZPB/2aYQCB0nD8SRY/BZ59nQIXxrUBmlofBiZx/QMGX
xUAv2JLBLhJQQFfRgkAGwaTBdc8JQef47EAS7pPB3h4DQT9+AUH6Ip3BpVT1QJfX3UBZhIzBOyef
QFmjGkGaz6jBBA+8QJLL+EDUzZfBTg/MQCstSz8/nKzBW8mTQIGHKr9asKXB3f/VQCzjz7+qnqzB
2z2bQMpSKkH+YbDBouzlQDc2G0G3ka/BtyraQNmmBEHuFZ/BgH3LQGt4EkFE6qfBBAXJQN685EDH
P47BFD2jQFxxID/59afBcYrlQOpcqb6F2a7BNAqtQDsz5b/kFajBcJfZQErmwz9/JZDBEpqsQDsL
A0EVZWPBpQGeQN77DUH4KXjB7UPLQN7W4EAEJmjBYa+HQPBY+0DiV4PBAya3QI1ZwECt1XfB5++l
QPWz1UDeX4bBPQHjQIA/4z4b6IfBJYOJQHu+6j/jp6TBup2hQIQfkECfcY/BAGqiQGkjKECHH5zB
KuyGQJpAcEAoopfBP2mvQGhL3T9AUpPB4raKQLSltkB8CIzBwGX3QOGRBkA9mZTByeN1QN1jlEDL
GKDB9oUGQTmHK77FDrPBSh2eQK7mQcAi6qXB7D3LQKRcLkEkIrfBjacaQcaj50BiiZLBZ9MOQfGK
B0H/uaLB5eD/QNXgzEBpd4XBSdOEQMvaFEHMBKTB8FiaQFSP+0C+k5nBxLTXQPRi5D8Vcq7Byi5p
QHAOS7+hHKLBHHzpQOxAH8DYYq7B+Dl8QIgRM0Hi9rHBbn4DQWC+FkFvubDBDRi9QK/XDkGXRFnB
BmKQQKC0+UCG41rBd5WHQE78GkG9SXTB+AW6QPabFEEPQYDBBczoQFWu7UBOQW/BF/PSQI9f0EAo
E1nBuDFXQDhv7kAZRX7Bho96QDnHBUF+tYrBEZrPQM+YqEDzN3zBgGKcQDk1sEAYvW/B3+kCQVIh
pD7xFIfBzkDVQAmUOz+GJIDB5rXUQM9fAb+tjYrBbdeDQBVaHkBdq6vB4E5VQJD1wD/GUqHBtmCn
QADUdkCqeYjBbGnAQJRDmUCrCpPBxxC/QLT2Q0Cc3p/BOvFUQHoRVUDGuJPB8HaYQF/NnT93Z4/B
Qt5lQAjmrUCvJYfB5Ah9QITjxEARhJLBnYNUQGhEhUCsM6XB

>  <OMEGA_E>  (130) 
IO5/PlQsgD4=

>  <OMEGA_NBR>  (130) 
    226094

$$$$
50214053
     RDKit          3D

 74 76  0  0  1  0  0  0  0  0999 V2000
    8.6639    7.4985  -18.3986 C   0  0  0  0  0  0  0  0  0  0  0  0
    7.7003    7.0088  -17.5041 C   0  0  0  0  0  0  0  0  0  0  0  0
    8.2704    8.1978  -19.5495 C   0  0  0  0  0  0  0  0  0  0  0  0
    5.9386    7.8792  -18.9372 C   0  0  0  0  0  0  0  0  0  0  0  0
    6.4250    0.8308  -21.5800 C   0  0  0  0  0  0  0  0  0  0  0  0
    4.5972   -0.6012  -20.8179 C   0  0  0  0  0  0  0  0  0  0  0  0
    6.6728   -1.5938  -21.6282 C   0  0  0  0  0  0  0  0  0  0  0  0
    6.3208    7.2253  -17.7462 C   0  0  0  0  0  0  0  0  0  0  0  0
    6.8960    8.4151  -19.8264 C   0  0  0  0  0  0  0  0  0  0  0  0
    5.1240    0.6844  -21.0506 C   0  0  0  0  0  0  0  0  0  0  0  0
    7.2024   -0.3079  -21.8567 C   0  0  0  0  0  0  0  0  0  0  0  0
    5.3681   -1.7388  -21.1143 C   0  0  0  0  0  0  0  0  0  0  0  0
    6.7464    1.4491  -18.0441 C   0  0  0  0  0  0  0  0  0  0  0  0
    5.3462    8.1979  -14.1986 C   0  0  0  0  0  0  0  0  0  0  0  0
    4.8776    8.8775  -15.4947 C   0  0  0  0  0  0  0  0  0  0  0  0
    6.3367    7.0598  -14.4930 C   0  0  0  0  0  0  0  0  0  0  0  0
    4.2269    7.8463  -16.4210 C   0  0  0  0  0  0  0  0  0  0  0  0
    5.7414    6.0366  -15.4882 C   0  0  0  0  0  0  0  0  0  0  0  0
    5.2128    6.7069  -16.7980 C   0  0  0  0  0  0  0  0  0  0  0  0
    6.9679    0.4355  -16.9259 C   0  0  0  0  0  0  0  0  0  0  0  0
    5.1539    9.9817  -20.8492 C   0  0  0  0  0  0  0  0  0  0  0  0
    6.1047    8.0393  -22.1720 C   0  0  0  0  0  0  0  0  0  0  0  0
    4.3347    1.9017  -20.6387 C   0  0  0  0  0  0  0  0  0  0  0  0
    5.1168    4.5508  -17.9751 C   0  0  0  0  0  0  0  0  0  0  0  0
    7.5500   10.0593  -21.6655 C   0  0  0  0  0  0  0  0  0  0  0  0
    5.0988    2.6576  -19.5357 C   0  0  1  0  0  0  0  0  0  0  0  0
    4.2583    3.7973  -18.9772 C   0  0  2  0  0  0  0  0  0  0  0  0
    6.4317    9.1230  -21.1172 C   0  0  0  0  0  0  0  0  0  0  0  0
    5.4439    1.7348  -18.4359 N   0  0  0  0  0  0  0  0  0  0  0  0
    4.3881    5.7370  -17.5328 N   0  0  0  0  0  0  0  0  0  0  0  0
    7.7042    2.0611  -18.5052 O   0  0  0  0  0  0  0  0  0  0  0  0
    7.1131   10.7995  -22.7994 O   0  0  0  0  0  0  0  0  0  0  0  0
    3.8719    4.6752  -20.0355 O   0  0  0  0  0  0  0  0  0  0  0  0
    8.4606   -0.1660  -22.3304 F   0  0  0  0  0  0  0  0  0  0  0  0
    4.8591   -2.9705  -20.8906 F   0  0  0  0  0  0  0  0  0  0  0  0
    9.7131    7.3364  -18.2004 H   0  0  0  0  0  0  0  0  0  0  0  0
    8.0118    6.4635  -16.6255 H   0  0  0  0  0  0  0  0  0  0  0  0
    9.0199    8.5738  -20.2302 H   0  0  0  0  0  0  0  0  0  0  0  0
    4.8890    7.9718  -19.1743 H   0  0  0  0  0  0  0  0  0  0  0  0
    6.8226    1.8164  -21.7721 H   0  0  0  0  0  0  0  0  0  0  0  0
    3.6025   -0.7126  -20.4124 H   0  0  0  0  0  0  0  0  0  0  0  0
    7.2669   -2.4687  -21.8469 H   0  0  0  0  0  0  0  0  0  0  0  0
    5.8387    8.9456  -13.5595 H   0  0  0  0  0  0  0  0  0  0  0  0
    4.4719    7.7856  -13.6736 H   0  0  0  0  0  0  0  0  0  0  0  0
    4.1455    9.6614  -15.2509 H   0  0  0  0  0  0  0  0  0  0  0  0
    5.7427    9.3289  -16.0026 H   0  0  0  0  0  0  0  0  0  0  0  0
    7.2542    7.4865  -14.9245 H   0  0  0  0  0  0  0  0  0  0  0  0
    6.5794    6.5442  -13.5521 H   0  0  0  0  0  0  0  0  0  0  0  0
    3.3557    7.4092  -15.9112 H   0  0  0  0  0  0  0  0  0  0  0  0
    3.8979    8.3515  -17.3411 H   0  0  0  0  0  0  0  0  0  0  0  0
    6.5226    5.3097  -15.7552 H   0  0  0  0  0  0  0  0  0  0  0  0
    4.9064    5.5141  -14.9985 H   0  0  0  0  0  0  0  0  0  0  0  0
    8.0378    0.3952  -16.6734 H   0  0  0  0  0  0  0  0  0  0  0  0
    6.3929    0.7376  -16.0381 H   0  0  0  0  0  0  0  0  0  0  0  0
    6.6325   -0.5576  -17.2595 H   0  0  0  0  0  0  0  0  0  0  0  0
    4.8416   10.4760  -21.7810 H   0  0  0  0  0  0  0  0  0  0  0  0
    4.3433    9.3305  -20.4903 H   0  0  0  0  0  0  0  0  0  0  0  0
    5.3771   10.7432  -20.0874 H   0  0  0  0  0  0  0  0  0  0  0  0
    5.7709    8.5216  -23.1026 H   0  0  0  0  0  0  0  0  0  0  0  0
    7.0048    7.4395  -22.3724 H   0  0  0  0  0  0  0  0  0  0  0  0
    5.3061    7.3860  -21.7908 H   0  0  0  0  0  0  0  0  0  0  0  0
    4.1972    2.5614  -21.5081 H   0  0  0  0  0  0  0  0  0  0  0  0
    3.3517    1.5895  -20.2562 H   0  0  0  0  0  0  0  0  0  0  0  0
    5.3310    3.9044  -17.1112 H   0  0  0  0  0  0  0  0  0  0  0  0
    6.0618    4.8528  -18.4504 H   0  0  0  0  0  0  0  0  0  0  0  0
    7.8448   10.7632  -20.8733 H   0  0  0  0  0  0  0  0  0  0  0  0
    8.4173    9.4468  -21.9532 H   0  0  0  0  0  0  0  0  0  0  0  0
    6.0205    3.0740  -19.9683 H   0  0  0  0  0  0  0  0  0  0  0  0
    3.3743    3.3859  -18.4679 H   0  0  0  0  0  0  0  0  0  0  0  0
    4.6962    1.2890  -17.9438 H   0  0  0  0  0  0  0  0  0  0  0  0
    3.6418    5.4428  -16.9356 H   0  0  0  0  0  0  0  0  0  0  0  0
    4.0102    6.1925  -18.3388 H   0  0  0  0  0  0  0  0  0  0  0  0
    7.8187   11.3572  -23.1052 H   0  0  0  0  0  0  0  0  0  0  0  0
    3.3354    4.2017  -20.6604 H   0  0  0  0  0  0  0  0  0  0  0  0
  1  2  2  0
  1  3  1  0
  2  8  1  0
  3  9  2  0
  4  8  2  0
  4  9  1  0
  5 10  2  0
  5 11  1  0
  6 10  1  0
  6 12  2  0
  7 11  2  0
  7 12  1  0
  8 19  1  0
  9 28  1  0
 10 23  1  0
 11 34  1  0
 12 35  1  0
 13 20  1  0
 13 29  1  0
 13 31  2  0
 14 15  1  0
 14 16  1  0
 15 17  1  0
 16 18  1  0
 17 19  1  0
 18 19  1  0
 19 30  1  0
 21 28  1  0
 22 28  1  0
 23 26  1  0
 24 27  1  0
 24 30  1  0
 25 28  1  0
 25 32  1  0
 26 27  1  0
 26 29  1  0
 27 33  1  0
  1 36  1  0
  2 37  1  0
  3 38  1  0
  4 39  1  0
  5 40  1  0
  6 41  1  0
  7 42  1  0
 14 43  1  0
 14 44  1  0
 15 45  1  0
 15 46  1  0
 16 47  1  0
 16 48  1  0
 17 49  1  0
 17 50  1  0
 18 51  1  0
 18 52  1  0
 20 53  1  0
 20 54  1  0
 20 55  1  0
 21 56  1  0
 21 57  1  0
 21 58  1  0
 22 59  1  0
 22 60  1  0
 22 61  1  0
 23 62  1  0
 23 63  1  0
 24 64  1  0
 24 65  1  0
 25 66  1  0
 25 67  1  0
 26 68  1  6
 27 69  1  1
 29 70  1  0
 30 71  1  0
 30 72  1  0
 32 73  1  0
 33 74  1  0
M  CHG  1  30   1
M  END
>  <OMEGA_C>  (131) 
KZ8KQaPz70BEMJPBFWn2QH5I4EBVCIzBnVMEQV0qA0FeZZzB1wi+QCMi/EBuf5fBeJnNQJetVD/N
o6zBVByTQG3lGb8oi6bBTIfVQN8AzL9+Bq3BskPKQAI250Ae+I3BLKzcQEakBkFlnJ7B8fejQJwz
Lz+5Z6jBzHnmQBGhnb5y2q7BNMerQByR3r8G6qjBr+LXQPV6uT9lWpDBFhSrQK4qA0FWLWPBlBWc
QFYKDkE46nfBYcbKQJLp4UBK42fBxEKHQN8U+0A8XoPBMLm3QN8rwUCEz3fBSM+mQBGf1kBIYobB
cPneQC/03j4yaIfBv+ykQCe1H0FCy6bBEVrDQA2hAEFJYLHBoLWKQMFp8z8OHKXB2byjQICgkUD6
zI/B4ZnxQMLyIEH0Uq3BjCmjQOQWKkAUSZzBxkOIQIUGc0BQ0ZfBwNDNQP/3EUH676jBbzSuQKQO
3j/CfJPBAWuMQCyVt0AYQ4zBrYj2QNfoA0C5CpTBRZ7jQJ7KLEE6ZbbByMx3QPKalUC2SKDBuF4H
QSYAKr6ypLLB6n2bQE4cPsDgH6fBtGgbQZnD6kBSmpHBcDAAQQDVzkDuAIXBalEQQWouCUFr16HB
qnKcQA8Z/0DrZJnBXVLaQAB/6D9aLa7BkY5mQKtuNr+vTKPBaIroQMD/HcCGxq7By9a6QAQhD0GN
81jBDhqPQIwj+UDoxlrB7aeEQEKVGkF/A3TB2cO3QB9DFUFgBYDBIyLoQFGR70Cxym7Bg4rSQGlq
0UBE1VjBqcNWQE4Y7UAVlH7BwXd5QNifBUGJuorBHrnQQGjpqUB5FXzBBAGdQKJzsECx+W/B6poA
QRReyj4SY4XB25LMQJbQPD8aToDBmT3UQJa+Dr+ME4rBte6aQLedJ0GCP67BRvyKQLVJFUE17KPB
7hCsQPzjK0H9sqDBVau4QF5YCEEf0rjBOCfgQJ8Q7kDH+rLBmcupQMZZ7ECkU67BVk+GQE3uI0CL
EKzBDoJWQPB0yz+1DKLBypeqQGrieUDE44jB4PnBQBNKm0BdmpPBoAj7QOY1LEFx/KbBUq0GQTUm
F0EQoK/BJKjAQNu7REAKv5/BxvRXQP+xWEBRvpPB8UaWQNn+pD/2jI/B3BJpQLcrrkAzfIfB4FOA
QOEoxkDqtZLB2zL6QCe3NUFw17jBMndVQAJ0hkB+SKXBuFwIQdc08kDC6ZPBaonzQJav4UAEb4zB
ogQBQVpDBEFq8pzB+a24QKgf/EDNRZfBbqbMQKtGYz+hBK3BgkyVQMCNHr91SabBEIbXQKA1w7+n
pa3B5/XGQH+X50Dc443BIJjVQEQpB0HZqp7B3SCkQIf4Lz+5SKjBfXXmQPhCX75Lm6/BRt+uQOCy
3L+fBqnB8yfbQDjBxD9dhpDBD7CrQJO3AkGYS2LB/9yaQFaiDUH1qHbBcqHLQAmt4UBGwmfBK2eF
QEYn+kCbnILBr/G3QAjbwEB3bHfBZA2lQM431kBD/IXB9FvlQGJb2z7tiIjBvFS4QOR3AUG0GbHB
rjDmQAULIkFEmq3BHPSJQPpo7z8ppaTBWKKiQNBakUDCe4/Bj4KbQCvcH0FjrKXBgNCiQN/WKUD6
CZzBzvaGQPADcEBYNpfBNzbEQJKgEkGPsKjBM7OwQBi33j8vbpPBGqCKQPSStkDCrYvBBoT4QADh
B0DmC5XB8suNQAYOLUEMR67BoF5vQFGKk0B4fZ/BGNwGQaDDx7yW4LPBvZKgQFp6PsBEFafBkVMZ
QZC47UD0tZLBwiD/QJdk0ECCiYXBm18MQYisCkG1naLB+L+WQL/8/UAI2ZjBdtDXQOLV8T9Qpq7B
9qRsQIivRb//p6LBjTzrQCb7F8D0r6/BgsK7QBe5DkFQPljByo+QQHea90DudlnB9mODQNX6GUGR
O3LBrLe1QGgcFUG+PH/BAS/oQML170CrK2/BJ9rUQKIZ0UDO7ljBubNUQCWl60BFnHzBViBzQDgv
BUH91onBwv/QQI8YqkC/QHzBXCSeQGqRr0ACJG/BQCAEQRnqmz6j7ofB+FDYQDL4MT8RpYDB09rW
QI2PA78XRIvBLtarQNlTCUEGVLjBtPfUQN428EA/K7PBEL6fQFmG7UC1yK3BgbXYQHnqKUEIt7TB
EBHvQLg6LkFcp6fBo2IBQUjbGEEL56/B2oeDQDrQIUAig6vBqPJWQEUcwj9HRqHBw2OrQKYDekD4
pIjBxda/QM4bnEBPmJPBoIeBQFzAFEEpk6PBRPOiQAULKkG4vZ7Bkge/QLhnR0C5yJ/BEElYQCHI
UkDM1pLBMCaaQLwgnj+1cI/BvXNnQC5erEANtYbBzWd6QMrvxEC9/ZHBAypqQEfZNEExLqzBZ8xM
QKqbg0AUT6TBNDwJQSaX8UBeOJTBULn0QJxX4UB51ozBATYCQTOaA0Gha53BX5y6QP1a+0B8AJjB
7sDMQIpoPj87P6zBj86TQKoiNL9FgqXBgd/VQIm31r+UYazBezzIQBod50Cog47BkRrYQBtZBkGn
XJ/BKcmjQOD8FT+Zp6fBtenlQNhVxr4sg67BB7qsQMrD6r9t7qfBce/ZQOyWuD9sHJDBbfirQEpW
A0GO82PBtDScQIMYDkGcm3jBoY7LQJdP4kCA4GjBGIyGQLX++kBLhIPBlgO4QHZhwUCqhHjBstCl
QCRz1kCUqIbBgqPiQKByvD5MuIfBddvpQJwrHkHVeK/B/ASgQJToHkEInKfBPDSKQK7x5T/vXaTB
H2aiQJFekEDUio/BckC6QNGq+kAwHLHBLuWiQDTwJUCbzpvBIC+HQMHlbUCjWpfBgGDHQD8+EEHf
zanBEravQP4c2j8Y7pLBYCeLQKPftkDATYzBrv73QNgC+D+TBZXBqjmrQCDWBEHQKrvBI/FyQBkV
kkA44p/BJMwGQeGdb74ipLLBb0ydQDlzRMCg2qXBOSgaQZ1v7UDkz5LBIdH/QFxa0ED114XB1sAN
QS3ZCUF7CqPB88eYQDuj/UCHrJnBk8HYQGa03T+dBK7BQ+VoQCTeUr+3AaLBOh7pQFj7IsCKKK7B
awm8QGtcD0E361nB51OQQE19+UCERlvB7BiFQJ69GkECkHTBAJq3QAoqFUEsjYDB2ZroQET670C4
GHDBB/PTQJb80UD121nBtDFWQHkl7UDLdn7BrYd2QKV4BUFU1orBHwLRQDtTqkAoEX3B/9qdQMV3
sEBhUnDBI6ECQR6FNj4SP4fBWezWQDP2NT97xn/Bvf/RQHE2D79N+YnBaXfcQBvlJEEi4rbB2K/z
QL1DK0FMIarBqecCQQYzFEGaaLHBcaKUQM/LJUHlMK/B8EOGQC5oFUFg8qPBgV6pQFngK0FgI6LB
bLaEQIrpG0CeZKvB1YRWQBCBvD9fEaHBCkGpQCtXeUAgdIjB0aPAQD+LmUAJa5PBrSzWQITd5UCA
ZrLBcK2gQJBK6ECyLa3BfZe/QF3kQUBOhJ/BOB9XQE5jUkDEHpPBWJGYQH6koT/2rY7BKXBmQIEs
rkCqdYfB1kp+QAO4xECc3JLBX16jQLn+8UCigr/BpO5QQE0XgkCcwKTB

>  <OMEGA_E>  (131) 
0NFkPrgSdD5wQWE+

>  <OMEGA_NBR>  (131) 
    229891

$$$$
50214056
     RDKit          3D

 68 70  0  0  1  0  0  0  0  0999 V2000
    8.5611    7.5851  -18.5662 C   0  0  0  0  0  0  0  0  0  0  0  0
    8.0908    8.1972  -19.7410 C   0  0  0  0  0  0  0  0  0  0  0  0
    7.6502    7.0997  -17.6065 C   0  0  0  0  0  0  0  0  0  0  0  0
    5.7966    7.8705  -18.9829 C   0  0  0  0  0  0  0  0  0  0  0  0
    6.4395    0.8095  -21.5386 C   0  0  0  0  0  0  0  0  0  0  0  0
    4.6201   -0.6302  -20.7715 C   0  0  0  0  0  0  0  0  0  0  0  0
    6.7006   -1.6136  -21.5803 C   0  0  0  0  0  0  0  0  0  0  0  0
    6.7052    8.3241  -19.9519 C   0  0  0  0  0  0  0  0  0  0  0  0
    6.2502    7.2623  -17.7912 C   0  0  0  0  0  0  0  0  0  0  0  0
    5.1402    0.6574  -21.0068 C   0  0  0  0  0  0  0  0  0  0  0  0
    7.2235   -0.3256  -21.8115 C   0  0  0  0  0  0  0  0  0  0  0  0
    5.3965   -1.7644  -21.0667 C   0  0  0  0  0  0  0  0  0  0  0  0
    6.2918    8.1921  -22.3684 C   0  0  0  0  0  0  0  0  0  0  0  0
    6.1904    8.8998  -21.1930 C   0  0  0  0  0  0  0  0  0  0  0  0
    6.7625    1.4669  -17.9841 C   0  0  0  0  0  0  0  0  0  0  0  0
    5.3394    8.1462  -14.1700 C   0  0  0  0  0  0  0  0  0  0  0  0
    4.8321    8.8441  -15.4413 C   0  0  0  0  0  0  0  0  0  0  0  0
    6.3659    7.0548  -14.5122 C   0  0  0  0  0  0  0  0  0  0  0  0
    4.1920    7.8189  -16.3800 C   0  0  0  0  0  0  0  0  0  0  0  0
    5.7891    6.0349  -15.5172 C   0  0  0  0  0  0  0  0  0  0  0  0
    5.1965    6.7113  -16.7975 C   0  0  0  0  0  0  0  0  0  0  0  0
    5.5073   10.2479  -21.1540 C   0  0  0  0  0  0  0  0  0  0  0  0
    6.9875    0.4155  -16.9018 C   0  0  0  0  0  0  0  0  0  0  0  0
    4.3443    1.8709  -20.5976 C   0  0  0  0  0  0  0  0  0  0  0  0
    5.1087    4.5421  -17.9523 C   0  0  0  0  0  0  0  0  0  0  0  0
    5.1053    2.6389  -19.5002 C   0  0  1  0  0  0  0  0  0  0  0  0
    4.2537    3.7729  -18.9447 C   0  0  2  0  0  0  0  0  0  0  0  0
    5.4595    1.7295  -18.3918 N   0  0  0  0  0  0  0  0  0  0  0  0
    4.3709    5.7227  -17.5087 N   0  0  0  0  0  0  0  0  0  0  0  0
    7.7274    1.9431  -18.5728 O   0  0  0  0  0  0  0  0  0  0  0  0
    3.8504    4.6410  -20.0043 O   0  0  0  0  0  0  0  0  0  0  0  0
    8.4816   -0.1786  -22.2841 F   0  0  0  0  0  0  0  0  0  0  0  0
    4.8942   -2.9983  -20.8404 F   0  0  0  0  0  0  0  0  0  0  0  0
    9.6235    7.4864  -18.3986 H   0  0  0  0  0  0  0  0  0  0  0  0
    8.7886    8.5677  -20.4774 H   0  0  0  0  0  0  0  0  0  0  0  0
    8.0191    6.5999  -16.7230 H   0  0  0  0  0  0  0  0  0  0  0  0
    4.7362    7.9882  -19.1506 H   0  0  0  0  0  0  0  0  0  0  0  0
    6.8308    1.7966  -21.7357 H   0  0  0  0  0  0  0  0  0  0  0  0
    3.6263   -0.7461  -20.3650 H   0  0  0  0  0  0  0  0  0  0  0  0
    7.2994   -2.4859  -21.7967 H   0  0  0  0  0  0  0  0  0  0  0  0
    5.8802    8.5984  -23.2806 H   0  0  0  0  0  0  0  0  0  0  0  0
    6.7830    7.2303  -22.3791 H   0  0  0  0  0  0  0  0  0  0  0  0
    5.8128    8.8923  -13.5148 H   0  0  0  0  0  0  0  0  0  0  0  0
    4.4873    7.6873  -13.6473 H   0  0  0  0  0  0  0  0  0  0  0  0
    4.0848    9.6033  -15.1668 H   0  0  0  0  0  0  0  0  0  0  0  0
    5.6767    9.3290  -15.9526 H   0  0  0  0  0  0  0  0  0  0  0  0
    7.2568    7.5266  -14.9525 H   0  0  0  0  0  0  0  0  0  0  0  0
    6.6487    6.5273  -13.5893 H   0  0  0  0  0  0  0  0  0  0  0  0
    3.3390    7.3507  -15.8671 H   0  0  0  0  0  0  0  0  0  0  0  0
    3.8374    8.3366  -17.2836 H   0  0  0  0  0  0  0  0  0  0  0  0
    6.5933    5.3494  -15.8225 H   0  0  0  0  0  0  0  0  0  0  0  0
    4.9906    5.4649  -15.0197 H   0  0  0  0  0  0  0  0  0  0  0  0
    5.1852   10.5257  -22.1685 H   0  0  0  0  0  0  0  0  0  0  0  0
    4.6301   10.1953  -20.4924 H   0  0  0  0  0  0  0  0  0  0  0  0
    6.2095   11.0037  -20.7725 H   0  0  0  0  0  0  0  0  0  0  0  0
    8.0651    0.2210  -16.7972 H   0  0  0  0  0  0  0  0  0  0  0  0
    6.5867    0.7824  -15.9454 H   0  0  0  0  0  0  0  0  0  0  0  0
    6.4726   -0.5152  -17.1823 H   0  0  0  0  0  0  0  0  0  0  0  0
    4.1993    2.5254  -21.4697 H   0  0  0  0  0  0  0  0  0  0  0  0
    3.3648    1.5534  -20.2106 H   0  0  0  0  0  0  0  0  0  0  0  0
    5.3364    3.9022  -17.0870 H   0  0  0  0  0  0  0  0  0  0  0  0
    6.0467    4.8527  -18.4356 H   0  0  0  0  0  0  0  0  0  0  0  0
    6.0222    3.0619  -19.9367 H   0  0  0  0  0  0  0  0  0  0  0  0
    3.3777    3.3539  -18.4278 H   0  0  0  0  0  0  0  0  0  0  0  0
    4.7151    1.2740  -17.9036 H   0  0  0  0  0  0  0  0  0  0  0  0
    3.6393    5.4244  -16.8957 H   0  0  0  0  0  0  0  0  0  0  0  0
    3.9728    6.1651  -18.3123 H   0  0  0  0  0  0  0  0  0  0  0  0
    3.3159    4.1582  -20.6238 H   0  0  0  0  0  0  0  0  0  0  0  0
  1  2  2  0
  1  3  1  0
  2  8  1  0
  3  9  2  0
  4  8  2  0
  4  9  1  0
  5 10  2  0
  5 11  1  0
  6 10  1  0
  6 12  2  0
  7 11  2  0
  7 12  1  0
  8 14  1  0
  9 21  1  0
 10 24  1  0
 11 32  1  0
 12 33  1  0
 13 14  2  0
 14 22  1  0
 15 23  1  0
 15 28  1  0
 15 30  2  0
 16 17  1  0
 16 18  1  0
 17 19  1  0
 18 20  1  0
 19 21  1  0
 20 21  1  0
 21 29  1  0
 24 26  1  0
 25 27  1  0
 25 29  1  0
 26 27  1  0
 26 28  1  0
 27 31  1  0
  1 34  1  0
  2 35  1  0
  3 36  1  0
  4 37  1  0
  5 38  1  0
  6 39  1  0
  7 40  1  0
 13 41  1  0
 13 42  1  0
 16 43  1  0
 16 44  1  0
 17 45  1  0
 17 46  1  0
 18 47  1  0
 18 48  1  0
 19 49  1  0
 19 50  1  0
 20 51  1  0
 20 52  1  0
 22 53  1  0
 22 54  1  0
 22 55  1  0
 23 56  1  0
 23 57  1  0
 23 58  1  0
 24 59  1  0
 24 60  1  0
 25 61  1  0
 25 62  1  0
 26 63  1  6
 27 64  1  1
 28 65  1  0
 29 66  1  0
 29 67  1  0
 31 68  1  0
M  CHG  1  29   1
M  END
>  <OMEGA_C>  (132) 
V/oIQdS48kCmh5TBCnQBQZInA0Gl7Z3BLs70QIww40AM2ozBjH25QGnb+0Dk3JfBlhDOQB46Tz8j
T6zB+9eTQN1XIb8dLKbBJWvWQJSLzr9ipKzBBZHWQK8vBUFtnZ/BagHIQGpk6EBiVI7Bm3ykQC1O
KD/fDajBoCbnQEC4pr77fa7BGLCsQKfX4b+OiKjBylbJQOcSA0GR8rLBJhjGQI5lDkE2i6nBfmbY
QKbCuz+H34/BxdyqQPpWAkFAuGLBSaCaQHmBDUGHD3fBvLXLQODA4UAVMmjBKCWGQLQ0+kBUCoPB
6j+5QPwdwUBtRnjBVEmmQOHC1kBRYYbB4zuwQDr3I0F8O6nBwJnfQOq51D73NofBHgSLQC167z/R
x6TBIHqjQOFYkUBBno/B/F6jQFfkKEB6AJzBKB6IQJZ2cUDPjpfB6rOuQLVh3T9UIpPBw96LQPYf
t0DkEYzBFkf3QP+3+D8qlZTBfmx2QOGClEDQCKDBjLQHQRzWNr6+RbLBRJ2cQIbjP8ANuabBr/kZ
QeGQ70BMMJPBLJ4MQW8VCUGi0aPBDk4AQScy00C0yIXB0o6XQPSe/0BqNJnB2ZXaQHj45T+h4q3B
7xRoQPb/Pr+K66LB/pTpQL4ZH8ChX67B7Sq8QOKSCUGSPrrBtA7ZQPRe50BXCLPBnQK6QOlGDkGM
PFjBKZiPQPX99UBEW1rBD7eCQPamGUEsq3LBXqe1QMdDFUHzPX/BUzfoQMnZ8ECCPW/BLsLUQFjf
0EDdbVnBPLJVQAs560Cp333Buph1QJJiBUG2RIrBh/zSQFUuq0AQKX3B27KfQEvgrkCkUHDBIu2l
QERpKEEEWbHBsimUQNAfI0GG8KPBXrTGQE4PMEElLqbBvQoBQc9JYj65YIbBmcbSQH5LSD9qIH/B
jh/PQDTmA79EdYnBnmCGQECgIUD2wavBFlhXQMTVxj9Er6HB7cOqQDK9eUBEsojBbH7BQC5Jm0Az
fJPB8bXAQMf1Q0BPfp/B2yxYQNemVkAhbJPB3OGWQCERoz+HOo/B6OpoQOuUrUBjKofBH0N+QEZI
xUCtf5LB0zdUQNMPhUCD/aTB/qvQQILqB0GDjJ/BVP38QIg+B0EIn53B9yy0QNDL/UCGEpjBCC3w
QEC15kC6KY3BX4vJQDQSKT9BiazBDJCQQD0/NL+eyaTBFu3OQFjP4r++0azBPHgGQRoR+kB3UZTB
3tDDQJCt6UC5p47BFLehQLe8Dz/FSKfBvzXgQLecAb80P6/B8hCnQG5U779Gm6fBD4smQS4b4UDI
CorBtWkdQWqw/EBOZpHBdKDaQBrVuj8K+4/BNpOtQO6f/0DH+mDBVOWdQMZaDEEto3TBHNLMQFxN
3EAYpWfBaZOGQL6g+kBrI4LBJi25QJLDvkAp4HjB8Y+kQPzf1kCiTobBZuMqQcdTEEEC8pXBjbzi
QIxUzT5paofBjwOKQECK5z8nCKTBT7miQM6ekUAGh4/BojSkQM9zJ0AA1pvBpkqJQMlxckCiz5fB
tIewQJ5s4D+yvpLBekeKQFxxt0ASEozBuuz4QAwz9T/CCpXBMmZ/QGodlUB2hqDBQ0kDQYCq0r7Q
LbTBpXOWQDZRRcDBRqXBR4bEQN9SD0FhvabBJHAJQYeDDkHQO6PB/SCSQORE/0BmgpnBs3v8QMAx
1UA4YYbBCpzWQEK20D/VeK7BXVpkQCtOR7/+tqDByz3gQBi7KsCa9K7Bv/82QURs5UD3oofBzDYd
QW9Cx0BptIbBvtS9QMDaCkHd8VXB++uRQD4U8UDo31jBpsaHQPACGUEIa2/BRIS5QOaeE0GkxnzB
CgHqQGQi60AaHW7ByQLVQEsCyUBQgVnB2o1WQLbV60BE/HvBnsh1QAO3BkH6+ojBaZ7SQLitqUDF
8H7BCBugQGJTq0DJP3HBqmQ7QW7hDkEC+pLBKt8qQVNcD0Fou57BZi4kQVHNH0EVbpPBaZkCQYTf
Oz6o/IbB457XQM5YRj9LPX/BGznRQLidBL+vd4nBhFCEQBuCG0CfJ6vBZ1lWQNRuwz96cKDBStuo
QHeoeUATmIjBz1vBQN7nm0AwBJPBwhbBQNVyQEAUx5/BLnNXQDzOWUBlKZTBxyeZQGmDrT+tTY7B
J0VlQJDPrUBjP4fBHLB7QM2RxUBsipLBemlfQEEChkAyxaXBOd4IQRnd8EDPz5TBWEQBQaPTA0GV
vZ3BgdL0QO354EDPH43B65G5QL1l/0B4M5fBrGnNQAvzRT8qT6zBNrySQLLEJr8YOKbBVBLVQDx8
0781razBEUTWQOZ2B0En6Z7BmzHIQGu56EBQJ47BQcSjQGDZIT9vEajBISrmQFisvL5Eg67BAUar
QL9l5b/SlajBQbGnQBY/IkEMkqfBoBLFQDnoEUGygKjBcnTYQHEdvT8l5o/BWdqsQDokAkHquWLB
42ibQIA0DUHf33bB1B7NQCTy4EDwhGjBv0eGQFVL+UC6v4LBKqK5QM5ZwEBXUHjBWIOmQGJF1kDn
U4bBxy3RQARKCUGeZLPBpFfgQBNZwz4ApIfBN42KQKsq7T+7z6TBNOCjQCFRkUDLz4/BISqjQILt
J0A7F5zBAy+IQJXrcEDMo5fBALWuQDI62z+EQJPBKz+MQOP9tkBPL4zBXQ33QCFBAUDwQJTBQCB2
QFsAlEByJKDBezgHQTNbbb7JTrLBVM+aQHNpQcBF0abBp9QZQWyG60As2JPBDlcMQfvCCUE2rKPB
8FQAQcrHzkDUZobBvbCXQNVyAkEDNpjB2z3aQGzr4D/s263BxrxlQHlZQr/z/KLBCALoQK/iIcC1
Z67BiiWZQKL7KEG0pa7B9jafQGBQKEFhw5/B89i8QLweDkFqnFjBSwmSQI/29UCv2lnBB6KDQOVQ
GUHtNXLBTuW1QNj8FEFNd3/BS3DpQKK170DU62/BDa/WQD4Y0EBZ01nB7IRXQDP+6UCm0HzBwnlz
QO/PBEHf4onBmdHSQDLnqUC3VX3BuACgQPanrkD0HHDBtZrBQGnsEkHdpLnBWB30QMcdCkHzYrTB
E6LGQOEa8UBaErTBFH0BQVC6ZD7RtYbBpYPSQPX5Lj+K1X/BZDbRQMF7Db+YVorBbuSFQB03IEDD
z6vBKW1WQHlpxT/XqqHBP7erQLXceUAg6YjB0ZbBQPtqm0ALzJPBgHPAQH2xQkBgpZ/BNIpYQEWD
VkBbapPBwA2XQCExnj9aco/BBkVpQPI+rUDDXYfBno1/QA2HxUAEmJLBDoNTQJ9whEAUCKXB

>  <OMEGA_E>  (132) 
2IURPqQzlD5Q5Qk+

>  <OMEGA_NBR>  (132) 
    233448

$$$$
50214054
     RDKit          3D

 67 69  0  0  1  0  0  0  0  0999 V2000
    8.5637    7.6159  -18.5869 C   0  0  0  0  0  0  0  0  0  0  0  0
    7.6554    7.1359  -17.6243 C   0  0  0  0  0  0  0  0  0  0  0  0
    8.0954    8.1197  -19.8123 C   0  0  0  0  0  0  0  0  0  0  0  0
    5.8008    7.7128  -19.0960 C   0  0  0  0  0  0  0  0  0  0  0  0
    4.5897   -0.7048  -20.7415 C   0  0  0  0  0  0  0  0  0  0  0  0
    6.4149    0.7297  -21.5049 C   0  0  0  0  0  0  0  0  0  0  0  0
    6.6666   -1.6942  -21.5522 C   0  0  0  0  0  0  0  0  0  0  0  0
    6.2557    7.2119  -17.8507 C   0  0  0  0  0  0  0  0  0  0  0  0
    6.7141    8.1219  -20.0872 C   0  0  0  0  0  0  0  0  0  0  0  0
    5.1152    0.5816  -20.9728 C   0  0  0  0  0  0  0  0  0  0  0  0
    5.3619   -1.8413  -21.0393 C   0  0  0  0  0  0  0  0  0  0  0  0
    7.1943   -0.4077  -21.7806 C   0  0  0  0  0  0  0  0  0  0  0  0
    6.7552    1.4396  -17.9420 C   0  0  0  0  0  0  0  0  0  0  0  0
    5.3284    8.0846  -14.1809 C   0  0  0  0  0  0  0  0  0  0  0  0
    4.8586    8.8082  -15.4523 C   0  0  0  0  0  0  0  0  0  0  0  0
    6.3647    7.0052  -14.5209 C   0  0  0  0  0  0  0  0  0  0  0  0
    4.2245    7.8091  -16.4246 C   0  0  0  0  0  0  0  0  0  0  0  0
    5.8113    6.0011  -15.5541 C   0  0  0  0  0  0  0  0  0  0  0  0
    5.2117    6.6838  -16.8326 C   0  0  0  0  0  0  0  0  0  0  0  0
    6.9954    0.3692  -16.8815 C   0  0  0  0  0  0  0  0  0  0  0  0
    6.1534   10.1039  -21.4948 C   0  0  0  0  0  0  0  0  0  0  0  0
    6.2112    8.5741  -21.4409 C   0  0  0  0  0  0  0  0  0  0  0  0
    4.3223    1.7979  -20.5648 C   0  0  0  0  0  0  0  0  0  0  0  0
    5.0981    4.4900  -17.9417 C   0  0  0  0  0  0  0  0  0  0  0  0
    5.0914    2.5744  -19.4789 C   0  0  1  0  0  0  0  0  0  0  0  0
    4.2434    3.7149  -18.9295 C   0  0  2  0  0  0  0  0  0  0  0  0
    5.4522    1.6687  -18.3697 N   0  0  0  0  0  0  0  0  0  0  0  0
    4.3719    5.6885  -17.5208 N   0  0  0  0  0  0  0  0  0  0  0  0
    7.7146    1.9696  -18.4925 O   0  0  0  0  0  0  0  0  0  0  0  0
    3.8453    4.5763  -19.9963 O   0  0  0  0  0  0  0  0  0  0  0  0
    4.8544   -3.0741  -20.8185 F   0  0  0  0  0  0  0  0  0  0  0  0
    8.4524   -0.2643  -22.2541 F   0  0  0  0  0  0  0  0  0  0  0  0
    9.6241    7.5970  -18.3828 H   0  0  0  0  0  0  0  0  0  0  0  0
    8.0264    6.7061  -16.7057 H   0  0  0  0  0  0  0  0  0  0  0  0
    8.7930    8.5042  -20.5416 H   0  0  0  0  0  0  0  0  0  0  0  0
    4.7402    7.7818  -19.2874 H   0  0  0  0  0  0  0  0  0  0  0  0
    3.5951   -0.8178  -20.3359 H   0  0  0  0  0  0  0  0  0  0  0  0
    6.8100    1.7158  -21.6998 H   0  0  0  0  0  0  0  0  0  0  0  0
    7.2623   -2.5683  -21.7703 H   0  0  0  0  0  0  0  0  0  0  0  0
    5.7812    8.8164  -13.4958 H   0  0  0  0  0  0  0  0  0  0  0  0
    4.4626    7.6128  -13.6934 H   0  0  0  0  0  0  0  0  0  0  0  0
    4.1160    9.5733  -15.1817 H   0  0  0  0  0  0  0  0  0  0  0  0
    5.7211    9.2893  -15.9366 H   0  0  0  0  0  0  0  0  0  0  0  0
    7.2619    7.4880  -14.9356 H   0  0  0  0  0  0  0  0  0  0  0  0
    6.6318    6.4629  -13.6019 H   0  0  0  0  0  0  0  0  0  0  0  0
    3.3470    7.3534  -15.9427 H   0  0  0  0  0  0  0  0  0  0  0  0
    3.9073    8.3478  -17.3297 H   0  0  0  0  0  0  0  0  0  0  0  0
    6.6300    5.3362  -15.8663 H   0  0  0  0  0  0  0  0  0  0  0  0
    5.0199    5.4075  -15.0731 H   0  0  0  0  0  0  0  0  0  0  0  0
    8.0770    0.2152  -16.7536 H   0  0  0  0  0  0  0  0  0  0  0  0
    6.5560    0.6941  -15.9268 H   0  0  0  0  0  0  0  0  0  0  0  0
    6.5260   -0.5735  -17.1993 H   0  0  0  0  0  0  0  0  0  0  0  0
    5.7871   10.4230  -22.4817 H   0  0  0  0  0  0  0  0  0  0  0  0
    5.4719   10.4727  -20.7141 H   0  0  0  0  0  0  0  0  0  0  0  0
    7.1598   10.5149  -21.3270 H   0  0  0  0  0  0  0  0  0  0  0  0
    6.8921    8.2076  -22.2233 H   0  0  0  0  0  0  0  0  0  0  0  0
    5.2042    8.1654  -21.6104 H   0  0  0  0  0  0  0  0  0  0  0  0
    4.1698    2.4463  -21.4402 H   0  0  0  0  0  0  0  0  0  0  0  0
    3.3461    1.4826  -20.1677 H   0  0  0  0  0  0  0  0  0  0  0  0
    5.3107    3.8607  -17.0649 H   0  0  0  0  0  0  0  0  0  0  0  0
    6.0439    4.7815  -18.4218 H   0  0  0  0  0  0  0  0  0  0  0  0
    6.0058    2.9925  -19.9250 H   0  0  0  0  0  0  0  0  0  0  0  0
    3.3652    3.3021  -18.4113 H   0  0  0  0  0  0  0  0  0  0  0  0
    4.7127    1.1901  -17.8963 H   0  0  0  0  0  0  0  0  0  0  0  0
    3.6393    5.4109  -16.8993 H   0  0  0  0  0  0  0  0  0  0  0  0
    3.9756    6.1179  -18.3323 H   0  0  0  0  0  0  0  0  0  0  0  0
    3.3108    4.0906  -20.6135 H   0  0  0  0  0  0  0  0  0  0  0  0
  1  2  2  0
  1  3  1  0
  2  8  1  0
  3  9  2  0
  4  8  2  0
  4  9  1  0
  5 10  2  0
  5 11  1  0
  6 10  1  0
  6 12  2  0
  7 11  2  0
  7 12  1  0
  8 19  1  0
  9 22  1  0
 10 23  1  0
 11 31  1  0
 12 32  1  0
 13 20  1  0
 13 27  1  0
 13 29  2  0
 14 15  1  0
 14 16  1  0
 15 17  1  0
 16 18  1  0
 17 19  1  0
 18 19  1  0
 19 28  1  0
 21 22  1  0
 23 25  1  0
 24 26  1  0
 24 28  1  0
 25 26  1  0
 25 27  1  0
 26 30  1  0
  1 33  1  0
  2 34  1  0
  3 35  1  0
  4 36  1  0
  5 37  1  0
  6 38  1  0
  7 39  1  0
 14 40  1  0
 14 41  1  0
 15 42  1  0
 15 43  1  0
 16 44  1  0
 16 45  1  0
 17 46  1  0
 17 47  1  0
 18 48  1  0
 18 49  1  0
 20 50  1  0
 20 51  1  0
 20 52  1  0
 21 53  1  0
 21 54  1  0
 21 55  1  0
 22 56  1  0
 22 57  1  0
 23 58  1  0
 23 59  1  0
 24 60  1  0
 24 61  1  0
 25 62  1  6
 26 63  1  1
 27 64  1  0
 28 65  1  0
 28 66  1  0
 30 67  1  0
M  CHG  1  28   1
M  END
>  <OMEGA_C>  (133) 
7QQJQca180D/sZTBuvj0QFNZ5ECq/ozBr4YBQUzqAUGxf57BiKC5QHDP9kCFxJjB2t6SQGptNL+O
7qXB6kbNQPzNOj/zCazBwlTVQC/d2L/taqzB8C7IQO7H5kBHzo7BwtnWQE/zAUGEsqDBjq+jQFDi
FD9cyKfBkpSrQFmw67+IUKjBaDfmQOHB0L6WPq7BmirYQBJEuD8wiY/BpIKqQKdaAUEI5WLBQHmb
QFruDEGmPHfB2qvLQJgq4ECfVWjBMi+HQGLk+UCqZYPB6vW5QD4JwECz3XjBVsamQPXh1UAhqYbB
NtrfQMkMvT5NDYfBtOjEQI6pIUFj9avBiMLGQFcvCUEDh6vB4k+KQLQh5j/PhKTBeiOjQMqtj0Cf
iI/B9OyiQHvCJEDO1JvBGsqHQDDAbUCKb5fBGHiuQBmZ1T8d9ZLBVOaLQGoItkCTKozBNt72QEAa
/D+98JPBzRh2QG9xkkBV+J/BfFebQK6+RMBbjKbB7TwHQThVh75fCLLBN/wZQVQa80AKEJPBP2wA
QR+Y1kA7pYXBKbAMQV0RCEFBVaTBj6+XQE0E+UCBTJrB1RZmQMhbUb/4r6LBJ+vZQHqe2z82ma3B
02ToQOFeJMCoKa7B6P+4QBoQDUGZ7lfBqs2OQMyb80A1GFvBfLaDQGIsGUFe6HLBLxO3QCyhFEEw
/H7Bw2HoQFqd70Au+G7BUjfUQAXQzkBPoVnBGTVWQFBP60ArFX/B+hB6QJ2QBUFMo4rBQynUQOrB
qkBa3H3BPqOgQB0KrUCBK3HBeTsBQXVkXD5tB4bB38rRQMOtMT8r1H7Bt9TQQKjNEr8cmInB2y+5
QG3EJkGa2rPBhRmvQACQJ0F7tqXBcB3lQPg8KEGlnarBU4zcQE1SA0FOybHBaIimQFWlAkEk4qzB
9m6FQOmQHECUhavB8iZWQE/EvT9tV6HBKfGpQKYVd0DjhIjBW2fBQNUBmUDmX5PB5S/AQImFP0Bc
Zp/BP2BXQO9VU0BlSpPBZs6WQAJVmD+eK4/BMOpoQOwlrUDEMYfB83B+QC3Gw0CgqJLBKORTQIXm
gkBc6KTByUMJQXgj8kCv0JTBQTT1QGmX40AFE43BB+kBQdIsAUGcop7BJC26QEDh9kCP3JjBjnzN
QBXdOj/286vBXMmSQMG2Mr8N7KXBJxvVQEn72L9va6zB93PIQK605kAQ447BZ57XQOOsAUEFz6DB
+NKjQJz4FT83u6fBLjvmQEcb0r70Mq7BzUurQLMo67/6VajBMxLYQI45tj8ciI/BdmWqQLW+AUGP
N2PBroubQK41DUEPqHfBF3bLQP3B4ECYgGjBIj2HQNJO+kDEkIPBr6y5QEx8wEB47njB7smmQE0o
1kAswIbB4M3fQFEcsj6wFofBXUXDQN/eIUHQYavBl7jHQJt1CUFXjqvBbICKQCrO5j9If6TB8/+i
QB61j0DNfY/Bt/GiQH+/JEBlwpvBGsqHQMjkbUCgbJfBZFauQM8j1T+b4pLBleSLQBRKtkCEPIzB
/cH2QAHf+j+i5JPBUfd2QDZ+kkBlAaDBR0EHQe3eir6T/LHB57maQMdPRMAipqbBKzoaQefU8ED2
MpPBTW0AQZbw1UDKsIXBCi4NQY4BB0EPgKTBBkeYQKGu+UD7Y5rB4lPaQIeB2z9kdK3B495lQDWp
Tr9Jr6LBoAboQLCUJMCVL67BV+q4QF+ADUHCUFjB9JiOQB6Y9ECSZlvBZ9eDQO+EGUEqcXPBET23
QKTPFEE5a3/BU0DoQLoB8EChKm/BdOTTQM+Tz0AWu1nBbi9WQAXj60BCZ3/BhmB6QMawBUHe1orB
uMXTQOj1qkCRy33B2CugQPTFrUDRNXHBUzYBQfW9ST5vDYbB/6LRQCZvKj+/437BH+rQQKw9GL+I
ronBLbW3QHR3J0FnNbPBKlGsQCyJJkGvIaXBn5jiQJ8jKUGqranBM6reQF3PBEHRz7HBvmKoQOo0
AkHXQ63BvOSFQJgLHUCZf6vBjUhWQEDFvj9pYaHBd2GpQGRad0DpbojBT3vBQOO8mEDrRJPB9U7A
QGxtP0DaSJ/BTQFXQL2/U0DkVJPBUZqWQED3mD/YDo/BXIxoQDSwrUAZSYfBQOp+QHXlw0CYxpLB
fepUQFz9gkCv96TBk8TdQGZ0B0FU357B5b2+QPD2/UBt4JfBIsAEQfUABkF7S5zBi033QF/P5UAm
5IvBoseKQE5XOz0wWbLBB47EQD5N4b3SS6XB8X7IQK/+sb9Y1LXBl/rKQJrL6UCxLI7Bii8LQQMW
90Dl1ZLBxdycQOxC5T42fajBY5OgQMVBXr9FALnBfWraQPY9gb9A9qvBu1PaQLD85z+8/4zB/pir
QJmGAUH96WHBA6icQG1yDUEDJXbBkrfLQNuO30CFkmfBT0aIQAN3+0AEHIPB/3C5QOh0wECNrnjB
aOOnQPJx10DypIbBxe3nQIJpZz8qxIPBLiQpQWvcDUG1BYnB8LgiQV3E9ECp2o/B7P6DQIbrtD+s
UaHBNAKmQCAakkAlpZDBm1mhQOQaGECpy5rByKSIQModaUBoMpfBd1uxQDt21D+fPpHBPO+NQMEO
uEDu4ozB2pL0QKuEJEDJEJHBB69zQB68i0CFVaDBmiuPQBR0n780cMLBo1EAQYQiwb9x0KjBUPbT
QBAUD0FzOqbBqD+dQB0tAEHo65nB6JcQQc7lDEHxjqHBIa8AQXhN1UDPuoTBdkVYQOVh4T49zLTB
HyHSQL0EJD50pp3Bv07ZQKNCBcAC97rBSfy6QMH7DEEC/lbBDamPQMWq9ECF+1nBIeSEQKyeGUEk
oXHBl1a4QC1GFUF3sH3BRRnpQN5V7kBW2G3BpUfTQIdNzUDNAVnB+1NYQDyO7EBysX7BM1F8QMu5
BkERPYrBJRLTQNBdqkDTiH3BDhufQPsyrkBCZnHBXPgEQVNLiT+t8YHBI4jUQJ39kD8xT3nBThfj
QIjfFr5hDobB5TQ6QXbADEE68YbBh0cmQY2hHEHBlo3Bl4QfQcodDkHIp4HB9aYlQdtO10D/Q4vB
5GksQWJW9ED5MpfBIG1dQA0wAUBcY6bBYmhhQAIQUz8FqpvBKWqyQBVzgEAqsYnB9ODAQPOfnEAz
r5XBX2m8QEmcK0AU3p/BQvlaQPBpVUA7K5LBt3adQCMDgz83l43B8dlrQMfvrUDxPYjBYACCQJQY
x0BxSZPBADxPQOjjc0Dle6TB

>  <OMEGA_E>  (133) 
wMESPjCBFj6knSM/

>  <OMEGA_NBR>  (133) 
    236965

$$$$
50214050
     RDKit          3D

 67 69  0  0  1  0  0  0  0  0999 V2000
    8.5468    7.5000  -18.5910 C   0  0  0  0  0  0  0  0  0  0  0  0
    7.6437    7.0270  -17.6204 C   0  0  0  0  0  0  0  0  0  0  0  0
    8.0690    8.1452  -19.7444 C   0  0  0  0  0  0  0  0  0  0  0  0
    5.7845    7.8493  -18.9581 C   0  0  0  0  0  0  0  0  0  0  0  0
    6.4242    0.7892  -21.5496 C   0  0  0  0  0  0  0  0  0  0  0  0
    4.5990   -0.6412  -20.7786 C   0  0  0  0  0  0  0  0  0  0  0  0
    6.6691   -1.6359  -21.5995 C   0  0  0  0  0  0  0  0  0  0  0  0
    6.2465    7.2223  -17.7827 C   0  0  0  0  0  0  0  0  0  0  0  0
    5.1263    0.6439  -21.0124 C   0  0  0  0  0  0  0  0  0  0  0  0
    7.1988   -0.3505  -21.8310 C   0  0  0  0  0  0  0  0  0  0  0  0
    5.3666   -1.7796  -21.0802 C   0  0  0  0  0  0  0  0  0  0  0  0
    6.6826    8.3178  -19.9242 C   0  0  0  0  0  0  0  0  0  0  0  0
    6.7696    1.4349  -18.0358 C   0  0  0  0  0  0  0  0  0  0  0  0
    5.4308    8.1310  -14.1689 C   0  0  0  0  0  0  0  0  0  0  0  0
    4.9247    8.8357  -15.4369 C   0  0  0  0  0  0  0  0  0  0  0  0
    6.4130    7.0012  -14.5177 C   0  0  0  0  0  0  0  0  0  0  0  0
    4.2291    7.8214  -16.3499 C   0  0  0  0  0  0  0  0  0  0  0  0
    5.7914    5.9973  -15.5130 C   0  0  0  0  0  0  0  0  0  0  0  0
    5.1972    6.6881  -16.7844 C   0  0  0  0  0  0  0  0  0  0  0  0
    7.0072    0.4128  -16.9277 C   0  0  0  0  0  0  0  0  0  0  0  0
    7.2594   10.2705  -21.9889 C   0  0  0  0  0  0  0  0  0  0  0  0
    4.3350    1.8616  -20.6044 C   0  0  0  0  0  0  0  0  0  0  0  0
    5.0920    4.5333  -17.9598 C   0  0  0  0  0  0  0  0  0  0  0  0
    5.0991    2.6352  -19.5130 C   0  0  1  0  0  0  0  0  0  0  0  0
    4.2454    3.7717  -18.9633 C   0  0  2  0  0  0  0  0  0  0  0  0
    5.4611    1.7257  -18.4062 N   0  0  0  0  0  0  0  0  0  0  0  0
    4.3579    5.7137  -17.5013 N   0  0  0  0  0  0  0  0  0  0  0  0
    7.7224    2.0435  -18.5115 O   0  0  0  0  0  0  0  0  0  0  0  0
    5.9053    8.0360  -22.4182 O   0  0  0  0  0  0  0  0  0  0  0  0
    4.8444    9.8709  -20.9991 O   0  0  0  0  0  0  0  0  0  0  0  0
    3.8606    4.6439  -20.0262 O   0  0  0  0  0  0  0  0  0  0  0  0
    8.4545   -0.2109  -22.3124 F   0  0  0  0  0  0  0  0  0  0  0  0
    4.8561   -3.0109  -20.8577 F   0  0  0  0  0  0  0  0  0  0  0  0
    6.0241    9.0930  -21.4048 S   0  0  0  0  0  0  0  0  0  0  0  0
    9.6091    7.3669  -18.4490 H   0  0  0  0  0  0  0  0  0  0  0  0
    8.0157    6.5123  -16.7468 H   0  0  0  0  0  0  0  0  0  0  0  0
    8.7617    8.5071  -20.4897 H   0  0  0  0  0  0  0  0  0  0  0  0
    4.7228    7.9697  -19.1153 H   0  0  0  0  0  0  0  0  0  0  0  0
    6.8216    1.7745  -21.7442 H   0  0  0  0  0  0  0  0  0  0  0  0
    3.6062   -0.7518  -20.3680 H   0  0  0  0  0  0  0  0  0  0  0  0
    7.2617   -2.5114  -21.8202 H   0  0  0  0  0  0  0  0  0  0  0  0
    5.9412    8.8659  -13.5290 H   0  0  0  0  0  0  0  0  0  0  0  0
    4.5728    7.7065  -13.6271 H   0  0  0  0  0  0  0  0  0  0  0  0
    4.2111    9.6245  -15.1565 H   0  0  0  0  0  0  0  0  0  0  0  0
    5.7758    9.2840  -15.9703 H   0  0  0  0  0  0  0  0  0  0  0  0
    7.3158    7.4390  -14.9687 H   0  0  0  0  0  0  0  0  0  0  0  0
    6.6859    6.4675  -13.5953 H   0  0  0  0  0  0  0  0  0  0  0  0
    3.3797    7.3780  -15.8096 H   0  0  0  0  0  0  0  0  0  0  0  0
    3.8619    8.3412  -17.2471 H   0  0  0  0  0  0  0  0  0  0  0  0
    6.5712    5.2894  -15.8304 H   0  0  0  0  0  0  0  0  0  0  0  0
    4.9855    5.4501  -15.0020 H   0  0  0  0  0  0  0  0  0  0  0  0
    8.0816    0.3647  -16.6967 H   0  0  0  0  0  0  0  0  0  0  0  0
    6.4517    0.7129  -16.0269 H   0  0  0  0  0  0  0  0  0  0  0  0
    6.6592   -0.5762  -17.2605 H   0  0  0  0  0  0  0  0  0  0  0  0
    6.8914   10.7679  -22.8984 H   0  0  0  0  0  0  0  0  0  0  0  0
    7.4456   11.0235  -21.2090 H   0  0  0  0  0  0  0  0  0  0  0  0
    8.1950    9.7381  -22.2153 H   0  0  0  0  0  0  0  0  0  0  0  0
    4.1883    2.5123  -21.4791 H   0  0  0  0  0  0  0  0  0  0  0  0
    3.3563    1.5475  -20.2128 H   0  0  0  0  0  0  0  0  0  0  0  0
    5.3160    3.8838  -17.1008 H   0  0  0  0  0  0  0  0  0  0  0  0
    6.0320    4.8479  -18.4366 H   0  0  0  0  0  0  0  0  0  0  0  0
    6.0133    3.0580  -19.9552 H   0  0  0  0  0  0  0  0  0  0  0  0
    3.3611    3.3554  -18.4586 H   0  0  0  0  0  0  0  0  0  0  0  0
    4.7203    1.2931  -17.8924 H   0  0  0  0  0  0  0  0  0  0  0  0
    3.6279    5.4133  -16.8875 H   0  0  0  0  0  0  0  0  0  0  0  0
    3.9582    6.1666  -18.2982 H   0  0  0  0  0  0  0  0  0  0  0  0
    3.3309    4.1654  -20.6531 H   0  0  0  0  0  0  0  0  0  0  0  0
  1  2  2  0
  1  3  1  0
  2  8  1  0
  3 12  2  0
  4  8  2  0
  4 12  1  0
  5  9  2  0
  5 10  1  0
  6  9  1  0
  6 11  2  0
  7 10  2  0
  7 11  1  0
  8 19  1  0
  9 22  1  0
 10 32  1  0
 11 33  1  0
 12 34  1  0
 13 20  1  0
 13 26  1  0
 13 28  2  0
 14 15  1  0
 14 16  1  0
 15 17  1  0
 16 18  1  0
 17 19  1  0
 18 19  1  0
 19 27  1  0
 21 34  1  0
 22 24  1  0
 23 25  1  0
 23 27  1  0
 24 25  1  0
 24 26  1  0
 25 31  1  0
 29 34  2  0
 30 34  2  0
  1 35  1  0
  2 36  1  0
  3 37  1  0
  4 38  1  0
  5 39  1  0
  6 40  1  0
  7 41  1  0
 14 42  1  0
 14 43  1  0
 15 44  1  0
 15 45  1  0
 16 46  1  0
 16 47  1  0
 17 48  1  0
 17 49  1  0
 18 50  1  0
 18 51  1  0
 20 52  1  0
 20 53  1  0
 20 54  1  0
 21 55  1  0
 21 56  1  0
 21 57  1  0
 22 58  1  0
 22 59  1  0
 23 60  1  0
 23 61  1  0
 24 62  1  6
 25 63  1  1
 26 64  1  0
 27 65  1  0
 27 66  1  0
 31 67  1  0
M  CHG  1  27   1
M  END
>  <OMEGA_C>  (134) 
jr8IQVoA8EBkupTB9Zj0QDTd4ECB9ozBihoBQZdSAkFx9J3B2xq5QFAt+0BIqpfBT5PNQN0LSj+j
ZazB3yqTQJ8oJL+AOqbBlmnVQBRk0b/Sy6zBFOPHQCId50DnQo7BVAqkQI7YJD9YGajBxVzmQOZ4
s77ypa7B4bqrQIHL479ApKjBd9fVQJQVBUHGZJ/BQKDYQAaqtz85SZDBLcmtQKYYAkHFs2LBv5ad
QClfDUGW/XbBrzfNQLQJ4EBkSGjBwVSHQIBI+kCZzILBHVO5QKvpv0A1NXjBi0+mQMIE1kCIRobB
xzrgQLBY0z7pa4fBLU3oQMdTJEFB6a/BY7iKQFhK7j/e1aTBcfGiQKEQkUDDrY/B8SujQMamKECZ
GpzBYdqHQK9jcUDAtJfBO8GuQN3k3D/0P5PBQHSLQHPWtkC0AozBgR33QG/IAkB0F5TBCvi8QJ6T
AEF8WLPBFgWbQGTvHUEQ/qfBhBR3QCmblEDBNaDBmEUHQc3tV761f7LBG2WbQP2yQMB53KbBo8XA
QNN8EUH8PKvByL4ZQYG960CUl5PBRkAAQR1l0EBu+YXBGTAMQQQdCEHY6qPBcyGXQPcH/0Ai7JjB
nUraQEwh4z8Y9K3BuctmQIh3QL/E8aLB4V/oQPG6IMC7j67BoR6+QLXaDUHsdljB+lOSQFib9kDE
CFrBCsGGQP79GUESgXLBfdO4QHGLFEF5hn/BxhrqQHoM7kCmf2/B4/LVQJ31zkB7hlnBpExYQIwY
7EAe9HzBqil3QF11BUEV+onBl0fSQMdCqUBmSX3BAImfQAJnrkBjCHDBIk4BQRO9uj7ckoXBKHTO
QBeANj8qN4DBVhjVQHCDE7+UFYrBWIbcQDhJLEHYL7fBK0LuQGNgMEENrKnBwR4DQT3PG0H9uLHB
SQaGQFXKIEAx1avB+8xWQIoUxj/Ts6HB2RyqQDOQeEBqzojBOQbBQFsim0A0fpPB5WzAQAK2Q0Ap
pJ/BAhxXQG6/VkAyq5PBWQyXQCmFpT+iI4/BDy9oQFs5rUCnGYfBjFJ9QPRUxUC4YpLB2y1VQEZL
hUCPOaXBSJoJQSnF8EDpcJTBKVD1QMLs30BhJI3BqrACQdwbBUH9Bp3BHXS7QIpjAEEDQZfBuRLN
QN7iST9ScqzBMyCTQFCmJ7/nM6bBRHzVQBUw0b9f2KzB2OrIQIaL6EDqT47ByamjQEo8Ij9oGKjB
ThXmQBPCsL4suq7B7e6rQJzK5L92oajBMm/ZQB4xCUFqZZ7BvbnYQF7JtD8kT5DBSpmsQFylAUHP
12LBpISbQI/3DEF+8HbBf+bMQOEY4ECcvmjBNJmGQPRU+UBk+YLB81u5QLzqv0AItXjBDrqmQOk3
1kB+j4bBhMPgQA8Kvj6onYfB2rS7QAN7BUH3+rPB+UGKQOob7D97vKTBapSjQHvqkEDyyY/BW9+i
QIskJ0BF/5vB/LqHQKmZb0AWgJfBl72uQP082T/yM5PBKmaMQC46t0AqcYzBN/32QD43AkAOFpTB
6ROeQIyiIkEdn6bBtODqQCHxJUEjX63BN/5zQOMmk0CW+5/BfBIHQbbHSL7dobLBlfqbQKlrQcDJ
y6bBM//GQCW1GEFqoanB0m8aQY4Y6kCQbpPB7R4AQTg/zED9lYbBfzAOQZ+8C0FOj6LBk7OZQC7q
AkGbnZjBRYXZQNxr4z9cBa7BxNtmQOzNRb8F5KLBs53oQEhaIMAdoq7BD3S8QJV8DUE+g1jBGqCR
QDDH9EC8K1rBY62DQK8FGUGZNnLBqy62QN7bFEFHSn/BxEPpQAn57kCtC3DBAGPWQL3xzkA4IFrB
CGpXQDkD6kBKkH3BgTV1QAcSBUHVGYrBtWjSQGlHqUAMr33Bhm2fQBhjrkDWp3DBz5oBQQ/gpT75
14XBvyzPQLnZJj/MVIDBF7HVQLT1HL9gZ4rBcC2wQADYDUG6KrvBvwzZQA8k+UCP7LXBFv+iQIeM
9EAhLLHBjVOFQH8RIEBcsKvB2BdWQKMawz9mk6HBE+6qQNYtekDpwIjB3IvBQCEwmkAXyJPB7wfA
QA5mQkBbj5/BgkVYQDvFVED9L5PBijCXQKDkoD+DFo/BF09oQLg/rkBQuofB59KAQPihxUAk+ZLB
mSBRQB9pg0DAzqTBK4sJQZ4l8UCDZZTBkCT1QPRY4EB5G43BHq8CQRZvBUFx8JzBz2+7QOsAAUE8
G5fBdwqTQK3pKr8GNqbBuNXMQGG2SD88bKzBVWbVQMea0b+L8qzBcMvIQOhN6UDUO47Bu3yjQIKa
Hz+PDKjB5+OrQOD65b+it6jBSublQA8esb5Qxa7Bz3vZQOG8CUHGQJ7BB4PYQOIKuT/r6o/BkzGs
QEMLAkEM5GLB1daaQAo2DUHPA3fBdKjMQBb/4EDqvWjBzyOGQEp++UAY+ILB/jS5QBiRwEA0nHjB
MJOmQNye1kAsiobBvIHgQHEdqD4w2YfBqRq8QFvcBUHC1bPBNguKQJV06j+CpKTBpS6kQNRbkUAP
5o/Br/SiQM2gJkAm+pvBrxeIQLWgb0CyfZfB67OuQIFc2D9SLJPBC5SMQHBTt0ClcIzBCQj3QD1L
AEBrK5TBbyyeQKYXI0HhkKbB+hrrQN1jJkGfP63BgvdzQDLWkkC4/5/BywScQBMqQsD676bBLPYG
QQefQr7DrrLBLy3HQLwtGUEnhKnB3FsaQZM56kDAaZPBzv7/QBZvzEB5lobBSzMOQdn/C0FEe6LB
vLiZQIrDA0EQaZjBK8hmQLI4Sr+y4aLBGjHZQKQV4z949q3Bk5HoQOJjIMDGyq7Bs/y7QF/8DUFm
p1jBVVyRQLOF9UDHIVrBm86CQFwuGUGEUHLBxVS1QDovFUHJbH/B2+roQPfx70BlG3DBOUrWQKQH
0EC1F1rBgN5WQHD96UBbfX3BqdZzQGIJBUH1GorByU7SQOfrqUCJg33BmUyfQA0Ur0BrhHDBP5QB
QXufMD6G7obBj5bSQC9yGz9dFIDBCofRQOSwGb8Ct4rBfKawQLwnDkGIDLvBkYHZQL/r+UDou7XB
dWSjQP5P9UDHBrHBcbqEQDMaH0A4l6vBXAZWQBwFwT8IZaHBrV+sQNlIe0D55ojBULHBQD0dm0CG
B5TBMCXAQGJUQUDilp/B7VRZQCsyVUDxEpPBkxqXQF/tmz9HT4/BwCppQCjhrUD+s4fBaKKAQN+7
xUDh7ZLBPdVQQDzjgkAKwKTBoEkKQRAV8kAhjpPBK+z1QMcl4kARV4zB18cDQXJWA0Gs/JzBkO28
QFMR+0AlDpjB7qqTQAo+Kb8nRabBdKTMQGgXUj+ggKzB4xLWQO5czL/zR63Bf4PJQGt950DAVo7B
05KjQPNkIz8gBajBfcysQGJ5478d96jBSATmQODSl74WB6/B37DbQCJsBUFoSp/B7HbZQHYAuD+9
UpDBTNepQEecAUGUr2LBVhObQKo9DUFoD3fBs4TKQIQn4EA9CGjBZfeGQA+t+kDXYoPBrza4QL1D
wECrhHjBlJamQCOP1kBSl4bBVAPiQAC11D7+g4fBbfCdQDHTIkFCbajB8LeJQNln6j90fKTB6/Ki
QD/RkECIn4/BiqqiQH5JJ0BB55vBXVOHQGxib0AOYpfB/kmvQBeo2j+FH5PBi/6LQNN3t0DWZYzB
omj3QBxCBEAWMJTBsHTtQCOmH0EWW6/B+UO6QDR1AEFDhLLBdgtzQFoNk0B+3J/B9mWdQIZzQcBh
T6fBEOMGQXYO973TDbPBgaLKQGGwEUH3pKvBRR8bQYN07kBy1JHBISQAQb6q0UB3M4XB2ZIPQRmk
CUGfdaLB/1ObQCfy/UAB8pnBFHBoQEHBTL8a3aLByIvYQOig6D80/a3Bk37pQFokHcApQK/BAqq4
QMNBDUG4xFfBhe2NQFKS9EDg2lrBKEWDQLN5GUE2xXLBVsu2QEL1FEEdr37Bm3rnQKkY70B5r27B
lsXSQO/BzkCITFnBX1ZVQI0p7EB6On/ByV96QCMEBkEgpIrBZ8TRQB/wqUCDMn3BXvOdQBddrkBN
9HDBPT4CQfLMxT5+wIXBglfQQLuJMz+yQYDBHl3XQNwSFL/bL4rBVGKSQJexKkHDv6/BJAOEQOUu
GUGY76TBJS+oQA0KL0G5oaLB26CDQJ0IH0AGZqvBtiJWQNCzvj9TIaHBzcOpQKU4ekCQiIjBXzLB
QHq3mUAaiZPBO3a/QGDtQkANmp/Bd39XQGolVEBkGpPBnBGYQCCOoT+e7o7B91FnQFnkrkBmqofB
Jo+AQPimxUB5+ZLB2XlQQDFBg0BAtaTBQ18KQW4S8kAyhJPBGgL2QHVK4kDLTYzBGu0DQfQlA0FT
AZ3BgSe9QPd++kDkJ5jBlFnNQMPEUj8Wh6zBTCSUQHrNJb8WRabBS7HWQBxAzL8vFq3Bx57JQH1h
50BlXo7BZB2kQMwrJj8gH6jBvr/mQD7ymL6H6K7BzE6tQHhj4r+s0ajBQAbcQBAWBUGQYZ/B2BTZ
QHxHvj8/94/B+36pQBgeAkEF7GLBc9eaQJCFDUEmcXfB9UfKQFse4UDDCGjBkuyGQKHi+kDFg4PB
ZCu4QIXWwEC3Z3jBQ6GmQNWv1kA/mobB9pnhQGLPwj451YfBe/meQEKMIkHUwajBbUqKQHqi7D/2
r6TBGBWjQLzekEBlno/B4tiiQETWJ0DP+ZvBamOHQHt/b0DdYZfBlSevQBCK2j8mPJPBSQyMQBhl
t0CsWIzBAVT3QPqeA0AVP5TB01ruQLKdHkGusK/BWW+6QO0+/0BDi7LBkn9yQIovk0Cezp/BtFMH
QVq2Bb7V3LLBQNWdQLy7QMDIEqfB4jfLQDIDEUEV1qvBEDIbQbCb7kBevpHB/yQAQWAe0kAhHYXB
gcAPQalsCUG+d6LBXJabQMwX/UBeG5rBh17ZQHuh6D9ZEa7BIDhpQCXTR7+b5aLB4RvqQJhNHcAu
9q7BaTK4QJjjDUEHGVjBnY2NQM2x9UAeEVvBuPOCQCnGGUHOUnPBfZa2QLAwFUEGF3/BgUPnQFD8
70CXtG7BL3TSQJwI0EDpMlnBPy9VQGd67EB4d3/BdXR6QKL3BUFt0orBD9HRQB5+qkB17nzBFued
QPUCr0D3zHDBUCkCQbvsdz7z5obBW4bTQAXUKD8JFYDB1hbTQDTNDr8kporBfpOTQCE6KkERJbDB
TdOEQNcyGUEXLKXBxJCpQJbmLkFSE6PBT+GEQCtbIECGnavB655WQNTbwT8feqHB/w2qQPgvekD4
jIjB5T/BQCDpmUC9jJPBPMW/QEHYQ0A5kZ/BX/dXQCzMU0B0FJPBG9mXQF+Cmz9FbI/B+d1nQL+v
rkAuj4fB30uAQLd9xUBm5pLB6OFPQJhig0DepaTB9cMIQatq8ECDyJTBzpj0QB454UCzCI3B1SQB
Qct/AkGKBZ7B6B65QFJS+0AVx5fBFv2SQLZXHr9SaabBz8XNQK40TD/JkKzBX0LVQKJ80L/kzqzB
O9zHQKdP50COWo7BlhekQCGLKT8UV6jBmnerQGqe4b9ms6jBAHDmQAD9sb6Ztq7Be+zVQLc0BUGG
fp/BYTjYQPBdtj/FR5DBZ++sQAgcA0ERXGPBoO2bQIK8DUFR1XfBXgPNQFBo4kAznGjB5oOGQInf
+UD5CoPBSIm5QAIowUBGGnjB6FWmQOMV1kBDWIbBflnfQLjlzD5raYfBAdjoQFBCJEHYHbDBzRWL
QBps8T96FaXBaaejQA+7kEAdoo/Bo3KjQDCtKEClM5zBI1mIQEQjcUDKrJfBTYmuQGlp2j9DcpPB
2t2LQMA4tkDp74vB3tL2QPMHA0DM4JPB7MC8QNe2AEGYdLPBI4SbQM5NHkHAIKjBVol3QFLDlEAx
GaDBwP2aQF9WP8Ah0abBF10HQe8SXr7egrLBzPzAQAqlEUHbXqvBFMMZQZ8+7EAToJPBPD8AQevR
0EDxCIbBOz8MQaZPCEFe+KPBLiaXQC4P/0CiD5nBHDhmQNerOL+KLaPBU7LaQDXL4z90Ja7BwCDo
QEKOIMARf67B7/W8QIBGD0Gpe1nB2eWRQGKF+EDxaFrB2meEQCYbGkGDinPB/ay2QDgiFUHgR4DB
JYvpQFmf8ECdE3DBAT3WQIsy0kAUr1nBVWZXQHRh60B6SH3B/7B0QN/OBEFKTYrBIMPSQJyMqkBu
43zBTfGfQHHDr0C5tm/BIscAQW9Juj4dW4XBocLMQAhqMD80ToDBqtzUQHpbF7/YLYrBxCLdQLY1
LEHEZrfBjRvvQItVMEGs6KnBHEwDQZ2UG0FH7rHBERiHQOoMI0AcC6zBg+RWQHSEyj8EF6LBvv+q
QBupd0Bvy4jByaTBQAcEm0DcdJPBrujAQOrCQ0BvoJ/BelFYQNZGVkDWnJPBKqCWQL5RoD/6j4/B
huFpQLZXrECj7obBWPd8QAxRxEDXSpLBSWdVQG+ahUAbHqXBYqTdQJZAB0Fu657BIYG+QDPN/UAY
6pfBLakEQaLMBUHXTJzBwdH2QK2o5UC+5IvBWLSKQFJ9Sj3VV7LBeXrEQGhq373KSqXBrVHIQLQU
sr+w0bXBIKTKQK+06UDjMY7B2dGcQIDO5j5kfKjBg2+gQMrCXb8b/rjBv0XaQNJggb9G9KvBnfQK
QeYl90C3wZLB+lzaQAon6D96/4zB9NGrQGCgAUHG7GHBeeScQMyEDUGwLXbBv8HLQN2X30AdjmfB
xUGIQC2d+0D6F4PBZkm5QBKEwEAmo3jBba+nQPJ510D7oYbBuvLnQNqQZz+yxIPB1qMsQRpZEkFf
mYfBAgKEQCB2tT9QUaHB/fClQJckkkAOnpDBlmShQPxMGEAiy5rBL6yIQKxKaUDyMpfBl2KxQMfH
1D86PpHBx8SNQNoLuEAZ24zBj6D0QK+SJEAgEJHBU5kpQatJ0EDclYfBZKMzQeUK9kCQ8JjB5f5z
QBLji0CtVqDBlv+OQAgen7+MbcLB2zoAQYCUwb8HzqjBbvomQVJI9EDPC4/BL/TTQHPHDkFoT6bB
5wadQC8pAEEj95nBbJIQQS6ADEFZlqHB22UAQZ3k1EAJw4TB+StYQLQ95D4Ey7TBTRTSQNPaJD4c
pp3BrxPZQEppBcBx87rB01m7QOYVDUEnDlfBqtqPQOwJ9UAr8VnB2kaFQFjEGUHSq3HBw524QCVA
FUFqyH3BIDTpQJQz7kC42W3BRj/TQJJazUC9+VjBD0tYQOvW7EBZmH7BHzV8QMrJBkEoOYrB0dLS
QGpUqkCtgH3Bi+2eQEpdrkBGT3HBdfsEQRJDiT9c8oHBX4/UQLMVkT+eT3nBsxXjQFsLFr6dD4bB
t4Y9QSdhEkFWHoXBOX0pQe5cIEEIr4zBlVYiQQQCE0HDeIDB6oJdQA+EAUBKY6bBNV9hQL5jVD+r
qZvByEuyQIVygEBcqonB29nAQA+8nEBpopXB8XS8QA/MK0B/3Z/BqeNaQAqPVUBqMpLBlHmdQIVl
gz/Olo3BA6FrQNzfrUBgM4jB/MGBQJ0Kx0DnQJPB46VPQFtCdEDRgqTB

>  <OMEGA_E>  (134) 
MAaOPsxFjj7sFY8+MHeQPoBUkT5A240+TPc3Pw==

>  <OMEGA_NBR>  (134) 
    244697

$$$$
50214083
     RDKit          3D

 69 71  0  0  1  0  0  0  0  0999 V2000
    8.6111    7.5090  -18.5012 C   0  0  0  0  0  0  0  0  0  0  0  0
    7.6705    7.0201  -17.5801 C   0  0  0  0  0  0  0  0  0  0  0  0
    8.1895    8.1989  -19.6495 C   0  0  0  0  0  0  0  0  0  0  0  0
    5.8721    7.8818  -18.9752 C   0  0  0  0  0  0  0  0  0  0  0  0
    4.6107   -0.6524  -20.7633 C   0  0  0  0  0  0  0  0  0  0  0  0
    6.4088    0.8013  -21.5544 C   0  0  0  0  0  0  0  0  0  0  0  0
    6.6869   -1.6196  -21.6023 C   0  0  0  0  0  0  0  0  0  0  0  0
    6.2842    7.2269  -17.7907 C   0  0  0  0  0  0  0  0  0  0  0  0
    5.1178    0.6391  -21.0054 C   0  0  0  0  0  0  0  0  0  0  0  0
    6.8092    8.4026  -19.9013 C   0  0  0  0  0  0  0  0  0  0  0  0
    5.3917   -1.7804  -21.0696 C   0  0  0  0  0  0  0  0  0  0  0  0
    7.1962   -0.3276  -21.8416 C   0  0  0  0  0  0  0  0  0  0  0  0
    6.7852    1.4332  -18.0524 C   0  0  0  0  0  0  0  0  0  0  0  0
    5.3460    8.1514  -14.1909 C   0  0  0  0  0  0  0  0  0  0  0  0
    4.8540    8.8446  -15.4713 C   0  0  0  0  0  0  0  0  0  0  0  0
    6.3543    7.0382  -14.5173 C   0  0  0  0  0  0  0  0  0  0  0  0
    4.2083    7.8204  -16.4086 C   0  0  0  0  0  0  0  0  0  0  0  0
    5.7622    6.0203  -15.5167 C   0  0  0  0  0  0  0  0  0  0  0  0
    5.2020    6.6966  -16.8129 C   0  0  0  0  0  0  0  0  0  0  0  0
    7.0446    0.4304  -16.9322 C   0  0  0  0  0  0  0  0  0  0  0  0
    7.3657    9.8079  -21.9188 C   0  0  0  0  0  0  0  0  0  0  0  0
    4.9768    9.6760  -21.0691 C   0  0  0  0  0  0  0  0  0  0  0  0
    4.3167    1.8464  -20.5877 C   0  0  0  0  0  0  0  0  0  0  0  0
    5.1025    4.5273  -17.9628 C   0  0  0  0  0  0  0  0  0  0  0  0
    5.0878    2.6226  -19.5044 C   0  0  1  0  0  0  0  0  0  0  0  0
    4.2370    3.7512  -18.9397 C   0  0  2  0  0  0  0  0  0  0  0  0
    5.4699    1.7141  -18.4044 N   0  0  0  0  0  0  0  0  0  0  0  0
    6.3731    9.1512  -21.0220 N   0  0  0  0  0  0  0  0  0  0  0  0
    4.3736    5.7172  -17.5303 N   0  0  0  0  0  0  0  0  0  0  0  0
    7.7256    2.0505  -18.5412 O   0  0  0  0  0  0  0  0  0  0  0  0
    3.8143    4.6128  -19.9974 O   0  0  0  0  0  0  0  0  0  0  0  0
    4.9019   -3.0181  -20.8371 F   0  0  0  0  0  0  0  0  0  0  0  0
    8.4432   -0.1708  -22.3398 F   0  0  0  0  0  0  0  0  0  0  0  0
    9.6653    7.3534  -18.3253 H   0  0  0  0  0  0  0  0  0  0  0  0
    8.0057    6.4828  -16.7053 H   0  0  0  0  0  0  0  0  0  0  0  0
    8.9226    8.5773  -20.3464 H   0  0  0  0  0  0  0  0  0  0  0  0
    4.8167    7.9873  -19.1785 H   0  0  0  0  0  0  0  0  0  0  0  0
    3.6235   -0.7759  -20.3431 H   0  0  0  0  0  0  0  0  0  0  0  0
    6.7908    1.7917  -21.7536 H   0  0  0  0  0  0  0  0  0  0  0  0
    7.2895   -2.4873  -21.8271 H   0  0  0  0  0  0  0  0  0  0  0  0
    5.8305    8.8963  -13.5425 H   0  0  0  0  0  0  0  0  0  0  0  0
    4.4845    7.7132  -13.6658 H   0  0  0  0  0  0  0  0  0  0  0  0
    4.1133    9.6137  -15.2070 H   0  0  0  0  0  0  0  0  0  0  0  0
    5.7072    9.3167  -15.9804 H   0  0  0  0  0  0  0  0  0  0  0  0
    7.2561    7.4892  -14.9571 H   0  0  0  0  0  0  0  0  0  0  0  0
    6.6224    6.5138  -13.5882 H   0  0  0  0  0  0  0  0  0  0  0  0
    3.3460    7.3660  -15.8988 H   0  0  0  0  0  0  0  0  0  0  0  0
    3.8664    8.3366  -17.3178 H   0  0  0  0  0  0  0  0  0  0  0  0
    6.5517    5.3103  -15.8041 H   0  0  0  0  0  0  0  0  0  0  0  0
    4.9435    5.4776  -15.0216 H   0  0  0  0  0  0  0  0  0  0  0  0
    8.1208    0.4026  -16.7062 H   0  0  0  0  0  0  0  0  0  0  0  0
    6.4889    0.7337  -16.0326 H   0  0  0  0  0  0  0  0  0  0  0  0
    6.7109   -0.5685  -17.2498 H   0  0  0  0  0  0  0  0  0  0  0  0
    6.8377   10.3375  -22.7255 H   0  0  0  0  0  0  0  0  0  0  0  0
    7.9643   10.5261  -21.3393 H   0  0  0  0  0  0  0  0  0  0  0  0
    8.0281    9.0448  -22.3534 H   0  0  0  0  0  0  0  0  0  0  0  0
    4.8233   10.2274  -22.0085 H   0  0  0  0  0  0  0  0  0  0  0  0
    4.2678    8.8366  -21.0168 H   0  0  0  0  0  0  0  0  0  0  0  0
    4.8099   10.3506  -20.2165 H   0  0  0  0  0  0  0  0  0  0  0  0
    4.1528    2.4974  -21.4591 H   0  0  0  0  0  0  0  0  0  0  0  0
    3.3460    1.5213  -20.1852 H   0  0  0  0  0  0  0  0  0  0  0  0
    5.3320    3.8972  -17.0909 H   0  0  0  0  0  0  0  0  0  0  0  0
    6.0392    4.8265  -18.4558 H   0  0  0  0  0  0  0  0  0  0  0  0
    5.9938    3.0520  -19.9570 H   0  0  0  0  0  0  0  0  0  0  0  0
    3.3711    3.3285  -18.4092 H   0  0  0  0  0  0  0  0  0  0  0  0
    4.7391    1.2750  -17.8818 H   0  0  0  0  0  0  0  0  0  0  0  0
    3.6317    5.4289  -16.9249 H   0  0  0  0  0  0  0  0  0  0  0  0
    3.9897    6.1624  -18.3393 H   0  0  0  0  0  0  0  0  0  0  0  0
    3.2732    4.1248  -20.6069 H   0  0  0  0  0  0  0  0  0  0  0  0
  1  2  2  0
  1  3  1  0
  2  8  1  0
  3 10  2  0
  4  8  2  0
  4 10  1  0
  5  9  2  0
  5 11  1  0
  6  9  1  0
  6 12  2  0
  7 11  2  0
  7 12  1  0
  8 19  1  0
  9 23  1  0
 10 28  1  0
 11 32  1  0
 12 33  1  0
 13 20  1  0
 13 27  1  0
 13 30  2  0
 14 15  1  0
 14 16  1  0
 15 17  1  0
 16 18  1  0
 17 19  1  0
 18 19  1  0
 19 29  1  0
 21 28  1  0
 22 28  1  0
 23 25  1  0
 24 26  1  0
 24 29  1  0
 25 26  1  0
 25 27  1  0
 26 31  1  0
  1 34  1  0
  2 35  1  0
  3 36  1  0
  4 37  1  0
  5 38  1  0
  6 39  1  0
  7 40  1  0
 14 41  1  0
 14 42  1  0
 15 43  1  0
 15 44  1  0
 16 45  1  0
 16 46  1  0
 17 47  1  0
 17 48  1  0
 18 49  1  0
 18 50  1  0
 20 51  1  0
 20 52  1  0
 20 53  1  0
 21 54  1  0
 21 55  1  0
 21 56  1  0
 22 57  1  0
 22 58  1  0
 22 59  1  0
 23 60  1  0
 23 61  1  0
 24 62  1  0
 24 63  1  0
 25 64  1  6
 26 65  1  1
 27 66  1  0
 29 67  1  0
 29 68  1  0
 31 69  1  0
M  CHG  1  29   1
M  END
>  <OMEGA_C>  (135) 
+sYJQWxJ8EBcApTBk3T1QGGk4EAWpIzB/QcDQbEuA0EmMp3BNei7QIk3/EA7zZfBC4uTQFQEJ79I
G6bBfhTNQOIkTT9/b6zBd/vVQERPz7920azBUxjJQNNC50BiU47BrsSjQB6dIz/6CqjBGuXZQBlx
BkHPNZ/Ba4isQNbk47+ajqjBpUfmQC28p76yu67BJiDZQDVztz85a5DBRBKrQCZsAkHqDWPBllOb
QFyDDUFPinfB01bLQL444UDORmjBPKqGQPZA+kDSRIPBQ2S4QDumwEBNRHjBanamQG1K1kC5gIbB
qm3hQDhY3D4TdYfBaLPrQAztHEGqWa/BAEKfQL7QGkGajajBRiKKQHhV7D+ps6TBd0ejQObfkEDe
s4/Blc+iQE3ZJ0AbCZzBw5WHQFIUcEB4hJfBsAmvQExo2z80PJPBH/DLQDhrEkEgLajBOfSLQDfz
tkAdPozBETj3QOg6A0B1VJTBOh50QEeck0Ch+p/BOtycQBYpQcBJsqbBehcHQYPbLr7ct7LB6KQa
QVdP60BKmpLBbRcAQctyz0BxpIXB/8IOQcQ8CUFlxaLBGSKaQLOX/0CZbZnBEuhnQD+jRr+bvqLB
ik7ZQJxV5T9TB67BOEPpQIQvH8DZna7BR5O6QDhXDkEkrljBtoCPQIXS9kD6plrBJKCDQNrRGUEF
UHPBBqG2QAoRFUGOr3/BMDLoQC6n70AsUG/B3+rTQBZx0EBWaVnBOSRWQHm260BnYX7Bv3N3QOli
BUHiiorBnafRQMntqUCY3XzB5TCeQC1Ir0ClWHDB3u4BQR0ezj5IpoXBYqXPQN/VOz/TQoDBuL/W
QH2IEb+w/4nBd87aQEtmJUHTzbXBp9v+QMJqKEHgtqrBAXMAQZC3EEHc07LBhFiaQIqjI0FVEbDB
wJGIQKJiDUF5IqjBTuqZQDKcJUF1u6HBJOSEQOfUH0BLrKvBISRWQJG4wj9ee6HB4Z+qQCRreUA6
uojBLkHBQLlymkB9pZPBcc2/QLhUQ0Dpp5/Bsb9XQHoGVUADRpPBHaeXQNAyoz/nDY/BDW5oQPS5
rUAhZofBwFZ/QBIyxUDntpLBSXxRQDr+g0Dh2qTBe84JQfOa70Bx5ZPBXCb1QN4f4EA8nYzBT1ED
QVP7AkHVE53Byym8QIQ7/EBn4pfBYNrMQJfHTD/YY6zBQzGTQOqhJ79dJabBlpDVQOGRz7/65KzB
k+fIQCwc50CCYI7BJYijQO8NIz8fAKjBWJzaQGZlBkFWNp/BBfrlQBynqL5gva7BNhasQGMp5L9H
p6jB5HnZQG6xvj85D5DBK4WqQHKcAkGrNmPBd+maQI+pDUHWv3fBNtTKQFmg4UDCXGjBuVaGQJWL
+kBiZIPBaNW3QF72wECNRnjBKhWmQHpw1kDUjobBa5XiQD38yD5F5IfBjK3tQHsfHkFiz67Bz/mf
QIF1GUELTKnB6++JQP3H6z9AmaTBJ5GiQA1WkEBAbI/BY7qiQHePJ0C28pvB22WHQNSWb0AGapfB
rVivQO6q2j84MJPBx2rNQBZ0EkE/O6jBopOLQC4Mt0DMQ4zBxnP3QHJKA0CXhpTBrhp1QKuwk0BL
4Z/B+vkGQXpWMb6WrrLBHEecQOFJQcBX3qbBMaAaQYlI6kBbbZLB/YH/QMi+zkADnIXBxDQPQScK
CUFKkaLB7XmaQA3Q/0AOmJnBGCTZQJ4x5T+t8K3BJyZnQH9aR78nzaLBasjoQFhSH8Auu67BDPC5
QJWMDkF51FjBOOeOQLI090BE2VrBfS+DQNf5GUEClHPBrEa2QD40FUGb2n/BaqnnQJYG8ECccG/B
mnLTQG330EAmeFnBWi1VQFgi7EC5s37BJUt3QFWFBUEhsYrBpAbRQK8VqkCKxnzBxoWdQNvLr0A8
VnDBpq4CQQxpgT7TIIfBlCnVQIxvLj9uF4DB9MfTQIdCDL9qkIrB6XHdQId8JkGBZ7XBjoP+QJ/X
KUF3xanB53ACQZKlEkEaG7LB1QqcQBCOIkEpxLDBfv+KQFVUC0EcdKnBo1+XQASoI0FidKLBR4SE
QPWpH0AajavBW+pVQKTZwT80WKHBV4GoQH2feEDnVojBF0XBQJIZmUCYIJPBk5G/QLNXQ0Cam5/B
+LRWQAlhVEBeU5PBaDaYQEM4nD9HRo/B3almQN6SrkAffofBwAKAQJPyxEB43ZLBuSFTQBNHhEA5
3qTBEbXdQKdoB0FI1p7Bo5++QCEQ/kC+3JfBhLUEQSzyBUE8QZzBmgz3QGp75UBB7ovBmLCKQGxC
PD1+VbLBDIjEQOqw4b3aTKXB6FjIQAo2sr8N1LXBf9HKQHjH6UBLMo7BzdWcQDJx5T51e6jBf14L
QcAz90CDuJLBDm2gQK1yXr97/bjBEVXaQMFogb/596vBmHPaQOwt6D9DA43BgdyrQEiaAUFD8mHB
0eGcQMt9DUG2MXbB9sHLQJGC30Ahl2fBjUiIQP2L+0BXG4PBTCq5QKtxwEBfpHjBrMOnQJJx10Cj
pobBUxjoQCjwZz/Cx4PBXCUyQXBoA0G8FZfBGjYoQVQm4kDBcIXBYwSEQCYCtT+BTqHBBQCmQFoj
kkA3ppDBDGehQEAqGECsy5rBq62IQEonaUAoM5fBu3SxQMWo1D/EPpHBwlkhQRci9EC0/o/Bk9mN
QJANuECM44zBDq70QAmZJEAHF5HBqcJzQK/Ai0BCVqDBWPaOQOOOn7++a8LBN0cAQeVowb+S1KjB
LvnTQIP/DkE0NabBuCKdQLhXAEH55JnB5YEQQU7ADEFqkqHBV2wAQZNE1EC22YTBLxZYQKXU4T5a
xrTBFSjSQB1AJD4qqZ3BMBzZQMxuBcAN97rBr3G7QOMPDUF/GFfBHumPQFgF9UDf71nB+zqFQPa3
GUFVrXHB3ZO4QMU/FUFJzH3BhTHpQE4U7kDJ623BGErTQFFIzUArA1nBJ2FYQDi77EBAoH7Bpzh8
QHvBBkH8O4rBW5bSQO0WqkD9dn3BR66eQB96rkBjUHHBuA4FQYORiT/v94HBFbvUQL9PkT//U3nB
+T7jQO/oFL6PEIbB4AZCQXCIAEEUk5PBEUsxQfiw90ALBZ/BQ34vQYi7FEFm45fBTMc5QeWY4kA9
6oTBGG8hQVme9UDW4H3BjnUiQRUDwUA5tYTBkmpdQHs4AUDDXqbBeIJhQOlPUz/BpJvBXW+yQFF/
gECVsonBUNrAQF+1nEApsJXBM3C8QFKrK0BQ4J/BvghbQMBtVUC3LJLBWJOdQBRFgz/hlI3BzLhr
QEfkrUBSPojBS+OBQBoUx0CtSZPBzVhPQKTpc0BwfaTBprrjQCNcCEGkapzBX2TCQG6R/0CQMZbB
2EcHQSzjBUGdL5nBws32QDmW4kD8vonBh2eAQOOwib8MzaPBF+u/QAa+Lj66SKnBpQ+9QPSrD8A7
1qvB4WrLQDHd6EDwpYzBar6WQO1JGj6YjqTBaFwMQdak9ECJwo/BmYSTQOxLEcCbcafBfzzTQD8C
g79xvKzBFFPmQNOeCECADZLBa3GlQAza/EBbX1/BTc2ZQPicC0F8XXPB2QvFQDTd2ECv9mTBNYyG
QJE1+kClb4LBVemzQBJHvEDHanfB8/KlQDID1kCD9YXBFh39QNppvD/Fn4jBkdYzQWpUAUFYoZLB
JA8nQcjX2kA75YHBESaBQEdVuD+82aDBOaClQNffk0AyMpHBiR+hQMsdH0BaPZzBkJOIQHxCbkBU
BZjBiAi7QNco7j81sZPB7uAhQaiB70AQYozB+vuMQD28uEBwA43BXiX5QD9SP0DHTZfBZr1yQKdn
j0C98KDBHAR8QFZCXMCHu6bBZhL7QJTpfb/f9rDBwGncQHfhEEELtaPBL5qhQF3fAUE5t5jBf/MT
QSbZDEE/653BVzL+QAmPz0A7xoLBgzRBQMaKjL9jbKDBQJbQQMX2jT9iPqrBW+HLQElVSsAKg67B
qCu0QLQKCUHJa1PBzSCIQN2t7kC5r1jBhkGCQPHsF0E/8W7BLte2QLJaE0G4nHnBnqLjQM8w50CB
6mnBzyTKQNrdxECmtFbBSEJSQG9w60Bfo37B0Id9QEH+BkF1c4nBhEnNQAWwpUCDBXzBbAWYQFtj
qkAeenHBbMYOQfan8T8R2IfBzwfrQG/g1D8EO4HBdSj/QAlvxj5HAorBVCFDQawS+0BYtY7BltAz
QbNv9UAlyZrB0c0xQbzLEkHoAJPBjoQ4Qbn72UCozYDBqL0fQSVZ7UDVunbBmrggQaQBukDuzoHB
/QhhQCTu8T9nuKfBf21TQBY/mD8YmZrBOW6yQOI5gUAwdIrBwDzAQI6tn0CZJJbBZGG2QMb6M0A+
wKLB6CxbQBlIWECbFZPBkbysQChEmj8T0o7BdGRoQNZorUAT0ojBxyqCQIGqyUB2PZPBJqpOQPb1
e0BVPKXB3DTHQPLPD0EdHJ7BiKquQD8hBEHetJbBTezzQPoHEUGr+5zBdcPvQBn/80CHS43BvPeL
QOMWYL+UHajBrtnIQABgGz82MKvBAXnNQLGa3r9WQ7DBn43CQIOt8kACEY7BX0KfQAPfyT4P/6bB
fHAEQZwjBkG8hJTBysyiQO9g97+M7qzBc57gQInf8L6XRq/B9v3FQNSdFz98JY7BGG6wQFwW/kCY
Tl/Bdg+ZQOs9C0F6QXHBhPvSQC1i4EAUjWjBHsWEQEb29kAIroDBX0bAQKKxwUBZu3nByqimQEUK
2UD8BIbBhWLNQIuOxT2RwoLB+1YoQQ75E0Gq2JrBPL4lQcYl+0BOu4nB2uuGQMlwwz9fnKHBccKo
QClelUBq2pDBcJqjQI24GUCpDJrBS1qMQByRb0CppZfBd/arQFRr2z98uo/BBfgaQVVBB0FWRJPB
/kiOQBReuEC4Q4zBCiPaQPLucj1TX5XBbiGCQDvxjUBpVqHBkuOPQN7MSMBeSK7BvOsEQcc/kL4T
OLLBvqe3QHbhF0Hhr6TBvVSMQEhgA0GQnZfBQzgDQWlUGkHbmqLBpnn/QNsK4kBJC4fBznRXQI2v
hL9xSKXBHVPWQC/8zD+FPavBwHTfQFQRJMDVkbPBgJm/QHukCkFIdVTBMA+ZQFPO6kADWVbBdH1/
QAM2FUFlLGrBwxqwQH6EFUHTtHnBRzjsQBMB9EBD62/BKcLgQMg8zUCmfFvBlXJaQOIN40C23njB
SBFpQDS3BEHo+YbBB+naQGD7r0AGioDBxI+qQLYUq0ByunHBrS7lQA/JNr9Z1oLBqzTZQAvtbD+A
k3vB2hevQGMoj774337B5UM5QRXJEkHwgZjBwk4mQTGuDUFsAKPBTkwjQULUJEFYnprBLx03QdQs
AEEjSorBkJwfQW0hBUEzZoLBMWsiQRWY2EDofonBYtpyQDBOC0Dc26fBJZpZQDfqiz8y15zBd2m3
QPPUgkCQVIrBJAzCQM8qo0D06JXBvwbCQI9pJ0CrIZ7BveVdQO52YUBfJJPBnYmdQADPBUD+QInB
7gFxQKQ5q0BPaYfBF+t+QK1Ox0BcSpLBVBVhQMeeeEAZsqXBIrrjQC4mCUEY+JvBaNXBQKWmAEES
6ZXBQR0HQRrcBkHIcZjBwA31QHc+5UBDB4nBqpKkQJgdWj34HK7BXp+cQAUEZ79YO5zBlkW/QIl1
DMCfWqrBKvrJQEQj60B0PIzBhu+VQEONKD6HdqPBxb8LQfQi90Dl4I7BWu+4QNt4kL+PkrHBVj6x
QJYaBcAGrJ/BPg7nQNZH5T8MA5PBVs2gQKtoAEElTl/BpAKWQBUtDUHyr3PBrt/AQETO3EAmKGTB
iuODQIOE/ECnloLBSuawQNhyv0DslHbBTvijQNRT2EAawIXBYDT9QCbNjj9hiYnBG1gzQTKJAkGC
UJHBmsElQUxX3kDik4DBbjiAQFOKuD9es5/BdLylQGBVlUAF1ZDBvgWhQFtuH0BNo5vBVBeJQIyy
cEDFvpfBtKG6QCSz9D+U15LBoxYhQeRX8kCxNIvBWDiMQMREukA64YzBmCv8QPzbBkD05JrBW911
QJ8ukEAf2KDB4FzGQE3Dnr9g07vBHny3QMxfRsArupjBJhndQK93EUHNW6PBPEyhQDKXAkFjqJjB
kv8TQXTADUGTDp3BVcz7QESk0kDW8YHBNCugQELTXz/wnbPBmeWRQBWhUL9cDJTBQuDOQENbRsCU
Aq3BAdGuQLFLC0EVYlPBMD6DQOC68kDb2FjBdxt8QOx4GUHCzW/BST+zQPTqFEGosnnBl6TfQPMg
60AV02jBb07FQJNYyUDKqFXB+5RMQKi17UC/Ln/B5U15QM7bB0EmvYnBW6DKQHzSqECcnnrBhsWU
QL2jrUCZ3XDBg8EPQZYggD+IR4vBoiT5QDAG3j8/VYLBlOLuQBk4AD6wLYjB7G9CQULZ/UDnKY3B
h74zQZk390DWZpnBPk4xQfv6E0Er4pHBYyc3Qc6p3UD4g37BYhMeQV8v8UB5bXTB33YfQaF4vUD8
coDBVU9cQLva7z9laqbB4CpUQOsHmT/wJZnB8Q+yQJv7gkDj+4nBBLPAQBEYoUBCqpXBlDW2QGc7
MUDDTaLBcOBaQDR8XEAA7JLBKharQBzsyj/yWozBzlVmQJnPrkAzz4jBNtCBQBXCykAbOZPBkWNS
QJU+fUDPLqXB

>  <OMEGA_E>  (135) 
qFYMPpDKDD5kYxg/JLEePywLJj90oTA/

>  <OMEGA_NBR>  (135) 
    251528

$$$$
50214062
     RDKit          3D

 76 79  0  0  1  0  0  0  0  0999 V2000
    8.4781    7.5987  -18.6381 C   0  0  0  0  0  0  0  0  0  0  0  0
    7.9249    8.3105  -19.7172 C   0  0  0  0  0  0  0  0  0  0  0  0
    7.6327    7.0585  -17.6483 C   0  0  0  0  0  0  0  0  0  0  0  0
    5.6976    7.9115  -18.8394 C   0  0  0  0  0  0  0  0  0  0  0  0
    6.3448    0.7044  -21.5917 C   0  0  0  0  0  0  0  0  0  0  0  0
    4.5633   -0.6900  -20.6681 C   0  0  0  0  0  0  0  0  0  0  0  0
    6.5926   -1.7208  -21.5463 C   0  0  0  0  0  0  0  0  0  0  0  0
    6.5198    8.4745  -19.7985 C   0  0  0  0  0  0  0  0  0  0  0  0
    6.2256    7.2443  -17.7349 C   0  0  0  0  0  0  0  0  0  0  0  0
    5.0749    0.5843  -20.9870 C   0  0  0  0  0  0  0  0  0  0  0  0
    7.1058   -0.4469  -21.8626 C   0  0  0  0  0  0  0  0  0  0  0  0
    5.3179   -1.8415  -20.9567 C   0  0  0  0  0  0  0  0  0  0  0  0
    6.7727    1.4677  -18.0307 C   0  0  0  0  0  0  0  0  0  0  0  0
    5.4917    8.1498  -14.1682 C   0  0  0  0  0  0  0  0  0  0  0  0
    4.9061    8.8250  -15.4168 C   0  0  0  0  0  0  0  0  0  0  0  0
    6.4782    7.0278  -14.5428 C   0  0  0  0  0  0  0  0  0  0  0  0
    4.2090    7.7695  -16.2794 C   0  0  0  0  0  0  0  0  0  0  0  0
    5.8413    5.9939  -15.5009 C   0  0  0  0  0  0  0  0  0  0  0  0
    5.9518    8.2341  -22.1720 C   0  0  0  0  0  0  0  0  0  0  0  0
    5.9841    9.0050  -23.4791 C   0  0  0  0  0  0  0  0  0  0  0  0
    6.3271   10.6051  -21.0661 C   0  0  0  0  0  0  0  0  0  0  0  0
    7.6828   10.7274  -23.0524 C   0  0  0  0  0  0  0  0  0  0  0  0
    5.8267    9.1562  -20.9412 C   0  0  2  0  0  0  0  0  0  0  0  0
    5.2053    6.6659  -16.7494 C   0  0  0  0  0  0  0  0  0  0  0  0
    7.0121    0.5038  -16.8724 C   0  0  0  0  0  0  0  0  0  0  0  0
    4.3042    1.8231  -20.5976 C   0  0  0  0  0  0  0  0  0  0  0  0
    5.1437    4.5542  -18.0212 C   0  0  0  0  0  0  0  0  0  0  0  0
    5.1002    2.6171  -19.5435 C   0  0  1  0  0  0  0  0  0  0  0  0
    4.2761    3.7835  -19.0054 C   0  0  2  0  0  0  0  0  0  0  0  0
    5.4645    1.7295  -18.4207 N   0  0  0  0  0  0  0  0  0  0  0  0
    4.3833    5.6878  -17.4893 N   0  0  0  0  0  0  0  0  0  0  0  0
    7.7217    2.0669  -18.5254 O   0  0  0  0  0  0  0  0  0  0  0  0
    7.3248    9.4857  -23.7049 O   0  0  0  0  0  0  0  0  0  0  0  0
    7.6455   10.6728  -21.6149 O   0  0  0  0  0  0  0  0  0  0  0  0
    3.8927    4.6426  -20.0794 O   0  0  0  0  0  0  0  0  0  0  0  0
    8.3294   -0.3287  -22.4252 F   0  0  0  0  0  0  0  0  0  0  0  0
    4.8228   -3.0627  -20.6561 F   0  0  0  0  0  0  0  0  0  0  0  0
    9.5477    7.4663  -18.5680 H   0  0  0  0  0  0  0  0  0  0  0  0
    8.5663    8.7292  -20.4786 H   0  0  0  0  0  0  0  0  0  0  0  0
    8.0539    6.5030  -16.8234 H   0  0  0  0  0  0  0  0  0  0  0  0
    4.6260    7.9903  -18.9480 H   0  0  0  0  0  0  0  0  0  0  0  0
    6.7318    1.6800  -21.8462 H   0  0  0  0  0  0  0  0  0  0  0  0
    3.5930   -0.7821  -20.2028 H   0  0  0  0  0  0  0  0  0  0  0  0
    7.1762   -2.6050  -21.7559 H   0  0  0  0  0  0  0  0  0  0  0  0
    6.0205    8.9050  -13.5683 H   0  0  0  0  0  0  0  0  0  0  0  0
    4.6703    7.7203  -13.5758 H   0  0  0  0  0  0  0  0  0  0  0  0
    4.1779    9.5916  -15.1132 H   0  0  0  0  0  0  0  0  0  0  0  0
    5.7152    9.2962  -15.9941 H   0  0  0  0  0  0  0  0  0  0  0  0
    7.3549    7.4749  -15.0343 H   0  0  0  0  0  0  0  0  0  0  0  0
    6.7959    6.5126  -13.6243 H   0  0  0  0  0  0  0  0  0  0  0  0
    3.4071    7.2998  -15.6909 H   0  0  0  0  0  0  0  0  0  0  0  0
    3.7758    8.2599  -17.1636 H   0  0  0  0  0  0  0  0  0  0  0  0
    6.6205    5.2926  -15.8341 H   0  0  0  0  0  0  0  0  0  0  0  0
    5.0594    5.4425  -14.9582 H   0  0  0  0  0  0  0  0  0  0  0  0
    5.0908    7.5496  -22.1881 H   0  0  0  0  0  0  0  0  0  0  0  0
    6.8811    7.6524  -22.0832 H   0  0  0  0  0  0  0  0  0  0  0  0
    5.6850    8.3434  -24.3055 H   0  0  0  0  0  0  0  0  0  0  0  0
    5.2909    9.8572  -23.4225 H   0  0  0  0  0  0  0  0  0  0  0  0
    5.6411   11.1621  -21.7211 H   0  0  0  0  0  0  0  0  0  0  0  0
    6.3347   11.0652  -20.0669 H   0  0  0  0  0  0  0  0  0  0  0  0
    8.7039   10.9966  -23.3606 H   0  0  0  0  0  0  0  0  0  0  0  0
    6.9817   11.5066  -23.3859 H   0  0  0  0  0  0  0  0  0  0  0  0
    4.7570    9.2086  -20.6905 H   0  0  0  0  0  0  0  0  0  0  0  0
    8.0844    0.4826  -16.6279 H   0  0  0  0  0  0  0  0  0  0  0  0
    6.4423    0.8387  -15.9931 H   0  0  0  0  0  0  0  0  0  0  0  0
    6.6819   -0.5051  -17.1608 H   0  0  0  0  0  0  0  0  0  0  0  0
    4.1469    2.4510  -21.4870 H   0  0  0  0  0  0  0  0  0  0  0  0
    3.3302    1.5315  -20.1777 H   0  0  0  0  0  0  0  0  0  0  0  0
    5.4404    3.8909  -17.1954 H   0  0  0  0  0  0  0  0  0  0  0  0
    6.0429    4.9240  -18.5356 H   0  0  0  0  0  0  0  0  0  0  0  0
    6.0133    3.0116  -20.0132 H   0  0  0  0  0  0  0  0  0  0  0  0
    3.3899    3.3933  -18.4835 H   0  0  0  0  0  0  0  0  0  0  0  0
    4.7253    1.2903  -17.9101 H   0  0  0  0  0  0  0  0  0  0  0  0
    3.6822    5.3338  -16.8703 H   0  0  0  0  0  0  0  0  0  0  0  0
    3.9451    6.1597  -18.2543 H   0  0  0  0  0  0  0  0  0  0  0  0
    3.3511    4.1605  -20.6932 H   0  0  0  0  0  0  0  0  0  0  0  0
  1  2  2  0
  1  3  1  0
  2  8  1  0
  3  9  2  0
  4  8  2  0
  4  9  1  0
  5 10  2  0
  5 11  1  0
  6 10  1  0
  6 12  2  0
  7 11  2  0
  7 12  1  0
  8 23  1  0
  9 24  1  0
 10 26  1  0
 11 36  1  0
 12 37  1  0
 13 25  1  0
 13 30  1  0
 13 32  2  0
 14 15  1  0
 14 16  1  0
 15 17  1  0
 16 18  1  0
 17 24  1  0
 18 24  1  0
 19 20  1  0
 19 23  1  0
 20 33  1  0
 21 23  1  0
 21 34  1  0
 22 33  1  0
 22 34  1  0
 24 31  1  0
 26 28  1  0
 27 29  1  0
 27 31  1  0
 28 29  1  0
 28 30  1  0
 29 35  1  0
  1 38  1  0
  2 39  1  0
  3 40  1  0
  4 41  1  0
  5 42  1  0
  6 43  1  0
  7 44  1  0
 14 45  1  0
 14 46  1  0
 15 47  1  0
 15 48  1  0
 16 49  1  0
 16 50  1  0
 17 51  1  0
 17 52  1  0
 18 53  1  0
 18 54  1  0
 19 55  1  0
 19 56  1  0
 20 57  1  0
 20 58  1  0
 21 59  1  0
 21 60  1  0
 22 61  1  0
 22 62  1  0
 23 63  1  1
 25 64  1  0
 25 65  1  0
 25 66  1  0
 26 67  1  0
 26 68  1  0
 27 69  1  0
 27 70  1  0
 28 71  1  6
 29 72  1  1
 30 73  1  0
 31 74  1  0
 31 75  1  0
 35 76  1  0
M  CHG  1  31   1
M  END
>  <OMEGA_C>  (136) 
WqYHQWso80DmGpXBxZj9QL/3BEHhvJ3BSz/0QB3f4UCvL43B5VK2QCgr/UAIt5bBawjLQFhUND/E
u6zBbgaSQPyjML9OWKXBV/bSQB9D3L/kXqzBKaLQQHSXB0FdY57BzzfHQDfR50Aj4Y3BOGWiQN6S
FT9c5afBy2LjQLzU5L6c5q7BWCyqQNu3679Up6fBHrrYQJjduz/KPpDB4ruvQGdlAkEHsWLBdf6c
QGYzDUEhq3bBlU3PQL7j4EA9r2jB1K+GQMef+EA/PILBQOy6QF7Ov0CNA3jB93S+QA6/A0FSYLHB
3n2/QHEUEEFE1bvB43fKQGiuKUFOh6jB3dn1QGijK0FNa7jBpHS6QOl/EkGFh6fBN5KmQMpO1UDZ
/oXBDWPgQDb3AD+X+obBIryJQDxc6T/vx6TBKpmkQBy8kUB+K5DBqTSjQPB9J0AoWZzB0NWIQIYk
ckAWC5jBCd2uQLtg3T+WXZPBOESMQIkCtkAD6ovBUxj3QFZHBEDvM5TBZmTqQFvFF0Gao73BN6j0
QM/DKkFE66zBoCF5QO2PlECfoqDBCUUFQcBJqL63ZrPBUlSaQAwERMC+P6XBScMYQQ7s7kBbi5TB
mQ8JQcCqC0Ep1KPB0twAQdAY0EBGlobBIwiUQJiw/0CalZfB+GrXQG8L1z/2xK7BbfRlQI81SL9C
n6HBnKPlQLO4JsD8C67BNqjAQAV7DkHbF1nBa3OVQLsM90B5NlnBRLGFQDF3GUGmz3HBU+O2QCm9
FEGo53/BPFvrQEUy70BqjHDBnnfZQC5n0ED+/FnBWg1aQACY6UD3DXvBNKZxQIUoBEEmT4nB1drT
QLBcqUBsWH3BaOahQEcprkDJVG/BOOiiQLGW8UBHgbHBMzLcQHvg9EB2qrDBveu1QIl+BUGbccLB
TE+pQCW3HUE1YbvBE4S0QBmYMkHUxK3Br7XKQAULMUEbiaDBIEMLQSfyL0GA4rrBA2rfQPgaOEFj
FrvBHTmYQJtWE0EUhqXBnFkBQVwS9z73BYXB+ybOQFayVj+h43/BBtLVQN1LAb9hSYnBebOEQLDd
HEBh5avBdSJVQIAIxD8AbKHBjBeuQOYEeUAmkInBtV/BQMORnUD4SJTBkGzAQLC+QEATG6DBOvRY
QA4rWUA63pPBUjWXQNcppT/0R4/BwqhrQKKuqkBx9obBSH18QCscxUDfCJLBaXhWQMgihUDDi6XB
VbcLQZsB6UCOYZHBbE0HQfgC/EDrRZvBBNv1QMQ23UDUkIrBKFTCQPFL+EChgZfB9uvGQBCrST9b
DK3BWROWQC+3R7/lW6TBw0zVQIifzb9Tt63BgBHkQJHQAUH5hZ7BdM/KQLPU5UCuZo3Bt6yhQJD6
Cj/b+abB9N3gQJHAkb4/VLDB/cCvQJtS7b+yy6fBSozdQFNzyz++Y5DBEzumQAeDBEGVVWPB3Byb
QA9TD0GQuXjBUGPEQFHO4kCfqGbBGHeGQD9D/kBxA4TByrmxQFKQwkBN9HbBHZTzQFy7IUFicKrB
+0vVQB3LNEENbKvBCfuuQG2SCkEHQa7BvgiNQHTnKkHl46bBboXdQBdUC0FyuanBjqykQC7k10Dw
UYbBz9XpQHaZGT8Gn4fBSxuHQJbT2T+F/6LBNZ+iQEqMkkBBu4/BYBOiQOkQJkCCiZvBYA+HQPfi
b0DNPJfBGl+yQO1J5T80hJLB4t+KQH7xuEB1d4zBP4H5QKYSBECDI5bBzcW0QK4ZNEHUUqPBUEOO
QDrwE0E1g6fBSR5yQIbtkUAB9Z/BUG8CQbINNb3q/7XBV4KkQODjR8CdXKXBphYcQYNr40Ae/47B
qlcUQVp6AkGPe6DB9df8QJFpzUA9FYPBA5uhQKbZ/UD46ZnBxH/PQGZZ5j8PLa/B9xNzQK8ZeL/G
uZ/B5zbpQEqJG8BQQLDBaPC1QPZBEEFR11jB9o6IQO+2/UBsvVvBKZyEQN6JHEHQzHXBZ4i4QPOm
FUGTA4DB5FTjQOmS7kCFo2zBKCnJQAx70kDtP1fBBYhRQP0r8kBBYoDByOd9QNk2B0H/mYvBk/fJ
QF/hqUAXM3rBDTOVQHGPs0BE4W/BqlMEQR6zIUHGfLHBanMDQTb1I0ENK6PBm8HnQFKtQ0GFjKrB
FgHGQA91NEGvWLPBwMiuQGQmE0Ea8LXBg46mQGBj80Bzl6/B1ktnQK6QL0HaQaHBKp+FQDtIMUFG
4a7BUzzwQGkEAUFXG6/BflUGQVxR4j5GuYfBMjjgQERMgD9UlX/BuXfZQPhCt74qBonBcRF4QBD3
EkBt3anBM5dWQNZyqD/pkp7B4LuqQP0Bf0AonYjBDDDAQAAWnECD3pPB6Rm9QGpoQEA7HaDBTRtX
QIX7VUCFzZLBEgadQHrErj+KoI3BGz1kQOzQr0CX8IfB2QWAQOeHx0DKDJPBra9PQDtRgUCCpaTB
aKsLQW3u7EB3BpLBy2UGQSCUAkGVFpvBLc72QGvI3EBFX4vBdCbBQNJy+kDqPpfBluHKQD1jST/B
tKzBT+GTQDFEM79hhaXBbN7VQD8z0L9I2qzBVZbhQF4jBkGGqJ3Bsx7LQO3+5EDttY3BUJOiQIan
GT/p0afB3KPkQBDepr5vIa/B72WtQHv/578dGajBTPvaQOg5xT+FbZDBd6epQFDlBEF5omTBTxKc
QFvvDkEFCHrBD+rHQMmM40C9/mfBmNWGQA/0+0DiGITBYGG0QA4IwkBxY3fBSRqtQMN3HkHd/abB
KzukQIfPKkFjTrHBwuTUQP8D/kDecbDBi0eZQFIsCUERY7vBrLvWQFj4EEFLB6jBO8ilQK0p1kAL
gYbBJavlQNaQ7T5pNYjB9I+IQLer5T/mVqTBY5CiQAmQkECXp4/BHRKiQNPcJkAvCZzBAsaGQGGM
bkDfZJfBSWOwQKbK3D87RpPBd4SLQC8it0CRbIzBtA74QPNVB0AVKZXBekqKQDxzHkE/o7jB6/zG
QCaoBkEgo7rB9exwQMSAkkDB2J/BmdcFQWNIFL7tjrPB6DSfQMi/Q8DF4aXByj0cQfum5kCJJZDB
a+ISQTwmCUFmE6DBJyT/QIb7yUCrbYTBbyOgQA1T/UAcs5nBa+rVQAs55D9alK7BEBxqQH24V7+8
yKHBqpHpQKLSHsA8wK7BnSa6QKsTEUEb+VrB0eqMQKbB/kA+GVzB1D6FQPz7G0HN/nbBjXO4QKlX
FUF5HoHBrTrmQKU370Cgxm7BLxbOQKdD1EDGcVjB2LVUQDt770AW8X/B4GJ6QLVtBUFHsovBKI/M
QKFSqUCTs3rB+XuYQOxEs0BumG/BUr+wQGXhKUHUWqDB0waSQOS4E0EOVaXBL0aTQDO3OUHvUq/B
m93CQG6pLkFuMLXBVAb1QCIR8EApULHBWnq+QAM85UCara3B5SCKQJxE+0B17bXB14CPQGStBUF5
qMPBFAbxQA/cG0EJLKrBIU0EQVbxsT6tqYfBnOPYQOX+QT9pWoDBDjbXQNv0+r5GrorBWZeBQGJZ
G0BwUqvBAbhUQOnJuT9Hv6DBHZKpQEXVeUDnkIjBXLbAQEqJmUCxmpPB/R2+QKccQ0AJA6DBLOVW
QGbhUkCXDpPBORSaQOVUnT+mIY/BxABmQBxtrkAexIfBxFWAQJ91xUA8ApPBhUROQM+OgkAvp6TB
l6EKQbjo6ECEfZPB7eMFQaqxA0EtYJvBe9X0QPNI2UCzxIzBiN3AQE/hAkHfFZbBzUPMQPq9Sz/w
TazBTJqUQOa7Nb8ht6XB1YvWQNcQz7+vN63BWJHhQBk1C0EFvJzBfyXKQGUZ6ED60Y3B2MSjQMO4
GD9Si6fB9M7lQL5Kn767Ba/B19WtQJpe6L92oKjBurnaQMRDtz9Hk5DBDnmsQIxzAkEc5GLBuY+c
QOXMDUGnO3fB1J7KQEOL30BnW2jBZmqGQJdU+0BSCoPBjWW1QO4zwEBXL3jBlEyrQKRsJkEXZKXB
7DqKQPaZF0EF4arBC9zrQH6bGEGx6K/B3em1QJ3H+UDrprPBVP3ZQEnEHUE4n6TBJ4mlQAca10C+
hobBZYbkQGCc4D7ioofBw2CJQGOx4z/b/aPBO0iiQETzkUAZ14/Bw2OiQC/PJkB3sJvB8p2GQPX/
bkC3TpfBMzqwQMPv3j9fwZLB1miLQBH4uEBzw4zBl0T4QHUp/z+hN5XBXy2ZQALVDkG12rTBCpTi
QNv+AkHDX7PBRaxvQCGtkUDv55/BH4QGQSZA9b1aUrPB0veeQMxPRMCv+qbBEtMaQXln3UCClZLB
i4ESQXm6CUFqc6DBpXn8QAfAwUCRvIbBrzGgQMbtB0EGVpfBYJrXQGEU5j8L263BhEJrQA66XL/E
FKLB/g3qQEv4HcBhWq/BBca9QMoMDkHx3ljBM8CQQPJv+EDWA1rBPbGFQDtqGkEfxnLBkfO3QOT+
FEEjoH/BTwToQBhf7EDVm2/BZ7TSQIJFzkBdkFnBjC1WQIQK7UAAmH3B1s11QLsYBkFgNYrBHNPM
QPx4p0AKnnzBys6ZQP4ZsUAfSHDBaz6sQFqHNUHn5qnBewKgQMqLKUELNJ3BIdeCQL1MCkGva6XB
1vBZQDfhIEFpbqzBZp3dQN3UI0ElrbXBDGUHQVXEGkFJxq/B2SCuQDE06UACI6zBhgOxQKja40Aw
bbrBpk3tQKY0K0FJoKHBoK8DQfTKuT4kjYbBmLjVQDUiST+EJoDBOonXQA1vDL/gwonBJgSCQCRB
GkBt9arBB8dWQPPStT9rYqDBDq+pQA9JfkCwoojBnzfAQPSamkDc7pPB16S+QJ26QkD8m5/BuSBX
QNO8U0Bp05LBXK+ZQPeRrT8f/Y3BlP1jQK2qsEAXXojBjpaBQHnAx0CXa5PBzQpNQK4SgUD8kqTB

>  <OMEGA_E>  (136) 
KFLNPhCz3D5AbNo+aCPPPg==

>  <OMEGA_NBR>  (136) 
    256573

$$$$
50214060
     RDKit          3D

 66 69  0  0  1  0  0  0  0  0999 V2000
    8.5611    7.2405  -18.5362 C   0  0  0  0  0  0  0  0  0  0  0  0
    8.1210    7.9869  -19.6414 C   0  0  0  0  0  0  0  0  0  0  0  0
    7.6332    6.8427  -17.5566 C   0  0  0  0  0  0  0  0  0  0  0  0
    5.8360    7.9303  -18.7992 C   0  0  0  0  0  0  0  0  0  0  0  0
    6.3067    0.6554  -21.6206 C   0  0  0  0  0  0  0  0  0  0  0  0
    4.6069   -0.7426  -20.5605 C   0  0  0  0  0  0  0  0  0  0  0  0
    6.6020   -1.7649  -21.5250 C   0  0  0  0  0  0  0  0  0  0  0  0
    6.7579    8.3548  -19.7436 C   0  0  0  0  0  0  0  0  0  0  0  0
    6.2721    7.1906  -17.7051 C   0  0  0  0  0  0  0  0  0  0  0  0
    5.0744    0.5333  -20.9428 C   0  0  0  0  0  0  0  0  0  0  0  0
    7.0711   -0.4918  -21.9058 C   0  0  0  0  0  0  0  0  0  0  0  0
    5.3659   -1.8904  -20.8600 C   0  0  0  0  0  0  0  0  0  0  0  0
    6.8519    1.5953  -18.0594 C   0  0  0  0  0  0  0  0  0  0  0  0
    6.0178    9.4819  -23.2814 C   0  0  0  0  0  0  0  0  0  0  0  0
    7.1126   10.5656  -23.2192 C   0  0  0  0  0  0  0  0  0  0  0  0
    6.2238    8.4882  -22.1405 C   0  0  0  0  0  0  0  0  0  0  0  0
    4.5835    7.7330  -15.8585 C   0  0  0  0  0  0  0  0  0  0  0  0
    5.4895    6.6195  -15.2821 C   0  0  0  0  0  0  0  0  0  0  0  0
    7.0582   11.2883  -21.8653 C   0  0  0  0  0  0  0  0  0  0  0  0
    6.2915    9.2644  -20.8136 C   0  0  2  0  0  0  0  0  0  0  0  0
    5.2192    6.6989  -16.7817 C   0  0  0  0  0  0  0  0  0  0  0  0
    7.1712    0.5634  -16.9824 C   0  0  0  0  0  0  0  0  0  0  0  0
    4.2904    1.7746  -20.5629 C   0  0  0  0  0  0  0  0  0  0  0  0
    5.0748    4.5606  -17.9799 C   0  0  0  0  0  0  0  0  0  0  0  0
    5.0901    2.6277  -19.5531 C   0  0  1  0  0  0  0  0  0  0  0  0
    4.2401    3.7845  -19.0051 C   0  0  2  0  0  0  0  0  0  0  0  0
    5.5249    1.7752  -18.4308 N   0  0  0  0  0  0  0  0  0  0  0  0
    4.3324    5.7151  -17.4349 N   0  0  0  0  0  0  0  0  0  0  0  0
    7.7684    2.1344  -18.6709 O   0  0  0  0  0  0  0  0  0  0  0  0
    7.2504   10.3385  -20.8220 O   0  0  0  0  0  0  0  0  0  0  0  0
    3.8675    4.6437  -20.0829 O   0  0  0  0  0  0  0  0  0  0  0  0
    8.2547   -0.3708  -22.5478 F   0  0  0  0  0  0  0  0  0  0  0  0
    4.9078   -3.1133  -20.5092 F   0  0  0  0  0  0  0  0  0  0  0  0
    9.6032    6.9740  -18.4392 H   0  0  0  0  0  0  0  0  0  0  0  0
    8.8202    8.2793  -20.4109 H   0  0  0  0  0  0  0  0  0  0  0  0
    7.9590    6.2754  -16.6972 H   0  0  0  0  0  0  0  0  0  0  0  0
    4.7894    8.1716  -18.9121 H   0  0  0  0  0  0  0  0  0  0  0  0
    6.6633    1.6297  -21.9206 H   0  0  0  0  0  0  0  0  0  0  0  0
    3.6665   -0.8385  -20.0380 H   0  0  0  0  0  0  0  0  0  0  0  0
    7.1897   -2.6444  -21.7428 H   0  0  0  0  0  0  0  0  0  0  0  0
    5.0287    9.9532  -23.1836 H   0  0  0  0  0  0  0  0  0  0  0  0
    6.0786    8.9534  -24.2442 H   0  0  0  0  0  0  0  0  0  0  0  0
    8.0991   10.0946  -23.3415 H   0  0  0  0  0  0  0  0  0  0  0  0
    6.9512   11.2937  -24.0277 H   0  0  0  0  0  0  0  0  0  0  0  0
    5.3835    7.7790  -22.1116 H   0  0  0  0  0  0  0  0  0  0  0  0
    7.1634    7.9373  -22.2950 H   0  0  0  0  0  0  0  0  0  0  0  0
    3.4996    7.7132  -15.6722 H   0  0  0  0  0  0  0  0  0  0  0  0
    4.9339    8.7755  -15.8745 H   0  0  0  0  0  0  0  0  0  0  0  0
    6.4857    6.8684  -14.8874 H   0  0  0  0  0  0  0  0  0  0  0  0
    5.0514    5.8060  -14.6851 H   0  0  0  0  0  0  0  0  0  0  0  0
    7.8516   12.0489  -21.8217 H   0  0  0  0  0  0  0  0  0  0  0  0
    6.0782   11.7734  -21.7459 H   0  0  0  0  0  0  0  0  0  0  0  0
    5.2893    9.6461  -20.5690 H   0  0  0  0  0  0  0  0  0  0  0  0
    8.2614    0.4414  -16.9024 H   0  0  0  0  0  0  0  0  0  0  0  0
    6.7687    0.9046  -16.0172 H   0  0  0  0  0  0  0  0  0  0  0  0
    6.7132   -0.4001  -17.2506 H   0  0  0  0  0  0  0  0  0  0  0  0
    4.0949    2.3707  -21.4664 H   0  0  0  0  0  0  0  0  0  0  0  0
    3.3350    1.4747  -20.1076 H   0  0  0  0  0  0  0  0  0  0  0  0
    5.3422    3.8859  -17.1533 H   0  0  0  0  0  0  0  0  0  0  0  0
    5.9913    4.9240  -18.4678 H   0  0  0  0  0  0  0  0  0  0  0  0
    5.9708    3.0450  -20.0631 H   0  0  0  0  0  0  0  0  0  0  0  0
    3.3482    3.3739  -18.5092 H   0  0  0  0  0  0  0  0  0  0  0  0
    4.8215    1.2972  -17.9047 H   0  0  0  0  0  0  0  0  0  0  0  0
    3.6712    5.3828  -16.7622 H   0  0  0  0  0  0  0  0  0  0  0  0
    3.8476    6.1674  -18.1835 H   0  0  0  0  0  0  0  0  0  0  0  0
    3.3509    4.1558  -20.7134 H   0  0  0  0  0  0  0  0  0  0  0  0
  1  2  2  0
  1  3  1  0
  2  8  1  0
  3  9  2  0
  4  8  2  0
  4  9  1  0
  5 10  2  0
  5 11  1  0
  6 10  1  0
  6 12  2  0
  7 11  2  0
  7 12  1  0
  8 20  1  0
  9 21  1  0
 10 23  1  0
 11 32  1  0
 12 33  1  0
 13 22  1  0
 13 27  1  0
 13 29  2  0
 14 15  1  0
 14 16  1  0
 15 19  1  0
 16 20  1  0
 17 18  1  0
 17 21  1  0
 18 21  1  0
 19 30  1  0
 20 30  1  0
 21 28  1  0
 23 25  1  0
 24 26  1  0
 24 28  1  0
 25 26  1  0
 25 27  1  0
 26 31  1  0
  1 34  1  0
  2 35  1  0
  3 36  1  0
  4 37  1  0
  5 38  1  0
  6 39  1  0
  7 40  1  0
 14 41  1  0
 14 42  1  0
 15 43  1  0
 15 44  1  0
 16 45  1  0
 16 46  1  0
 17 47  1  0
 17 48  1  0
 18 49  1  0
 18 50  1  0
 19 51  1  0
 19 52  1  0
 20 53  1  1
 22 54  1  0
 22 55  1  0
 22 56  1  0
 23 57  1  0
 23 58  1  0
 24 59  1  0
 24 60  1  0
 25 61  1  6
 26 62  1  1
 27 63  1  0
 28 64  1  0
 28 65  1  0
 31 66  1  0
M  CHG  1  28   1
M  END
>  <OMEGA_C>  (137) 
GPoIQdix50AdSpTBkO8BQeSU/0CuIZ3B+UL0QGb32kDec4zB68C6QOLE/UDdZJbBpdDJQA3JJz8G
96zBYWuTQKIYPr/he6TBN0PTQFvo4b8kM6zB60DYQCitBUHO8p3BZrXIQMwZ5kD4o43BbWGiQBeG
CD/0iqfB1EbiQODR+74OP6/BkrWrQL/58b8+4abB2ELbQDQzzD+3eZDBDJLAQAW2F0E6QLrB0Jrj
QNIMKUHbwLnBmSnHQIfPB0HDH7HBQKySQFZ090CLvH3BLKqvQN/S00Bdg3TB89zhQOicNEEr7K7B
BFTJQNA6FEE9gqbB1gOnQAdd1kD5QIbBJnrlQAo9ED/t24fB5kqJQBIl4z/EgKTB/2SiQI7wkUDk
1o/BHOKiQHQrKEC0bJzBx66HQMI0ckBnCpjB9suwQN044z87cpPBrKKKQBDitkCceovBAZf4QGSa
CED4XZXB3wLoQJJqJUFck6bBq4R3QEWZlEC0qaDBLRMEQfjevb7XYbTB4wydQHZAR8DuEqTBmqYZ
QU0r30Bqg5PBix8NQQV4BEF2SaPB2K/+QG3QyEDsk4XB3EKZQLC+AkEATJfB7DnVQEKa0D9dXa/B
rKhqQDmpVr/OTaDBFBLmQMk9KcA28a3BVOugQH1AH0EXeLnBN4TCQC1BD0EF9MHBDZYBQXGDIUFp
u7rB/m/eQBizNEHUOMDBeUWsQDHt+ECV5LDBKzrlQKD+/UA9XLLBX/lfQK7S9kCAwXrBeeKdQJlo
DEEk/n3BvYrPQIzJ20D9Mm7B86ShQAfLuUBZ9mrBtUD7QHnIQEHJkq7B14DCQAFgPEGc963BvEGp
QGVWGkFfjaTB4i4EQQYE4j4kOIfBbZnYQDuSZz8iI4DBwdLWQAbWzL5QAYrBygmDQHK5F0BGu6vB
5G9VQNXDvD923KDBgvOqQNKyeEAAOonBCbm/QBCRnUAAvpPB3hC/QJ7hQkBMgaDBPEhWQHTtV0Dk
EpTBw0maQGwKpj/LPI/BKfRqQENArEAWGYbBrj92QBRbxUDfd5HB0XRWQBj8hEAAtaXBlPoIQZUR
8EB4GJTBvYkCQVil+EAlqp7BFk/zQIKo5kBBNYzBEZm6QBhX8EBjXpnB2F7OQHpETj8wkqzBuBKV
QAu/Jr/tLabBmUDXQA4Qz7/ZFa3B+DjZQHY3+EDVb6HB+VzHQIdd50CRzY7Buz2lQAYxJT+YD6jB
dmznQLYxpr5GAq/Bxf6tQCTr47/uuajB3pnZQLdnuj/xXZDBUl/bQB/kJUGpHK7BbyewQO8OJ0GC
EKjB2vLiQIXKD0GXUrPBfu6RQMHj+kCO9n7Bdp2uQMJc10BYrHXBAKmOQB+8F0FD/qzBizTLQPPd
+0BVLq3BrVWlQKov2UBD54bB4f7hQHbWpT5Td4jBIXeLQPUb7j8QsKTByXyfQJXkkED3iI7BGkuj
QBLrKUCK4ZvBcCGHQOY2ckCNaJfB3H6vQNr53j9nJJPBGoiIQMlFuEDSXIvBHtr3QDQF/j8Z+pTB
kEedQKCeAUH/Ga7B2dp6QP3xlUCv7Z/BHJUHQUPgLL4wGrPBYnyeQLdfQcDf36bBzcEZQYK38EDx
CJLBGmoOQTWZ/0DwsaTBcGD9QOzl3kB1LITB/vKYQCM28UDfU5vBZp3aQAPp5T+4Jq7BpRtrQGcV
R79gyKLBbHvqQML8HsDJ867Bw47bQJYsMkEParTB4G/1QJwTKUGGaqjB+WK1QIicIkGupp/BHOKj
QJOIN0GJeqjBdULXQL4yEEHpnrvBlbkCQVtNDEHKSrPBwK1eQJHG+kANtXvBRY2dQH8MDkE2hX/B
Qb7OQKgm30DboG/B3IegQDzUvUCy0GvBujZkQMTQF0HZ2KfBMCeGQP/CHUGj+7TB+ubSQKRX3UBK
HrHBEkwCQTrRBD4cAojBlgbWQNVEHD+qg4DBI2nRQCXWFb8NLYvBNX6GQGG4IEDXq6vBfZFYQOTc
wz+wkqHB4o6iQLKYd0BAiIfBDIa/QMuAmUBlepHBN0DAQB9SRkD7Z5/BNFdTQJCRVkDDDZTBVx6Y
QKetpj+U9o7BP1tlQCu2sEAx1YXBXMlzQCFZxEDczZHBDMJcQCofh0DiZKXBPRsJQXkO50ABepTB
rQwCQZry/kChUJ3B+5X0QPuI2kAgmozB1wu7QONT/UCqh5bBBqeRQEiZPL9woqXB4ZzMQA95Jj+N
E6zBAxvTQAPy47+6P6zBZ3/YQJdlBUFvG57BWg3JQPbI5UCUw43BKSijQOwdCj93pqfBwn6pQJeD
8r/+/6fBgqLkQGASAr87S67BDf/aQA0wzT+bb5DBDu/AQALyF0HiU7rBC5LjQDd5KUEKuLnBS9zH
QI7bB0FaTLHBTR+TQCkG+ECxGn7BJB6wQPGy1EDqmnTBsafhQE68NEGUzq7B0JbJQNEMFEGTnqbB
uWqnQGJx1kBsT4bBUgrlQIFEED/T3ofBuQqKQFez5D/3taTB63CiQDngkUBq24/BxwijQAauKEBW
fJzBPZuHQGYvckB/DpjBiKiwQB4T4z+HipPBCdiKQJbNtkB3bYvBsWz4QMZQCkCtJpXBIwnoQCNW
JUEKkKbBk8J2QBCglEAypaDBDWWYQARxR8A0NabBV0EGQWzhy75QZrLB4sMZQcde3kBBu5PBmzcN
QZofBEEUfKPBaAz/QER0yEAVuIXBy4yZQMGFAkH5bJfBR+FjQDVWU79FRqLByePZQJr9zz+7wq3B
YY/lQGXUKsAc8K3BYByhQB9JH0FfgbnBKxfDQMawD0G7FMLBm6YBQV0lIkEKw7rBuRfeQBpFNUHA
GsDBNEWtQFmo+EC5JrHB9irmQCmM/kBHkbLBEuNgQN+A90ATGXvBZFieQFOvDEEHpH7B0QLQQCrc
3EABYG7B9RuiQGP+ukAN1WrB9Nv6QL/9QEHqX67BrC3CQAZaPEGmzK3BGmSpQBIEGkEBr6TBxPYD
QYPl6D5oFofB5nrXQIVxYz9DLYDBx/LWQDA0zr6SKorBBoCEQH6pGEBi9qvB4TtWQF/evj9PPKHB
mBqrQHZjeECGRYnBpbS/QNaInUClyJPBxVu/QDfvQ0BxcqDB/nNWQE1vV0ALEZTBjw6aQD83pD9J
do/B1whsQH0mrEAF+IXBY+t1QBowxUBrXpHB4pVVQBf/hEDLrKXB0TUKQXgy40ASepLBwxQFQYYA
9kD4ZJzBatbzQMC72kBG/IrBfze/QD+O+EBoNZfBtceUQOiSNr+w8qTB48vMQC4cND/+g6zBrVbW
QIbc279q4avBOBrfQAQ2AEGYvZ7B0zvJQHGi5UCTfI3BX0ikQHoUEj/ynKfBd7itQExy7b8NHafB
4+HlQFiO4L5gkq7BQqTcQDJzyj+d/5DBadGeQDTWEEFPZbfB+ELFQEz0FkGbhr7BJoutQL5kAUHX
o67BBYWOQHGF/kCWloDBHH+oQDKE3EBxyXTByIXrQJQUH0G51bfBwDLSQIKJDEHndKjB61+kQJzf
2UBgjIbBJ0nnQJ4eED9LUIjB3KOKQP415z+zmKTBJ6CgQPYKk0AZco/BWUijQAy1KkCbVJzBCvOG
QL7FckCLxZfBXeKxQLOz5z/HdZPBroyIQNMKuUDqlovBbaf5QB5oBUBkPpbBMn/1QCjnD0E5lq/B
g0l0QFzElEDyVKDBj+aeQMxGRcD5fKTBQ44GQWj/nL6YA7PBwJ0aQfVH20D9npDBjoMRQVhu/ED4
LKLBn2z7QP8IzEA4ZoPBAH+eQIKeAEF68pjBTH5rQOPkUb8nPqHBwo3YQHtO1z+xsK7BjY/pQMbx
JcDMeK3BYoKRQJJZH0FZsbPBvhmGQIUTCUGkULzBQFzPQLjJCEHOGMPB3VC7QL6mI0HkFsTBe9mS
QLuv+0BzL6nBBi+5QAvd5EAkP7LBn95WQCtZ/0Ct0H/BetSaQOGtD0HbWIHBjVXHQPAZ5UBPd23B
YvCXQFkXxUBHlmrBFcIDQSwiIUH1Eb3BDzjjQEeHLkEpKrTB/R7GQEAzHEEH0KXBQhEFQZTx0z5h
+YfBI9nbQLTybj9fiYDBTorXQNRVyb5QKorB1b2EQDH/GUDs0qvB5MlXQIpBvz9eHaHBAMKnQAFX
fEB5lojBzb6+QCDUnUCiHZPBVhy/QCawR0DvUaDBrq5VQL0zVkD825PBiKmbQCrNrj/+7o7BX/Jl
QIBbr0BQM4bBrQNzQKhbxkAK0ZHBf6VUQNS/hEBZcKXB+/cLQRZf60CTNJDB0jUJQYz7+UA1u5rB
6i/0QH7T4UCT14nBw/DEQJBZ9kBGgpjB7MmWQJDdL78TnKXBUgrOQA7+Tj84iazBPPzYQFSxzb++
5KzBvxjpQDgV/kDGFJ/BO4DKQMw26EAr3Y3B7KKlQGajHj9hs6fB/mGwQFAr5r/ZO6jBes7nQOBp
m77/Cq/BQzHcQOj8vT8Ev5DBIta0QHzEJEF0uKrBGnKQQH+CFUGEPa7BIpHhQOzdG0EHYq3Bc5aN
QADH/UDxkYDBVqqmQAif2UCzA3bB+T+hQAaJAkHE77TBN/vkQPSQA0GW/qrBCcKjQOxq20DRR4fB
ThTmQKrMyD6Cl4jBzDWLQH9n6D9RPaTBfgmgQLJkk0DRJ4/B0U6jQEm0KUDutpvBLFGGQI8HcEDQ
EZfBeJSxQGzx4j8R85LBS6CIQD4ru0BsjozBDWn5QLQz/D9lBZbBesbBQEa97UCnL6/Bf1ZuQJY0
kkAgn5/BcziiQP8YQ8CRIabBEn0HQXBn9b0HZrPB1+MbQR1250Ab/ozBGwMXQSQPAUH+g5/BxJv4
QE+N1UBi14HB5hylQD5F+0CrpJvBzIVvQM21Vb8l/qHBUC7ZQDg85z/PT67B5L/sQPdqHcBl0a7B
zbuwQHUuNEGs167BraCyQFo5J0EwBqLBunWAQKQ2D0FZD6fBlY5yQBqUHkEkErPBhxfoQCyLHkEc
7bXBAYH5QBRqJEGfjKjBv+dUQCSb/kDdE4DB4CKaQOBUD0GFfYDBAifFQIOj4EBs8m3BAXiVQOeU
wEAbH23BXYCGQK1h70BZwrbBpe6uQGmqCEFfcbzBPFIBQQHg+0CDzq7BdVAEQRUJOj44nojBB1Tc
QCCiOj+/k4DBlGbUQP6XBb/AsorBarGEQBC2HED4P6vB5JRZQGUeuz+U1aDBnFWlQJoEgUB8xIfB
ORO/QDaom0B9wZLBpjm/QCn3R0ATg5/Bx8tWQNTxUUB005LBTjObQADbrT/bSo7BaqdgQOfps0BW
rYfBfkx6QLinx0AlV5PBS4lOQLIvgUB2gaTBNVUMQSOj6EDRTJDBgsUJQSbj+UCilZrBEbb0QJQQ
30BbBYrBBgLGQA8y+EDoV5jBE7jNQH4TTD89qqzBSyCWQA4NMb8V0KXBTj/YQGNjz7/TEa3BtFzq
QFhmAEHwy57BbTvLQCmn50Ag543BUjelQP4NHT993afBQU7nQKcvo75/L6/BYpGvQLky57/kcKjB
WjHcQPBVuT8CGJHBpmmqQD9PIkFeO6rBiWaNQMidEEFPAa/BQ0faQK8fHkGJVazB8V+OQKhL/UAB
koDB7HinQEDt2EDzLnbBe+mmQM8ZAEF3nbXBE4DmQHhMBkGokarB5FakQNIG20DGWofBsl/mQGXI
2j7VYojBbPqKQNgJ6D/6X6TBOTWgQA79kkDeNo/BVC+jQKgKKUC20ZvBv0KGQAggb0DIE5fBTpKx
QDVH4D/RIpPB/A2JQPb1ukCVpYzBIXf5QDAiA0AmhpXBMDfJQDcc7kCHYq/BOkxtQCbBkUC/k5/B
MEMHQc5bEL5Kh7PB9SihQASGQ8D1Y6bBxDEcQf214kBlNY3BeLAXQUn0AEHhS5/BpdH4QDwS0UAa
MILBOkqmQOhM/kCZapvBFxLZQAud5T8bZ67Bvg9uQI3oVb/3OKLBQOTrQAtvHsAH/67Bs56hQCC9
MUGt2a3BNB+lQKQEI0ECiqHB+0x6QB8/CEFhaqjBL9JqQHEpGEFUObTBF6fhQIaEIkFWp7TBGUzt
QD8ZKEFY3KbBv4BWQPIz/kAyCYDBlQKbQL8SD0HmdIDByg3GQFvE30DeKm7BlUuWQNDSv0B2U23B
mT6RQHBo5kDpKrjB8Gm0QFkMCEFJtLzBIRwDQWf4A0HRM67BxpwEQY5Jvj6eO4fBmgrXQLzrOz++
2oDBmS/aQJFVD79xyorB9piEQAXLHEB+XqvBZvhYQIA3uz+p/KDBonylQO28gEBhzofBIEC/QPEB
m0C52JLBdA2/QDqHR0B6nJ/BhShXQJHFUEAyxZLBkkubQKfQqz+0a47Bl0FhQKnos0DqyYfBjIx7
QMmAx0DscZPBczpNQNa0gEBubaTB

>  <OMEGA_E>  (137) 
2Ij1Pojp9z44D/U+7G0IP8jvAz/o0gI/

>  <OMEGA_NBR>  (137) 
    263182

$$$$
50214098
     RDKit          3D

 73 75  0  0  1  0  0  0  0  0999 V2000
    8.8879    7.1088  -18.0580 C   0  0  0  0  0  0  0  0  0  0  0  0
    7.7740    6.6887  -17.3168 C   0  0  0  0  0  0  0  0  0  0  0  0
    8.7321    8.0041  -19.1226 C   0  0  0  0  0  0  0  0  0  0  0  0
    6.3303    8.0677  -18.7107 C   0  0  0  0  0  0  0  0  0  0  0  0
    6.4215    0.8219  -21.5340 C   0  0  0  0  0  0  0  0  0  0  0  0
    4.5958   -0.6347  -20.8149 C   0  0  0  0  0  0  0  0  0  0  0  0
    6.6726   -1.5993  -21.6546 C   0  0  0  0  0  0  0  0  0  0  0  0
    6.4764    7.1803  -17.6079 C   0  0  0  0  0  0  0  0  0  0  0  0
    7.4571    8.4857  -19.4705 C   0  0  0  0  0  0  0  0  0  0  0  0
    5.1221    0.6571  -21.0058 C   0  0  0  0  0  0  0  0  0  0  0  0
    7.2005   -0.3065  -21.8450 C   0  0  0  0  0  0  0  0  0  0  0  0
    5.3675   -1.7614  -21.1464 C   0  0  0  0  0  0  0  0  0  0  0  0
    6.7414    1.4597  -17.9664 C   0  0  0  0  0  0  0  0  0  0  0  0
    5.2755    8.0563  -14.0987 C   0  0  0  0  0  0  0  0  0  0  0  0
    4.9350    8.8261  -15.3871 C   0  0  0  0  0  0  0  0  0  0  0  0
    6.2005    6.8658  -14.3915 C   0  0  0  0  0  0  0  0  0  0  0  0
    4.2936    7.8904  -16.4219 C   0  0  0  0  0  0  0  0  0  0  0  0
    5.5828    5.9451  -15.4616 C   0  0  0  0  0  0  0  0  0  0  0  0
    5.2329    6.7093  -16.7889 C   0  0  0  0  0  0  0  0  0  0  0  0
    6.9744    0.3421  -16.9529 C   0  0  0  0  0  0  0  0  0  0  0  0
    6.0124    8.0730  -22.1014 C   0  0  0  0  0  0  0  0  0  0  0  0
    4.9312   10.1165  -21.0140 C   0  0  0  0  0  0  0  0  0  0  0  0
    7.3962    9.5759  -20.5446 C   0  0  0  0  0  0  0  0  0  0  0  0
    4.3207    1.8591  -20.5779 C   0  0  0  0  0  0  0  0  0  0  0  0
    5.0935    4.5626  -17.9778 C   0  0  0  0  0  0  0  0  0  0  0  0
    6.2380    9.5057  -21.5706 C   0  0  0  0  0  0  0  0  0  0  0  0
    5.0850    2.6322  -19.4872 C   0  0  1  0  0  0  0  0  0  0  0  0
    4.2352    3.7793  -18.9525 C   0  0  2  0  0  0  0  0  0  0  0  0
    5.4380    1.7238  -18.3759 N   0  0  0  0  0  0  0  0  0  0  0  0
    4.4213    5.8165  -17.6290 N   0  0  0  0  0  0  0  0  0  0  0  0
    7.7045    2.0003  -18.5000 O   0  0  0  0  0  0  0  0  0  0  0  0
    3.8370    4.6271  -20.0299 O   0  0  0  0  0  0  0  0  0  0  0  0
    8.4570   -0.1482  -22.3182 F   0  0  0  0  0  0  0  0  0  0  0  0
    4.8572   -2.9992  -20.9646 F   0  0  0  0  0  0  0  0  0  0  0  0
    9.8711    6.7397  -17.8060 H   0  0  0  0  0  0  0  0  0  0  0  0
    7.9065    5.9803  -16.5125 H   0  0  0  0  0  0  0  0  0  0  0  0
    9.5978    8.3277  -19.6814 H   0  0  0  0  0  0  0  0  0  0  0  0
    5.3476    8.4297  -18.9747 H   0  0  0  0  0  0  0  0  0  0  0  0
    6.8163    1.8135  -21.6990 H   0  0  0  0  0  0  0  0  0  0  0  0
    3.6006   -0.7596  -20.4144 H   0  0  0  0  0  0  0  0  0  0  0  0
    7.2683   -2.4666  -21.8983 H   0  0  0  0  0  0  0  0  0  0  0  0
    5.7783    8.7372  -13.3961 H   0  0  0  0  0  0  0  0  0  0  0  0
    4.3444    7.6845  -13.6461 H   0  0  0  0  0  0  0  0  0  0  0  0
    4.2318    9.6375  -15.1484 H   0  0  0  0  0  0  0  0  0  0  0  0
    5.8576    9.2525  -15.8080 H   0  0  0  0  0  0  0  0  0  0  0  0
    7.1687    7.2417  -14.7541 H   0  0  0  0  0  0  0  0  0  0  0  0
    6.3535    6.2914  -13.4659 H   0  0  0  0  0  0  0  0  0  0  0  0
    3.3588    7.4865  -16.0061 H   0  0  0  0  0  0  0  0  0  0  0  0
    4.0713    8.4654  -17.3329 H   0  0  0  0  0  0  0  0  0  0  0  0
    6.3008    5.1451  -15.6947 H   0  0  0  0  0  0  0  0  0  0  0  0
    4.6605    5.5035  -15.0561 H   0  0  0  0  0  0  0  0  0  0  0  0
    8.0548    0.1695  -16.8385 H   0  0  0  0  0  0  0  0  0  0  0  0
    6.5447    0.6317  -15.9826 H   0  0  0  0  0  0  0  0  0  0  0  0
    6.4913   -0.5805  -17.3071 H   0  0  0  0  0  0  0  0  0  0  0  0
    6.9604    7.6712  -22.4883 H   0  0  0  0  0  0  0  0  0  0  0  0
    5.6491    7.4324  -21.2843 H   0  0  0  0  0  0  0  0  0  0  0  0
    5.2665    8.0947  -22.9096 H   0  0  0  0  0  0  0  0  0  0  0  0
    5.1292   11.1340  -20.6460 H   0  0  0  0  0  0  0  0  0  0  0  0
    4.1759   10.1561  -21.8127 H   0  0  0  0  0  0  0  0  0  0  0  0
    4.5585    9.4938  -20.1874 H   0  0  0  0  0  0  0  0  0  0  0  0
    7.3199   10.5438  -20.0275 H   0  0  0  0  0  0  0  0  0  0  0  0
    8.3394    9.5351  -21.1092 H   0  0  0  0  0  0  0  0  0  0  0  0
    4.1565    2.5163  -21.4447 H   0  0  0  0  0  0  0  0  0  0  0  0
    3.3502    1.5284  -20.1795 H   0  0  0  0  0  0  0  0  0  0  0  0
    5.2508    3.9660  -17.0672 H   0  0  0  0  0  0  0  0  0  0  0  0
    6.0652    4.7852  -18.4428 H   0  0  0  0  0  0  0  0  0  0  0  0
    6.5371   10.1219  -22.4313 H   0  0  0  0  0  0  0  0  0  0  0  0
    6.0039    3.0463  -19.9280 H   0  0  0  0  0  0  0  0  0  0  0  0
    3.3578    3.3730  -18.4280 H   0  0  0  0  0  0  0  0  0  0  0  0
    4.6928    1.2702  -17.8872 H   0  0  0  0  0  0  0  0  0  0  0  0
    3.5801    5.5968  -17.1350 H   0  0  0  0  0  0  0  0  0  0  0  0
    4.1947    6.2990  -18.4751 H   0  0  0  0  0  0  0  0  0  0  0  0
    3.2996    4.1346  -20.6391 H   0  0  0  0  0  0  0  0  0  0  0  0
  1  2  2  0
  1  3  1  0
  2  8  1  0
  3  9  2  0
  4  8  2  0
  4  9  1  0
  5 10  2  0
  5 11  1  0
  6 10  1  0
  6 12  2  0
  7 11  2  0
  7 12  1  0
  8 19  1  0
  9 23  1  0
 10 24  1  0
 11 33  1  0
 12 34  1  0
 13 20  1  0
 13 29  1  0
 13 31  2  0
 14 15  1  0
 14 16  1  0
 15 17  1  0
 16 18  1  0
 17 19  1  0
 18 19  1  0
 19 30  1  0
 21 26  1  0
 22 26  1  0
 23 26  1  0
 24 27  1  0
 25 28  1  0
 25 30  1  0
 27 28  1  0
 27 29  1  0
 28 32  1  0
  1 35  1  0
  2 36  1  0
  3 37  1  0
  4 38  1  0
  5 39  1  0
  6 40  1  0
  7 41  1  0
 14 42  1  0
 14 43  1  0
 15 44  1  0
 15 45  1  0
 16 46  1  0
 16 47  1  0
 17 48  1  0
 17 49  1  0
 18 50  1  0
 18 51  1  0
 20 52  1  0
 20 53  1  0
 20 54  1  0
 21 55  1  0
 21 56  1  0
 21 57  1  0
 22 58  1  0
 22 59  1  0
 22 60  1  0
 23 61  1  0
 23 62  1  0
 24 63  1  0
 24 64  1  0
 25 65  1  0
 25 66  1  0
 26 67  1  0
 27 68  1  6
 28 69  1  1
 29 70  1  0
 30 71  1  0
 30 72  1  0
 32 73  1  0
M  CHG  1  30   1
M  END
>  <OMEGA_C>  (138) 
7zQOQWJ740CvdpDBQMT4QPIJ1kDciIrBpbYLQaoQAEEE+5jBkpHKQGEVAUFvr5XBxHzNQPpkUj+4
RazBwBCTQOZ8Ir/0hKbBAobVQO+2zL+3PK3BfD7PQPHE5UAP3YzBqqDuQD7FB0Grw5vBPOijQEo5
KD/YC6jBMGrmQE7qnL6Hwq7BgMKrQER04b/sK6nByrnXQHDXuj9Fu4/BxtCoQKzmAEEXlGHB6uud
QLU3DUGZMXbBzmrGQNa020CEQ2bBRGWJQHx+/EAUYIPB6KWyQKg+vkCXYnfBFnSnQM2y1kC3T4bB
bC7fQBMjrz6Hn4fBPGXAQOYqAUGez7DBbsydQEbdIUG7HKjBnq3sQMU2GUFLW6TB9EKKQEv47T+h
n6TBtv2iQBsBkkCX0o/BwJ3HQCcXGEGjkKzBtLiiQMJ2KEC95ZvBloaHQHPfcUC4npfBWASuQAGm
3D/TAZPBmHuNQLYgukBECI3BpIv2QNsEAEAQAJTBp5B1QJcRlEAwPaDBBVAHQXDLF76hi7LBLG6b
QCnyP8B7t6fBBvAdQVyr10Cdco7BrgH9QJdev0CKGYTBgJAZQT8+BUFsc53Bch+rQPTfBkE3zJfB
GR/aQBAg6D98l63BlXBmQHd0Qr+iUKPBB5boQBHdHcCnL6/Blue4QG7LC0E5VlbBNQWLQGHn9UBx
VlrBnGqHQEIzGkGzX3LBV3G7QBUKFEGH7XzBv2XlQMC750CgEGzBQFDLQH5TyUBldFfBafZWQCuR
70B0DIDBa0iCQHNyB0HcqYrB6Z/JQJKkpECKHXvBBSOVQFscsEDE5XDBQuAAQX2NLT4rtYbBOG7R
QKO4IT/JuH/BGrnPQKidFL/wdIrB0rveQER69UAS6LPBOcW0QPTV7UAzRqrB1IaoQAiEAUHHRrfB
ICKkQAIlMkHqKqXBtqCFQIx/IkFwgK7BG9+RQH/mF0Hcf6HB6DzqQEGzKEFQOKDBBG4FQcOPGEGZ
36jBpwGFQLsKIUCqjqvBlGlWQHSiwz+Qb6HBhQaoQOLSfUCYiYjBLRbCQIUgmUDSipPByS/RQCTz
IUFlc7PB1R/AQJr2QkB5bJ/BleVWQDbfV0CQbJPBCSuWQGuVoj8QGY/BRSBlQJcYs0CUFInBITuG
QFiRyUAFzZPBDCxTQM1OhEDWHKXBVYsMQWoV5ECAH5HBTiD3QItR1UC4sYrBmZ4IQSCgAEGtcZnB
BF7FQGYyAEEw+5TBxmDNQHdGUz/8iqzBfnWSQIwCGr8goabBmt/UQGnQzL/bDK3BvKzMQCgd5EAg
bIzBUjfnQI+2B0EXXpvB6J2jQL+jLj9XYqjBwB7mQBidob60xK7BJvWqQH7l3r9OCanBevfXQDAv
vT+J/I/BGIKpQCS/AkFFEWLBNmabQBh2DUGVEXfBhIHHQCI930DEMGbB8ImGQOu9+UAu5YLBph+z
QP3gvkCB33XB8PilQMO01ECeqIXB+qrfQMyGxz6gpofBXsaqQG1iKEGueLDBKC7IQGAKA0EXTLPB
TtreQIxNGUHzW6PBKoeKQK0l8z+vCaXB5LaiQEA7kECuUo/BGJG5QK27E0Ho/qrB2vOiQO0vKUAf
JJzBmtSHQE2AcUCGl5fBWk2uQMvx2j+FbZPBijaMQEYkt0DNIYzBGqr2QC/FAUCkPJTBuUl4QGVm
lUBMAaDBAkUHQXKhNb4rdrLBpFqaQKwvPsAmX6fB8KEcQevv2EDdpY/BG2n9QH2IvkAMZITB/KcV
QeVcBkEHVp7BshylQLxiBUGwrpbBqkzaQEat5z88A67Bxg5lQMLINb+CcKPB78jnQGWFHsBiz67B
X2q6QO2YDkHeLFjB1vSMQCcd+kA+fVnBPjaEQCk3GkETgnPB3X+3QB1hFEF9GX/Bta3lQDET60Bq
Dm3BKBTOQF8Gz0Ac61bBkJBUQPhP7EBjuX3B3DN5QNjJBEH9WYrBsWXKQFFepUBCSXnB9nuWQM3u
sEBbYm7BsSQBQSNSeT74kYbB+DnRQLEdMT8g/3/BSAjRQP4SDb92X4rB4IqgQMn+M0FtX6rBQl3F
QJIoL0FvI7XBoMyPQFLTJEFc1rXB1prSQDLS6EBFKK/B+matQBR2/kCRrrjBnPfiQEmQCUGj+7fB
ctPWQNAOKEF7AJ/BtPz7QHXlG0HcH6jB71iGQKBFJEC79KvBWvJVQM9zyz9hB6LBCpOnQKc2d0DK
S4jBfu7BQPWimEDTzZLBq/CeQB4SDUFJTabBcVbAQIZ/REArlJ/B93FWQBOhVkDUt5PBD5qWQOey
mz8GyY/B0u9kQCO2rkCm34fBeuqCQPN/xkAhwZLBiLlWQP6VhkC1JaXBoO4JQWiQ7EAKRpPBfuP0
QIhH4EDjtovBC6ADQZrf+EBHlZ3BxX68QPQm70Dqn5jBtTHMQHbsQj8qQazBSauSQAqpLb/VuKXB
B/3UQNep1L8LW6zBv53IQAWm4kBFNo7Bk57bQN11+EBnWaDBF+uiQLgLHD8d0qfBF1DlQNBXv74v
cK7BgZarQMr857/NC6jBiNvYQDeKvz+P9Y/Bg0qoQKwIBEHU0mPBlnmcQJKRDkEnO3nBAGLHQCav
4kAIOmfBmjSHQARK/EBG/4PBVUm1QE1+wUBFNXfB5f+kQDir1UBeTobBWS7iQBi71D57q4fBXmTh
QC+6JkHZE7TBgvSbQICqI0GUqKnBAS/OQFgTBEGyIqvByGKJQPWM6T9rkaTBWjWgQGjljkB8847B
4x7LQOOxHEFjYarB4b6hQBXQJkC425vBJ8qFQEbTbUDkPZfBGrGuQDhC2T8CIZPBwIaJQODjtUB0
tovBNrb2QOa3A0DUeZTBe49yQLpKk0DZop/ByJwGQa+IaL7BcbLB8OObQDjyQsALBqbB06waQXuD
7EDqIpHBu9n+QKPx1EAN8YPB3ncPQcRRAUG/YaPBjf2aQNeQ8UDap5rB2XfYQOy/3z+2963B+jJm
QO5YS7+5VKLBnDboQGwfIsAaEK7BFXy3QL4EEEFGaVnBiwGLQPkI/EDKIVzBSimGQLXcG0HQTXbB
paS5QMu7FEE+dYDBMcXlQCw/70ARgm3BoR7NQPDU0kDKxlfBk5NTQL2M8EBkKIDBtC9+QNj4BUES
nYvBrLLOQOtXqkDY/nrBjWKaQEbHsEAQh2/BxH4CQVA2kj5m4IbBraHUQBTXNj+h0H/BcaLTQGlz
CL8BP4rB+3cBQf1rIUHXWLTBMPXQQG2zIUFLcbvBRkTgQG5EOEGKaLPB1/uMQKEwHEE4oKLBMD6a
QAYuNUGp5qjBGe+KQAWdHkFp77DBygfmQNn0/kC+L7HBB+CuQNWR+kCWSq3BooWEQE02HkDak6vB
2kpUQIu8wD9iaqHBKiylQLCpdEDy6ofBEmO/QGWIl0AWa5LBL7vbQH/uIUG3E6PBY2S+QFW3Q0A2
ep/B/yNTQMRrUUBUXJPBg7yXQJIKmT/1Qo/BteRjQFKqrUDktYbBSSJ6QIB4w0CtQJLBa6RRQHoU
hEBaxaTBmxcJQRX67ECWFpPBQnbzQAu82kAkQIzBzrECQZwaBUGI+JrBf926QPbh/0AF45XBwTDM
QNk1VD+pyKzBWUCTQE1XIL8yJabBPmzVQLqyy7+EB63BSnHHQIF75UBBUo3BcqXZQBPiCUFISZzB
BDCjQDpIKj/4OajBXm7lQHgMmb6YFa/B6kCsQF9x4L9SmqjBgU7aQMiguz8Eu5DBflatQOI7A0Eu
u2LBmBmbQI1dDUFSNnfBVf3LQAM24UCmz2fBM+KEQItY+ECPXoLBYaK2QMarv0A7knbBjpekQGhd
1EBhtYXBIGTjQMtu+j7DoofBAwuzQNfVA0HKjbPByOTXQFxqJ0H5pLbB8fbLQLy4GkFuGqTBzM2J
QAN97z/YxKTB62eiQN3mj0A4SI/BI8jVQEdzE0EBkK/BY96iQB/+KEAGIZzBOGKHQDEDcEC3apfB
oPivQF8F3T/zcJPBwIyKQPlLtUC9m4vBexD4QDw0BEC39pTBUat0QLqNlECDuZ/BF5YGQQZoD776
KbPBKuWcQKZpP8C+kabBg8MZQRB/5EASRZLBIV39QHJlxEDvI4bB+H4OQVqtDEEWBaDBNEiZQGhk
AkFuhJfBDCfYQJvb6D8ugK7BxbtnQJQWQL+VqqLB3rXoQEBUHcDj2K7BOOG+QLuID0GTs1nBiLSS
QLFR+kD09FjB3syDQLjTGUHS4XLB50y1QJKOFEEgQYDBpZroQBL97UCU02/Bo2XVQEua0UDpwFjB
VW9VQIQl6kAPWXvBNW9vQGarA0FwnonBDIvOQPtfp0A29nrBJzGcQOtWsECS123BoAADQf+t6z6a
DYbBXHDSQF1PUT+UYoDBOEXYQLXdA7+/6InBQDiyQEdX60DAVa7BrrCTQCPUC0EyYrPBvnC6QFi/
/UC7yrvBtN3wQOg/MkHpn7PBdonfQDKxIkFI577BZsm4QKqlL0G/frbBE12pQHOBHUERSKPBN1jd
QH6nKUHobKLBnVOEQPG6IUDZsqvBtLJVQC7axT9NfKHBUG6pQD+wdUDfc4jB9JHAQFg1mkDOA5PB
Kf/0QBBSC0Hksq/BmXG/QM2NRUA105/BWtBWQA3QU0CmZ5PBmP6YQE1Ioj8yQY/BreZlQAhOq0BI
0YbBwhx8QAj2w0AF/5HBo+FSQOR4hUB6y6TBWGQIQTsI9EDwC5PBNNvyQBiF30ATZYzBg4EBQdIz
CUE/lZrBrQO5QJheAkG4i5XBn2HJQOpyUD93Tq3BtnKTQLNZKr+iiqXBn2rTQAITzb9Y163B+JLG
QFgP6UAHRo3B4PXWQIRpDUFv2JvBRh6iQDwdIj8G7afBKhriQML+mr7CNLDBC+yrQPIm5L/XlajB
B0HbQOSfwj9Ra5DBnWKtQKQVAUGDE2HBUc+aQKpsDEE12HTB3qXMQPtY3kCXeGfBG7yEQGgg+ECk
vYHBcLy3QIyUvkBHRXfBJ7CkQPZs1UButYXBliXlQC+z3z4iLojBQT/0QNW+EkEi1rPB7i2tQI6O
AEH/dLDBDDvHQNn+HUEyz6PBsdWIQK9z6j/7Q6TBLayjQHwDkkCbyo/BCX/GQHSyFUGDda/BrwKj
QO1xKEBLBpzBoQCIQOgMcUDLcpfBtcqwQBW53j/oQJPBphWLQC20tkDg3ovBtMT4QEMbBUAkF5XB
06BzQOLWk0DX45/BdOIDQWjOAb6iVLXB0G+dQAnOQcBzeabBdzEZQaZu7ECZXJLBIaD9QEZZyEDE
k4bBTRQNQYqnEUEUaZ/BzDyXQGh6BEFICpfBRG7UQKOs5z8GMq/BlPBqQLd4Tb+QYqHB+m7mQDh2
HcChDrDB13u+QA7iDEEpNFfB7vySQPEz9ECKwlfBqFWDQDt6GEERrW/B3NO0QJRRFEExsH3Bquzo
QPW67EDOGG/B1IXWQFHlzECDAVnB04xVQF516EDUinrBwp9uQJp2BEEztYjB0BjQQOd5p0CkjnzB
e9GdQJOFrUCR9W7B6f8DQcgimz6YkYfBvEfYQCKEPD/uWIDBlUfWQNR6Ar+Rr4rBN/wCQbjgIUF6
FrPBkVkCQWgyBkGpPK/BArfyQL8MDkEPT7zBs56MQF/XAkFqUK3BDXWrQBWg90Cb67jBLHG9QGfr
50A12avBbJGmQKvFIkFyj6HB8H/cQEX/K0FoaqPBuZ6BQGw/HkCgL6vB54NVQD9cvz9FkqDBWSGt
QPtRe0AfA4nBD3nAQJBfnUCP+pPBOVi2QDPKIUGharTBTEC/QBCyQ0ABBqDBnShZQCQDVkB3FpPB
ACGaQE25oT8hFo/BshdnQP7Sq0DXLofBrP18QIDvxUC7KZLBDupQQC/6g0AMtaTBkX4IQQuU50CT
RJTBoADzQBNX3EBRYozBI7sBQexU/EBLoJ3BRjq6QOlM/EBoDJfBWXHKQOyfPj+IyazB+UKUQPiD
NL9nx6TBk0LUQD5V1r/H0azB1hPHQJXR5kC6ro3B2ArYQB3/A0Fg3J7BTA+jQB64FT+FaafBohnj
QB/OxL4IcK/BbbWsQMq96r8MjafBlFvcQPVTxj/oaZDBzO+rQDSLBEHNZWPBKAmbQFu/DkEtI3jB
J3rKQE+f40DtF2jBDb2EQNF/+0DM8YLBMG61QP86wkA6AnfB4P+jQADU1kAuAIbBQZzmQCxqAz94
04fBm1nQQCi8KUHGPLfBvEv8QGFGLkEbqKbBzULHQBrzDkG0yKjBM6OJQKr05T/WDKTBJQCjQLcz
kkCzu4/BHBjoQAmrHUHoWK7BA3SjQGZ2KEC29JvBZ/qHQOcgcUCQi5fBQrWxQMx94z+oAZPBUziK
QPAEt0AE3ovBGpL5QBHGAkB4pJXByN10QDyUk0DFHKDB43IEQagia741jLTBkSmeQAWLRMCOJ6XB
ujkZQWw+4EAdIJPBtmn9QI2dy0ADSYXBhhsNQcCyAUGT4qPBkNSYQHDuAUFjN5jBFaPVQHzP3T8L
3a7BRl1sQISiU78Ro6DBLzTnQEalIsDj2a7BvjG9QAHDEEFpH1rBC6yQQLIq/UDy/lnBJQ2EQF51
G0FZH3TBO/K1QP6iFUFok4DB+IPnQKse8EBa1W/BYCTTQIAG1EAH7FjBontTQD3/7UDN1XzBIHdx
QNxPBUFXTYrB12LNQKvaqUB+OHvBprOaQOf+skADdW7BsbAEQcADsT79iYfBP4LbQP0PYT83AYDB
slLWQKMq3b7gvYnB2sbBQMgsHkGJyLzBHy23QN/EM0HUrbPB4BLnQEfrM0Ggn7vBor0GQRrlJUFw
OKDBYmkJQXlwOEHpHavBBO3iQBBKOEEdLKPBYVO9QD6OAkFehK7BPFyrQGWsGEHNg6bBzIiCQOdP
GkANIavBkABXQFhBvD/tUqDB8/urQAWde0Du64jBshbAQGOYnUDWyZPB28wAQVjWE0FF5rHBeHa/
QNPZQ0BsCqDBU3NYQLIOVkD5UZPB8UibQE3Rqj/4h47Ba4lmQLA/rEBt/IbBQrN5QGN9xUDYK5LB
dhVTQFqEg0DE/aTB/IUJQXXl8ECaJJTBxC71QGM25EDfVozBRpwCQQ2k+0A4fp7BHUu7QB5p8EA0
ApnBI4fNQKTYQz/kUKzBhc6TQHKmLb+w8KXBV0nWQCAi1L/Xg6zBm6rIQH3V5ECBmo7BY1PZQILR
+UBLCqHBBiSkQJxMHD+/86fBz7DmQImivL4Zgq7BeMSsQG3K57/rR6jBfIHYQEvFuD9tyI/BH4Wo
QF1HA0HItmPBvPmaQOsHDkGXwnjBj1jJQPoA40Ai1WfBXfmGQHML+0CB64PBeTy4QFKuwUBM/XfB
FUCmQOX31UDBhYbBmHTgQEb0tD7beofBKWifQG22IUHIoqfB+ynrQCo7JUF8pK7BUyjKQGNHAEFB
dKzBNKGKQMV56T/Mq6TBC3WiQJwmj0BZM4/BO4jBQJn/F0HTI6/Bg/2iQEr0JUBI5JvB8JiHQIka
bkAMYZfBTbiuQPKe1j8rHJPBlUSLQBWatUD22ovBQw33QOzB/j/VH5TBnLF2QAM/k0BP1p/B71wH
QTIXYL4QbrLBqwSdQGbsQsAyVabB2lQaQdxf8kAALJLBwhoAQRfs2UDEkITBvRYOQW+jAkFBfKTB
AomZQOwM8kAZ0JrBEdnZQGFY4D/5963BVk1oQDDTS7+emqLBXIrpQPzLIcCbO67BMM+2QM5eD0Fm
G1nBmCGMQI6p+ECl91vBhmyDQGymGkFxUXXBSj63QBEkFUEnPIDBHcjmQFpf8UDiRm7B44nQQNfN
0kBvoFjBIWhUQKOv7UDvGoDBee97QB2JBUGnbIvB8IvSQIflq0BBPXzBAGueQItsr0DhQXDBOI0B
QfV2Tz67gIbB72rSQDkTKD/bkH/BOpHRQJ7KFb9GKorBEPCBQGsgGEGDEqjBO3urQOCxIUGrXp/B
GICYQIc9MkGHHqrBwJIBQfEiHkHsBLTBK4bkQHLFNUGKJrHBTYH3QMw5JUGuZqbBNeDiQHhr9EB4
77HBnF2sQLxo7kA4oa3Bm/SFQE6fHkCipavBv5pWQPe2wD8fkqHBU02oQDsgdUDCNojB/TbBQMpW
mECsz5LBRzO1QFDNGEFYX7fBsSrAQHqEQUB6aJ/BRn9WQObmUkBPbJPBwiaXQNPRmD/1UY/BLEto
QOXUrEAex4bBQ1N8QKj4wkDlV5LB7TJVQNwLhEBk6qTBGcDQQP7lCkEe557Bh0m0QPcNAkEuU5fB
ofP8QLAAB0Ee/53BW3LvQBZb4EARg47Ba0/LQJZHOD9ZjqzBhdiRQE5FLb/SaaXBFRrRQLjU2r8k
Ta3Bj8DDQFFr6kA1vY7BEA0GQYwB80Cqw5XBbRKjQET+GD9/iafBGWbiQOMs3r4YYa/BbKyoQBMp
6r8LZKjBrFfZQIMWtT93uI/BY7WwQIXI/kCE6GDBDsOfQGEYDEHeMnTBuqTOQEnI2kA/NmjBaziH
QNlY+kBUwYHBJZC5QFgevkBUMXnBwtakQFoN10BjV4bBLHTgQOm3oD5ycIfBB1ElQWpkHEGzKI7B
zoEbQXyFAUFF6H/BW7EdQQ/660Cx8pPB3tqKQAU06j8iNKTBlaWiQBrLkUD3kY/BHbkmQZ6cBEHe
5orBZUikQFBWJ0Adu5vBWw+JQG3ocUCdtJfBnJavQCmq3D87t5LBXXCKQDn6t0BlLozBF0f4QKN4
9D9ZR5TBz3t9QEeclEA+aaDBYnwEQTvVob6RLbTBq5mXQDc9Q8AhmabB6KLEQJWeFEFIX6XBx2CS
QHgQBUHaC5jBH4wJQTtFDkHci6PBWzn7QLnbyUC/pojBIlvYQKJU2T8IOq7B5VJmQNemRL9jgaHB
FNbiQOkjJsAYea/BAWDCQIJGCkHcQ1bBIoWVQEPP8ECyLljB9R+KQPPCGEFMhG7Bc9m6QONbE0GX
xnzBJszrQNsJ6UA3B2/BmynXQHcKx0DhRlrB1IpZQKkj60CIu3rBtXV0QGixBkEGaIjBvR/SQD9b
qECSj3/BIEGgQIZZq0C9WHHBSHQBQZsa3j3As4bBDM3TQFb9Iz8LT3/BXcPPQESxGb/B/onBOEAt
QdC0HkGn7ZXBT2oUQcohIUHBzI7BIEctQWxKJkFsEYjBp3IcQQYz4UAvKXvBVnwjQa53C0GRxnPB
hJ8KQQtPBkGdnoDBGk0gQfVVykDgtZHBP04mQRf58kCba5vB0KeFQLMVHkBePavBYYhXQH04xD/Y
06DBIO2oQO7FekDpkojB0zTBQGLMm0BtJpPB5Ls3QTabAEH824nBB5rBQGi1QEAubZ/B/qZXQEfK
WEAA8ZPB/7KXQFGpqD8jgI7BkOVkQCGjrkAJbofByPp8QPJBxkD9r5LB5TddQOVFhUBPlqXB

>  <OMEGA_E>  (138) 
AO4aPjAYIz4gRjc+CA4+PrCqQj4QAYU+oA8GPgCawj4=

>  <OMEGA_NBR>  (138) 
    272569

$$$$
50214103
     RDKit          3D

 61 63  0  0  1  0  0  0  0  0999 V2000
    8.5448    7.6285  -18.7399 C   0  0  0  0  0  0  0  0  0  0  0  0
    7.6803    7.0704  -17.7713 C   0  0  0  0  0  0  0  0  0  0  0  0
    8.0279    8.4060  -19.7948 C   0  0  0  0  0  0  0  0  0  0  0  0
    5.7746    8.0187  -18.9546 C   0  0  0  0  0  0  0  0  0  0  0  0
    4.5197   -0.6630  -20.8357 C   0  0  0  0  0  0  0  0  0  0  0  0
    6.4686    0.6838  -21.4360 C   0  0  0  0  0  0  0  0  0  0  0  0
    6.5879   -1.7484  -21.5378 C   0  0  0  0  0  0  0  0  0  0  0  0
    6.2774    7.2801  -17.8522 C   0  0  0  0  0  0  0  0  0  0  0  0
    5.1306    0.5956  -20.9929 C   0  0  0  0  0  0  0  0  0  0  0  0
    5.2457   -1.8333  -21.1150 C   0  0  0  0  0  0  0  0  0  0  0  0
    7.2001   -0.4887  -21.6949 C   0  0  0  0  0  0  0  0  0  0  0  0
    6.6396    8.6027  -19.8964 C   0  0  0  0  0  0  0  0  0  0  0  0
    6.6180    1.2552  -17.9118 C   0  0  0  0  0  0  0  0  0  0  0  0
    5.4135    7.9136  -14.0981 C   0  0  0  0  0  0  0  0  0  0  0  0
    4.9118    8.7024  -15.3159 C   0  0  0  0  0  0  0  0  0  0  0  0
    6.4531    6.8667  -14.5274 C   0  0  0  0  0  0  0  0  0  0  0  0
    4.2667    7.7465  -16.3224 C   0  0  0  0  0  0  0  0  0  0  0  0
    5.8888    5.9201  -15.6013 C   0  0  0  0  0  0  0  0  0  0  0  0
    5.2668    6.6711  -16.8347 C   0  0  0  0  0  0  0  0  0  0  0  0
    6.7247    0.1958  -16.8180 C   0  0  0  0  0  0  0  0  0  0  0  0
    4.3761    1.8423  -20.6117 C   0  0  0  0  0  0  0  0  0  0  0  0
    5.1332    4.4934  -17.9603 C   0  0  0  0  0  0  0  0  0  0  0  0
    5.1148    2.5682  -19.4718 C   0  0  1  0  0  0  0  0  0  0  0  0
    4.2928    3.7493  -18.9760 C   0  0  2  0  0  0  0  0  0  0  0  0
    5.3542    1.6396  -18.3474 N   0  0  0  0  0  0  0  0  0  0  0  0
    4.4295    5.7135  -17.5690 N   0  0  0  0  0  0  0  0  0  0  0  0
    7.6344    1.8032  -18.3253 O   0  0  0  0  0  0  0  0  0  0  0  0
    3.9880    4.6216  -20.0645 O   0  0  0  0  0  0  0  0  0  0  0  0
    4.6565   -3.0392  -20.9603 F   0  0  0  0  0  0  0  0  0  0  0  0
    8.4921   -0.4050  -22.0842 F   0  0  0  0  0  0  0  0  0  0  0  0
    5.8233    9.8523  -21.4580 I   0  0  0  0  0  0  0  0  0  0  0  0
    9.6089    7.4578  -18.6709 H   0  0  0  0  0  0  0  0  0  0  0  0
    8.0887    6.4804  -16.9641 H   0  0  0  0  0  0  0  0  0  0  0  0
    8.6940    8.8481  -20.5209 H   0  0  0  0  0  0  0  0  0  0  0  0
    4.7073    8.1345  -19.0722 H   0  0  0  0  0  0  0  0  0  0  0  0
    3.4950   -0.7290  -20.5011 H   0  0  0  0  0  0  0  0  0  0  0  0
    6.9294    1.6505  -21.5759 H   0  0  0  0  0  0  0  0  0  0  0  0
    7.1475   -2.6494  -21.7415 H   0  0  0  0  0  0  0  0  0  0  0  0
    5.8744    8.6088  -13.3810 H   0  0  0  0  0  0  0  0  0  0  0  0
    4.5630    7.4048  -13.6207 H   0  0  0  0  0  0  0  0  0  0  0  0
    4.1688    9.4449  -14.9893 H   0  0  0  0  0  0  0  0  0  0  0  0
    5.7594    9.2168  -15.7922 H   0  0  0  0  0  0  0  0  0  0  0  0
    7.3346    7.3840  -14.9341 H   0  0  0  0  0  0  0  0  0  0  0  0
    6.7485    6.2748  -13.6485 H   0  0  0  0  0  0  0  0  0  0  0  0
    3.4195    7.2399  -15.8371 H   0  0  0  0  0  0  0  0  0  0  0  0
    3.9024    8.3293  -17.1812 H   0  0  0  0  0  0  0  0  0  0  0  0
    6.7046    5.2758  -15.9611 H   0  0  0  0  0  0  0  0  0  0  0  0
    5.1064    5.2986  -15.1413 H   0  0  0  0  0  0  0  0  0  0  0  0
    7.7796    0.0652  -16.5350 H   0  0  0  0  0  0  0  0  0  0  0  0
    6.1465    0.5169  -15.9390 H   0  0  0  0  0  0  0  0  0  0  0  0
    6.3246   -0.7583  -17.1915 H   0  0  0  0  0  0  0  0  0  0  0  0
    4.3058    2.5083  -21.4843 H   0  0  0  0  0  0  0  0  0  0  0  0
    3.3647    1.5693  -20.2763 H   0  0  0  0  0  0  0  0  0  0  0  0
    5.2922    3.8587  -17.0760 H   0  0  0  0  0  0  0  0  0  0  0  0
    6.1054    4.7537  -18.4044 H   0  0  0  0  0  0  0  0  0  0  0  0
    6.0773    2.9385  -19.8545 H   0  0  0  0  0  0  0  0  0  0  0  0
    3.3727    3.3825  -18.4976 H   0  0  0  0  0  0  0  0  0  0  0  0
    4.5591    1.2648  -17.8706 H   0  0  0  0  0  0  0  0  0  0  0  0
    3.6570    5.4591  -16.9872 H   0  0  0  0  0  0  0  0  0  0  0  0
    4.0903    6.1609  -18.3965 H   0  0  0  0  0  0  0  0  0  0  0  0
    3.4605    4.1579  -20.7043 H   0  0  0  0  0  0  0  0  0  0  0  0
  1  2  2  0
  1  3  1  0
  2  8  1  0
  3 12  2  0
  4  8  2  0
  4 12  1  0
  5  9  2  0
  5 10  1  0
  6  9  1  0
  6 11  2  0
  7 10  2  0
  7 11  1  0
  8 19  1  0
  9 21  1  0
 10 29  1  0
 11 30  1  0
 12 31  1  0
 13 20  1  0
 13 25  1  0
 13 27  2  0
 14 15  1  0
 14 16  1  0
 15 17  1  0
 16 18  1  0
 17 19  1  0
 18 19  1  0
 19 26  1  0
 21 23  1  0
 22 24  1  0
 22 26  1  0
 23 24  1  0
 23 25  1  0
 24 28  1  0
  1 32  1  0
  2 33  1  0
  3 34  1  0
  4 35  1  0
  5 36  1  0
  6 37  1  0
  7 38  1  0
 14 39  1  0
 14 40  1  0
 15 41  1  0
 15 42  1  0
 16 43  1  0
 16 44  1  0
 17 45  1  0
 17 46  1  0
 18 47  1  0
 18 48  1  0
 20 49  1  0
 20 50  1  0
 20 51  1  0
 21 52  1  0
 21 53  1  0
 22 54  1  0
 22 55  1  0
 23 56  1  6
 24 57  1  1
 25 58  1  0
 26 59  1  0
 26 60  1  0
 28 61  1  0
M  CHG  1  26   1
M  END
>  <OMEGA_C>  (139) 
UbcIQbwc9EBZ65XBqMT1QFZA4kCJK47BeHIAQch+BkGtW57Bq8m4QMVMAEHtopfBbqGQQGa8Kb+W
r6bBDv/OQAUMLz//fKvBJtDSQCvK379wTazBEuDIQPT26EBk0Y7Bmi2kQJN7GD+J8afBi9ynQDWo
6r+S66jBTGfmQIgx+r4Sj63B7nfUQKWkCUHPK5/BSsbTQAeqoD9VS4/BPjutQOs7/UC2kWHBzi2d
QN88C0HODXXB7n/OQNG720AUcGjB6YiIQEPj90BDlILBAHG8QElxvUDsnnnB1omoQGp51UB5rYbB
3jDXQIF7SD4ti4bBOgmMQPvO6z+x5KTBiUOkQB7Kj0Cgro/BJqyjQNFdJEBHxpvBvF6JQCH1b0Dw
zpfBwFWrQInf0T9zx5LBZ76NQJ/UtkBpjYzBIk30QL/Q5j8xmpLB+Dt/QL7jk0AhhKDB6gGVQF6C
QsDDrqfBeN8HQY5Wz752rLDBr1i6QBqjHUEHqqvBQL4ZQWmm7kAYXpXBTmsBQY5fz0BstofBvhoL
Qc+RDUHCKqTBPqKWQNgmAkHtk5jBzq1fQPigOr86AqTBXL3dQPBD0z9hm6zBB7jkQBmPKcCd7q3B
2vq7QL29CUGTGFbBQwSSQG307EBG7lnBHmeFQCseF0FE1G/BQU24QBZ4E0EDrXzBtLTqQH9J7EA7
8m7BpfPXQPDKyEBAYFrBSNhaQCGt50DSZH3Bb8B5QMxEBUEnc4nB+IvWQJPTqEB6YH/BvWejQNSN
qUDEQnLB1fL4QPd2hT2rR4TBPLDEQBBTBD8hBn/B6mLKQP4iQr8piInBYMmJQPyHIEDK36vB2FZX
QCDeyD/rNaLBGVqpQHn1dkCym4jBI1/DQG0emEApPJPBVnnCQMsPPED11Z7BlNpXQJt7WEAk+5PB
YOSRQP/koT/69o7BpAxqQK+wrkC85YfBAuSCQG8mxUAYLJPBCnldQM8NhUBXoqXBNqwIQQiP9EAn
8ZXBeMz1QBib4kCoLo7BJ1YAQaOuBkE2YJ7B8Ki4QAd0AEHfmJfBkArPQFpzLT8xWKvBrMGQQAn9
K7/0habBeAvTQD6T4L8vF6zBCOTIQPsx6UAbzo7BijikQHxnFj/7zafB7ozmQALi/L5oX63ByhOo
QB6s6784uajBejzUQPvQCUHKJp/B1rHTQDZ/qD8E0I7BhB+tQE6I+0AyMWHB2mKdQFPGCkHcenTB
JJHOQA5v2kDpTWjB2MSIQIOk90C7c4LBksS8QObHvEC80XnByLKoQCNr1UCQrYbBBHzXQAXCUD6D
gIbBQvOLQEWa6j8kzaTBqCakQBH5j0CHwY/B9oujQIY6JEA6uZvBJjeJQBcJcEAx1ZfB7EarQPWE
0j+irJLBDtGNQNcdt0Dno4zB6kT0QE8e5T9Sw5LBwQZ/QAS5k0B+laDB8PUHQTQO0b4LdrDBqkSV
QHsQQ8BafafBCgm6QFXjHUGIk6vBFrYZQeU470DyZpXBzHwBQXq/z0ANvIfBr/IKQZy9DUHiNaTB
IX6WQEtRAkFxgJjBfrTdQDGN0j/jfazBa+pfQOgyPb+W2qPBWAflQB3pKcBWsK3BEaC7QCunCEGy
alXBhtCRQJ7e6kCY2VnBl6qFQBGdFkGQGW/B26i4QEoUE0GL4nvB9MbqQHNV60DilG7BpvPXQEz5
xkDQaFrB7hBbQAtA50BwWH3BYJV6QNtrBUEpP4nBFQvXQLaZqEDEw3/BF92jQLdoqEBjrnLB0XT5
QGYM9bzwJ4XBdN7IQODECD8D5H3B9NjGQMfLMb9OaonBqZiJQNqiH0DJzqvBiUBXQOFtxz9HGaLB
ekepQAKOd0DSqYjBMDzDQOMumEDJVpPBrFbCQCDPO0D+zZ7B0IZXQB7NWECk/JPBpd2RQBionT9l
G4/Bw79pQNYar0DKC4jBa06DQJOhxUCkRJPBky9dQOnKhEA0raXByE7JQHGtDEH1yp/B5C6xQEVa
AkH0ypfBIB72QI9SC0FIqp/BmJDyQPAB60AlXY/BUrXPQOuXST+18avBcCCSQO2cG7/sZ6fByLHU
QFis0b/hZK3Boj7FQMD97UA6So/B8gGlQOcmKj+sX6jBDqbnQMqrur5dV67ByN+pQAbx4L/296nB
ck4FQZgM/0BXi5fBqHzUQLRDoj8rfY/BWM2tQKxO+UCiZWDBOoGbQGshCkHxwHLBAirRQFS620DC
4WjB9qmHQGLm9kCs04HBWJDAQBirvkDJ6XrBMK6oQPIy10AyvYbBlnzYQBT7ST4a14bBDkiMQO6K
8T8o/qTBfKqkQEutkEDWlY/BnMajQHfiJUC/vJvBsECJQHlfcECFfpfBmN2rQMhI0T/b9ZLBGvWN
QNm1t0D3bIzBlK30QJ5X7D/HqZLB05d7QCsKlEDOE6DBFHQIQYQ2fr4xdrHBTKSXQOeAPsDs/6jB
628nQfLr+EA1xJfBIVW5QAufFUGMA6bBcq2OQPYRA0FEHpjB22MEQRtGE0EPwaXBpWQBQShY2UB/
JInB6PPdQOLx4T/61KzBNOJiQGpQM7+7sqTBlPvmQLl7IcAdS6/B8Dm7QNdRB0FxHFTBVRiUQJjZ
5UBCVVnBfc6CQEL5FEE3dGzBt1i1QJKTE0HsEnrBvJLrQEpq70A9Fm/BQ+rcQHugx0CxrlvBX4xb
QG5Z5EDlKHzBy850QKhmBUG1SIjBtAXcQACdrUDF8IDBay6qQG1lp0Cj53PBnkP6QMbFuD08hITB
I33FQIXW+z5Con/BCZTMQBgPQ78h9InBLn+JQL/wJEBTz6vBJ0VYQJovyz+8U6LBZ6KqQGl9eUC3
fIjBTlfDQG0tmUCWV5PBFm/CQIa5PkALv57BfS9ZQPCZV0AsbpPBc5qSQPIFnT8uS4/BUGprQJRv
r0AZoofBSmmCQKGWxUDuB5PBEy9ZQEzxhEAvFKXBgkLJQOXcDUH/bJ/BxgyxQHdAA0EUiJfBNgv2
QMlEDEEAX5/BkFHyQIBS60CiWY/BzduRQCQHHr9wSafBdk/PQGAGSD+u4KvBWmLUQE9V0r/xWK3B
EwvFQErE7kA5MY/BIrKkQNDkJz8WQKjBe52pQIns4b/j5KnBvkDnQATtvL4vUK7BMzYFQazv/0BS
bJfB/p3UQFsgqD9xH4/BPg+uQIwL+UDFTGDBDECbQMb/CUFgiHLB3GbRQGin20B792jBq1uHQGab
9kCntIHBD5/AQKWwvkBd/nrBtIyoQA5g10DbuYbBoi7ZQDQYLj7BG4fBmvaLQKU68D/S3KTBjBCl
QGYqkUAKvI/BVrijQMakJUCkr5vBJmGJQKqRcEBdf5fBavyrQM2B0T8e35LBbhKOQPbvt0DvfozB
mtv0QM3C6j/325LB2FN7QGLFk0DKIaDBjmuXQCYPP8Dl+qjBNjUIQW4wgL6ygLHBakUnQWZS+UAC
tJfBzFy5QKg1F0F6gqXB5I2OQHMkBEFH0JfBmWEEQTtrFEERYqXBnDwBQQbY2EB/RInBsm9iQOQw
Nr+6jKTBc3vdQJdE4T9jx6zB8bTmQHPAIcA3Qa/Blp67QMkyB0FRD1TBuZWUQDVw5UAsIVnB+nyC
QL64FEE/F2zB6NK0QLySE0Hn63nBBajrQNp570BtOm/BvWjdQMJ8x0Cn2VvB/ZxbQDG240DE13vB
rUtzQAU/BUFoG4jBEAHcQCCtrUC4B4HB906qQDZgp0D09nPBl1D7QNMWGb1xvYXBw/nJQFV46D4i
An/Bo4jJQBIJO79PTorBlN6IQFUIJEBXsqvBbuJXQDenyT+7HaLBIM+rQO/CekB2p4jBu1jDQJsE
mkAYo5PBJFbCQOUiPkDpw57BkrNZQNZBWEB0VZPBitKSQPRomT9wY4/BA69rQIdUr0Dhu4fB3HuC
QNv7xUADE5PBJIxYQKR5hEAXDqXBgNPdQNlgB0EN5p7B0sG+QC7r/UDS45fB58UEQTv4BUGDS5zB
QEL3QODd5UCL4YvBXcSKQMBjQD2wWrLBvYHEQBj74r04S6XBe3PIQG4Ksr9W1LXB9vXKQNDI6UAk
LY7BidecQL+D5T71fajBpoygQJoQXr9VAbnBVlvaQNxmgb869avBMBYLQd2G90COxJLB5U3aQKPX
5z91/ozBFrGrQGaHAUE162HBNsCcQOxyDUGQJnbBb8vLQE+N30AnlGfBfFOIQNV4+0C+G4PBOHu5
QC5zwEABrnjBZOenQFlu10C9pIbBIt3nQCYiZz/dwYPBxP2DQDEMtT/cUqHBjAumQGIbkkCdpZDB
jFyhQF4eGED9y5rBkK2IQNwoaUBnM5fByFWxQABy1D9NPpHB0fONQIcJuEBB4YzBwpP0QNRkJEBg
D5HBVM5zQI7Fi0CcVqDBIyaPQCNFn7/rccLB4EYAQQV3wb/szajBL9UsQW0h80DsjY7BjA/UQP7r
DkFPR6bBcUSdQJYuAEEZ75nBGKkQQfyxDEF1lqHBwK4AQUYe1UAdwoTBg0dYQAd/4j6bzrTB0RHS
QGV5Ij4fpZ3BLULZQLVKBcDu9rrB0Re7QFD8DEEvAFfBvcCPQK+v9ECZ+1nBjAKFQBWiGUFhonHB
UXC4QBJDFUFatH3B0SzpQH1Q7kCY3G3B1l3TQFdNzUBPA1nBkGxYQHqW7ECMrn7BFWt8QIq6BkHT
PIrBjRjTQAFZqkDOiX3BPSafQMI0rkCmYnHBLPAEQfgMiT9y7oHBlXXUQGv0kD8ZTHnBkgDjQPn0
F76AC4bBTXZdQABKAUDnZKbBY1phQLtsUz+9q5vBBniyQDdwgEDLsonBROfAQBmonEDHr5XBYnC8
QHqVK0Cr3Z/BnQNbQMt9VUDoLJLBPWudQJ0Rgz89l43BFfFrQDLkrUDgOojBHPuBQKcSx0C4RpPB
kFlPQIz9c0CnfaTB

>  <OMEGA_E>  (139) 
8IEtPgB2ND5wu7c+cBO6Ps5YHz8=

>  <OMEGA_NBR>  (139) 
    277810

$$$$
50214101
     RDKit          3D

 64 67  0  0  1  0  0  0  0  0999 V2000
    8.6284    7.5502  -18.3340 C   0  0  0  0  0  0  0  0  0  0  0  0
    8.3061    7.8870  -19.6576 C   0  0  0  0  0  0  0  0  0  0  0  0
    7.6141    7.2109  -17.4259 C   0  0  0  0  0  0  0  0  0  0  0  0
    5.9380    7.5972  -19.1595 C   0  0  0  0  0  0  0  0  0  0  0  0
    6.4240    0.8102  -21.5691 C   0  0  0  0  0  0  0  0  0  0  0  0
    4.6610   -0.6799  -20.7699 C   0  0  0  0  0  0  0  0  0  0  0  0
    6.7281   -1.6081  -21.6763 C   0  0  0  0  0  0  0  0  0  0  0  0
    6.9671    7.8714  -20.0981 C   0  0  0  0  0  0  0  0  0  0  0  0
    6.2608    7.2592  -17.8233 C   0  0  0  0  0  0  0  0  0  0  0  0
    5.1497    0.6256  -20.9883 C   0  0  0  0  0  0  0  0  0  0  0  0
    7.2152   -0.3055  -21.9032 C   0  0  0  0  0  0  0  0  0  0  0  0
    5.4482   -1.7946  -21.1168 C   0  0  0  0  0  0  0  0  0  0  0  0
    6.8283    1.4625  -18.0475 C   0  0  0  0  0  0  0  0  0  0  0  0
    4.5238    7.8310  -15.9436 C   0  0  0  0  0  0  0  0  0  0  0  0
    5.3946    6.7015  -15.3641 C   0  0  0  0  0  0  0  0  0  0  0  0
    5.1452   10.2310  -21.2594 C   0  0  0  0  0  0  0  0  0  0  0  0
    6.6449   10.4568  -21.5809 C   0  0  0  0  0  0  0  0  0  0  0  0
    5.2490    7.9345  -22.0939 C   0  0  0  0  0  0  0  0  0  0  0  0
    6.7258    8.0171  -21.6103 C   0  0  1  0  0  0  0  0  0  0  0  0
    5.1545    6.8009  -16.8823 C   0  0  0  0  0  0  0  0  0  0  0  0
    7.1188    0.3317  -17.0656 C   0  0  0  0  0  0  0  0  0  0  0  0
    4.3337    1.8236  -20.5431 C   0  0  0  0  0  0  0  0  0  0  0  0
    4.9965    4.5486  -17.8449 C   0  0  0  0  0  0  0  0  0  0  0  0
    5.0934    2.6348  -19.4650 C   0  0  1  0  0  0  0  0  0  0  0  0
    4.2124    3.7611  -18.9030 C   0  0  2  0  0  0  0  0  0  0  0  0
    5.5037    1.7353  -18.3716 N   0  0  0  0  0  0  0  0  0  0  0  0
    4.2733    5.7840  -17.4797 N   0  0  0  0  0  0  0  0  0  0  0  0
    7.7583    1.9999  -18.6401 O   0  0  0  0  0  0  0  0  0  0  0  0
    4.5882    9.2294  -22.1377 O   0  0  0  0  0  0  0  0  0  0  0  0
    7.2893    9.2589  -22.0907 O   0  0  0  0  0  0  0  0  0  0  0  0
    3.8538    4.6314  -19.9764 O   0  0  0  0  0  0  0  0  0  0  0  0
    8.4470   -0.1264  -22.4313 F   0  0  0  0  0  0  0  0  0  0  0  0
    4.9809   -3.0443  -20.8981 F   0  0  0  0  0  0  0  0  0  0  0  0
    9.6598    7.5522  -18.0136 H   0  0  0  0  0  0  0  0  0  0  0  0
    9.0920    8.1609  -20.3459 H   0  0  0  0  0  0  0  0  0  0  0  0
    7.8697    6.9120  -16.4201 H   0  0  0  0  0  0  0  0  0  0  0  0
    4.9037    7.6467  -19.4663 H   0  0  0  0  0  0  0  0  0  0  0  0
    6.7918    1.8081  -21.7571 H   0  0  0  0  0  0  0  0  0  0  0  0
    3.6825   -0.8243  -20.3362 H   0  0  0  0  0  0  0  0  0  0  0  0
    7.3357   -2.4637  -21.9312 H   0  0  0  0  0  0  0  0  0  0  0  0
    3.4367    7.8279  -15.7753 H   0  0  0  0  0  0  0  0  0  0  0  0
    4.8928    8.8673  -15.9376 H   0  0  0  0  0  0  0  0  0  0  0  0
    6.3867    6.9292  -14.9469 H   0  0  0  0  0  0  0  0  0  0  0  0
    4.9306    5.8898  -14.7846 H   0  0  0  0  0  0  0  0  0  0  0  0
    5.0445    9.8954  -20.2167 H   0  0  0  0  0  0  0  0  0  0  0  0
    4.5991   11.1762  -21.3948 H   0  0  0  0  0  0  0  0  0  0  0  0
    6.7282   11.2515  -22.3369 H   0  0  0  0  0  0  0  0  0  0  0  0
    7.1599   10.7705  -20.6609 H   0  0  0  0  0  0  0  0  0  0  0  0
    5.2357    7.5007  -23.1047 H   0  0  0  0  0  0  0  0  0  0  0  0
    4.6920    7.2806  -21.4069 H   0  0  0  0  0  0  0  0  0  0  0  0
    7.2629    7.1908  -22.0988 H   0  0  0  0  0  0  0  0  0  0  0  0
    8.2027    0.1475  -17.0280 H   0  0  0  0  0  0  0  0  0  0  0  0
    6.7600    0.6139  -16.0648 H   0  0  0  0  0  0  0  0  0  0  0  0
    6.6031   -0.5821  -17.3958 H   0  0  0  0  0  0  0  0  0  0  0  0
    4.1394    2.4706  -21.4113 H   0  0  0  0  0  0  0  0  0  0  0  0
    3.3781    1.4741  -20.1251 H   0  0  0  0  0  0  0  0  0  0  0  0
    5.1226    3.9241  -16.9482 H   0  0  0  0  0  0  0  0  0  0  0  0
    5.9847    4.8135  -18.2491 H   0  0  0  0  0  0  0  0  0  0  0  0
    5.9855    3.0822  -19.9275 H   0  0  0  0  0  0  0  0  0  0  0  0
    3.3160    3.3233  -18.4394 H   0  0  0  0  0  0  0  0  0  0  0  0
    4.7870    1.2951  -17.8308 H   0  0  0  0  0  0  0  0  0  0  0  0
    3.5578    5.5530  -16.8203 H   0  0  0  0  0  0  0  0  0  0  0  0
    3.8559    6.1663  -18.3041 H   0  0  0  0  0  0  0  0  0  0  0  0
    3.3683    4.1437  -20.6314 H   0  0  0  0  0  0  0  0  0  0  0  0
  1  2  2  0
  1  3  1  0
  2  8  1  0
  3  9  2  0
  4  8  2  0
  4  9  1  0
  5 10  2  0
  5 11  1  0
  6 10  1  0
  6 12  2  0
  7 11  2  0
  7 12  1  0
  8 19  1  0
  9 20  1  0
 10 22  1  0
 11 32  1  0
 12 33  1  0
 13 21  1  0
 13 26  1  0
 13 28  2  0
 14 15  1  0
 14 20  1  0
 15 20  1  0
 16 17  1  0
 16 29  1  0
 17 30  1  0
 18 19  1  0
 18 29  1  0
 19 30  1  0
 20 27  1  0
 22 24  1  0
 23 25  1  0
 23 27  1  0
 24 25  1  0
 24 26  1  0
 25 31  1  0
  1 34  1  0
  2 35  1  0
  3 36  1  0
  4 37  1  0
  5 38  1  0
  6 39  1  0
  7 40  1  0
 14 41  1  0
 14 42  1  0
 15 43  1  0
 15 44  1  0
 16 45  1  0
 16 46  1  0
 17 47  1  0
 17 48  1  0
 18 49  1  0
 18 50  1  0
 19 51  1  6
 21 52  1  0
 21 53  1  0
 21 54  1  0
 22 55  1  0
 22 56  1  0
 23 57  1  0
 23 58  1  0
 24 59  1  6
 25 60  1  1
 26 61  1  0
 27 62  1  0
 27 63  1  0
 31 64  1  0
M  CHG  1  27   1
M  END
>  <OMEGA_C>  (140) 
+g0KQVyb8UAirJLBwuUEQelh/EDKQp3BG6fzQAzA5kBQaIvBGwS+QG8c80CfRpnBmJHNQNBoTz+R
jazBCCeVQNgQLr+wKKbBPkzXQMzVzb8Raa3BTPLeQIji+0DpyKDByljIQK1L6EAflo7BGsqkQB8m
ID8S6KfB1+LmQEJvnL7WOa/Bi1euQH215b8376jBC4HaQIMzuz9aYZDB7cKQQLyX+kDVGH/BvaCs
QAZz1kA+03XBuKWkQC6yI0FYE6rBaaPUQD9PJ0HDpazB9PenQJ/n/UBmwLDBsjnXQBpGAEHN4azB
Y/GkQA2h2UADD4fBns3jQK7PqT5phojBo62KQM1r6T9bWKTBg+OfQECOkUBpwo7BDP2iQHSgKEBi
uJvBwcuGQH21cEBMOZfBaB6wQCAf3j8g+ZLBnL6IQCUWuUBn1ovBu0P4QCL7/z/UHpXBdNKSQKGr
E0EEGrHBGkLpQIskFEHMubDBz6R2QBM0lECYz5/BGScHQUJ7Ab5cc7PBsWOfQObVQsA8L6fBdI4a
QbOr8UDhG5DBv3gRQd+SAkFuxKLB9dT7QEQv3UBaXIPBDOucQASy9EAKu5vBiVbZQJVv5z9+Dq7B
4K1rQEIHU7+bsKLBPb7qQBSuHcAkc6/BkvNbQFR++kC2Z3zBw5GcQFTgDUF1AH/Bdl/MQM+73UBl
Jm/BfMedQHx5vECmjWzBVGyhQKhTHkHiu6HBbyuTQJ7RMkGmKKvBpE3XQE0GNEELsrLBPx7lQB5U
LEGgSaXBJ4unQL0F8EBr1rjBlCSWQGf66EBUQavBDmroQPca5kBNyrDBJj4DQQMQFz5GOYjBG1LY
QFsrHT/QhIDBYUzTQGkDFb+yKovB7XWEQAQeHkBOSqvBGTNYQMywvD85AKHBAuyjQLMke0DrlYfB
gYK/QCIImkA6/pHBgYm/QKFCRUCYa5/BoDlUQMmwVEDsg5PB4i6ZQObGpT94pY7BNbNjQHOysUD3
j4bB4sd2QDdSxUDQbpLB85JXQCaZhEACDaXBuU0LQR5f6kDqXZPBBhQGQTcfAEGv15zB8CL2QAPc
3UB1NYzBHZfAQHgg/UB99JfBXfjMQOt0ST8BPa3BY0aWQKVPM78B76XBjDfXQM7X0L+Oz63BqhLh
QAeSBEESN5/BswDLQNem50CXdo7BUhGlQEWvGj+BIajBsQHmQHc2qb4uD7DBvUSvQNVw6L8AzKjB
bM7ZQHJRvj/kB5DBQLqSQBEP+kA/cX/BBdKuQMji1UA3KnbBoCmMQAbQKUHR767BAYiyQDAwNUGe
36nBL7ayQJmLCEEmka/B0hPWQH/iEkFXb6jBnTmnQEch2UA+K4fB4uLiQAy+uz4vEIjBGvOKQOb7
5j//l6TBReahQMAhkkBpd4/B6RajQFEdJ0BT7JvBCg6HQOorb0CUUJfBmr6vQO442j+tLpPBr+CK
QLdFuUDWMozBgsP3QAOeBEDNTZTBeUScQDm0GEGFiLXBtjfIQHlFJkE1JqPBaOhwQIY0kkAY2J/B
pBEGQXVgH75V+rTB2fKgQIkhRMCFs6bB9tAbQTsl40CYkpHB+I4SQVQWBUE5R6LBpET+QFC+zEC/
+4TBL5WfQOhCAkHtuZnBaUrYQDJU5D9F+67BZXxvQI3vV7/6DKLBRoHqQNE1H8BL7q/BU9lfQAjL
+UBjz3zBmF+eQE+jDUHcVX/BgIPOQGJI3UCTdW/BkhCgQM7Mu0Aa72zBI7tuQMxCI0FLo6jBOrBz
QKcoNUFV3bPBh1LIQDXdOkHILLDBCWunQBviQkFaGKXBna/BQBJ0+kCdK7XBKN2bQJfl/0Bdb6rB
JrfyQGbhFUHcU63BC9YCQTgucD72OofBsAjVQORwID/OPoDBY33UQLm1Eb+U94rBLvmEQL4HHUAx
iqvBPIFYQHSAuj8TTqHBiL+oQJJzfUC5U4jBryXAQHU3m0AoWpPBts2/QAOrQ0BbjZ/BpatXQKK8
UkB7A5PBnJyYQKWrmz9LRo/BWxJoQAs5sUA/+IbBZe16QExoxkBUrZLBDLNPQJGtgUD3r6TB/pML
QeeT50B6WZLBf/gGQT0Y/UAw9ZvBw8r1QNbT20BpX4vBRObBQO0o+0BjkpfBNkaTQDiiPr95FabB
duTMQJyXNz/tN6zB5DDVQK5N2r9aMq3B/TnjQOI/A0GOoJ7B2xDLQH0M5kCp943BtsujQNadDT8r
sKfBRturQDSO778b5KjBP6nlQKJi0r7e4K7B+PvbQGtewj8cy5DBb2uRQMc0+kABln/BfkKsQN3W
1UB8l3XBu8iTQD+RKkEmZq/BVAS6QDbVNEH/sKnBFiK2QDwfCEGtLa/BVp3ZQFC6EUEe3afBpUGm
QAF02ECi8IbBgqvmQNrVBj/h6YfB3NOJQNXa4T+oTqTB+B2hQAQJkkDWjI/BY6yiQP9nJ0D5C5zB
CI+GQJB+b0BfgZfB5zixQNT/3z8XOZPBA/yJQIjuuED3JYzBTcr4QIZuCkAoBZXBPEKjQJC3GEHZ
m7XBjEbMQLNLJUHxraLBeT1xQChwkkAfGKDBtbqbQFtDR8BbeKfBFqIGQSiBgL7bCrPBQvIbQdIM
4EBUUZDB08gTQWYvA0E5RaHBROj8QLD/ykDzCYTB8SuhQMxlAUFOlpnBtX1nQHq3X78ns6LBQFHZ
QAPE2j9qpK3BTj/oQFWGJMAtNa/BmO9cQDOi+kCbgn3BFaadQFSbDUGPjH/BcaTLQMrj3EA1cW7B
J3acQFZPvEBBZ2zBl8B4QMLuJEEWdqnBi4iEQOFZNkFZtbTBDvjRQE3uOUFhna/BRjyvQK3JQkFA
DqXBx1DEQCDX90C/b7TBAEGdQFa5AEHbK6rBI7z2QPpdFEHKoKzB6rAEQVgECD8/dIbB6cfVQMnU
UD8OjIDB04rcQEz59r6/VYrBSO6CQNVZGEAnZKvB2i1XQLKDtj8vtaDBq/enQBeJfEAbeYjBkl6/
QP5zm0A6YpPBIY6+QBkkREBrCqDBZQtWQO86U0BoUJPBVv+aQAa5pj9It47Brg9mQKGEsECB/IbB
42p5QA6CxkBwlpLBBGRQQA4AgkCQ/qTBPRQLQac/5kB7DpLBATQGQf7i/kBuLJvBk0X1QDaI2UCo
CovBy/TAQMHy/EAXZJbB8Q/HQOxSND/6F63BI/OVQJTkUL/6+qPBjZrVQNOF2L9I4KzBU4PhQOsQ
BUE5Y53B7bHKQLln5UBkRY3BKX+hQGru/D7tD6fBvzXhQHz4xL7E6q/BceqvQI0y9L/m76bB4OPc
QNQP0T8MlJDBZjqQQCrU+UAZUn/BG3WqQKy01UCaqHTBQ/2wQCqOIUFwu7nBi9KbQGUWJkEq3a7B
rfLqQMHWDkHP87DBA8TWQJW8FEEAIqbBdtOlQGeG10Cue4bBmSXpQD7oKj/voofBDviGQN1L1z9e
eaPBmXKhQPKZkkCB34/BxJChQMYPJkAqBZzBtWqGQCaJcED1tpfBnMexQL+s5T8y/JLB4duJQDWH
uEC0AozB3//4QDoYCUBmFpbBkt3eQM1LH0EwdLjB3taoQMXDFUGXkqfB5rRyQNeHkkD+eKDBMdQC
QaBAMb6Ye7XBFfukQOxmSsDh+KPBIW4bQX4c3UBecpDB19kSQZ+WBEEGeKDB9J78QLfVxkDoAoTB
BhegQFWTAkF1GpjBqcHPQBgR2j8cjK/BS3ZyQDwwe7/4W5/BcZfpQO7GIcDBGK/BhFhaQPFh+kAY
wH3BXIScQCRoDUETZn/BdHLJQJXv3ECbIm3BWhqaQD+BvEChfGvBX8yjQDurEkHFEr3BRlGqQA7m
LkEJOb/BuxmmQArTNUFe4KvBcpdxQHTnJUE8u6/BZv8GQTYqDkHQNLDBfOLeQIpv/kBpqbPBnbzi
QD2cJEEsyqPB0RMGQY+eDj+RY4fBr8HdQGzxhz+w3H/B7lraQHMWoL42JInBy515QDdxEECPiKrB
HSpVQOAxqT8eJJ/BjPWpQO7NfEDJ/IjBt8u+QM02nUCL8ZPB5J28QCpjQEDSlqDB8tRUQGaQVkDy
e5PBmmOcQMxDqz9kSY7BnUZmQLrgrkCC64bBZYJ4QC0Nx0CJRpLBbUBRQDEUgkAvTqXBEiUJQVCy
70CYE5PBzGYCQffPAEFI3JzBR83zQGIQ4kABhYvBu4K6QFfu+EAYdpfBLQeQQFWQPr8MjaXBcszL
QKmTGj+fDqzBd3/QQHBt6r8UU6zBwIbYQMq8AkHgI5/BsNDHQAVv50DVtI3BfF2iQHJUBT//lafB
v/mmQIaJ9b+A/KfBlvXiQGEMEr/PUK7B4wvcQEZXzD9tjpDBQmOQQDuG90CU3H3BLFatQNgV1EAQ
i3TBfQT3QObQL0GV86zB01H1QEgkH0HR9rXB0bKwQDipIEE+lajBj5vHQI+dCkHky6nB05WlQD8E
10AuWIbB0z3mQEcoDj+oAojBWyaKQHqA5D+3oaTBPCmiQOa6kUBIoY/BoqWjQI95KEBXd5zBVx+I
QLrGcUAQ/ZfBX5yxQHbI4j+WjpPBB+CJQPXStkDWh4vBiV/5QJZ5CUBDXJXBK1HNQN3dMkFgKqjB
vWjpQPOACkEtwbHBanB4QAyvlEAzjaDBXzyVQHRHSMDFHabBEIgFQRJ++b7GUbLBKQIaQY9r7EDo
YJHB9hgOQXw2BkFwnqLBWP/9QDGY00BLGYTBNMaYQLjG/EAwEpnBSMFgQELzT7+5H6LBuLrZQALi
yD/Rvq3BOi3iQM3VLsCxH67BtDZbQEx39kC7NHvBiUGbQJCADEFG0n3B4N7MQFRC3EAd4G3BsTif
QIC4uUCSQmvB8cEGQYlTKkHcw6bBABYBQV8kP0FjQrDBqZXdQNsoJEFy9bvB0YEKQX73HUFBv7nB
bhWbQOHIIkFkcq/B6+WdQOxdIEENJaHBNP2uQGBO/kA2Y6zBfJEEQQHK4D4EU4fBfhnZQLFHYj8T
SIDBtNTXQOTv0L6iQorBwcSEQEFuGEDZ5qvBDUxWQMkNwT/sGaHBR96pQEmNeEC/7IjB0fi/QD4o
nUARVpPB08G/QH7jQ0BBgaDB4BVXQIyhVkCrIZTBuCObQMNGpD+PaY/BV/doQPRorEBILobBjDZ1
QIOxxECQpZHBtD9YQDAghUCSsaXB

>  <OMEGA_E>  (140) 
FG0GP0RjCD/csAk/qEgNP7bHBT8=

>  <OMEGA_NBR>  (140) 
    283250

$$$$
50214104
     RDKit          3D

 63 66  0  0  1  0  0  0  0  0999 V2000
    8.6506    7.2245  -18.4634 C   0  0  0  0  0  0  0  0  0  0  0  0
    8.3705    8.0914  -19.5339 C   0  0  0  0  0  0  0  0  0  0  0  0
    7.6214    6.8213  -17.5963 C   0  0  0  0  0  0  0  0  0  0  0  0
    6.0141    8.1181  -18.8982 C   0  0  0  0  0  0  0  0  0  0  0  0
    6.4298    0.7846  -21.5705 C   0  0  0  0  0  0  0  0  0  0  0  0
    4.6754   -0.7001  -20.7427 C   0  0  0  0  0  0  0  0  0  0  0  0
    6.7391   -1.6343  -21.6499 C   0  0  0  0  0  0  0  0  0  0  0  0
    7.0603    8.5687  -19.7418 C   0  0  0  0  0  0  0  0  0  0  0  0
    6.3018    7.2671  -17.8125 C   0  0  0  0  0  0  0  0  0  0  0  0
    5.1583    0.6038  -20.9821 C   0  0  0  0  0  0  0  0  0  0  0  0
    7.2226   -0.3334  -21.8939 C   0  0  0  0  0  0  0  0  0  0  0  0
    5.4630   -1.8169  -21.0809 C   0  0  0  0  0  0  0  0  0  0  0  0
    6.8215    1.4327  -18.0497 C   0  0  0  0  0  0  0  0  0  0  0  0
    5.3908    8.3966  -22.3305 C   0  0  0  0  0  0  0  0  0  0  0  0
    6.8172    8.8907  -22.2272 C   0  0  0  0  0  0  0  0  0  0  0  0
    4.5412    7.8165  -15.9663 C   0  0  0  0  0  0  0  0  0  0  0  0
    5.4331    6.6885  -15.3990 C   0  0  0  0  0  0  0  0  0  0  0  0
    4.5905    9.4857  -21.6012 C   0  0  0  0  0  0  0  0  0  0  0  0
    6.8232    9.5769  -20.8633 C   0  0  1  0  0  0  0  0  0  0  0  0
    5.1853    6.8002  -16.9070 C   0  0  0  0  0  0  0  0  0  0  0  0
    7.0966    0.3097  -17.0547 C   0  0  0  0  0  0  0  0  0  0  0  0
    4.3411    1.8048  -20.5470 C   0  0  0  0  0  0  0  0  0  0  0  0
    5.0222    4.5589  -17.8880 C   0  0  0  0  0  0  0  0  0  0  0  0
    5.0955    2.6189  -19.4676 C   0  0  1  0  0  0  0  0  0  0  0  0
    4.2114    3.7402  -18.9002 C   0  0  2  0  0  0  0  0  0  0  0  0
    5.5005    1.7229  -18.3702 N   0  0  0  0  0  0  0  0  0  0  0  0
    4.3083    5.8014  -17.5346 N   0  0  0  0  0  0  0  0  0  0  0  0
    7.7570    1.9441  -18.6562 O   0  0  0  0  0  0  0  0  0  0  0  0
    5.5255   10.2113  -20.7541 O   0  0  0  0  0  0  0  0  0  0  0  0
    3.7933    4.5835  -19.9731 O   0  0  0  0  0  0  0  0  0  0  0  0
    8.4527   -0.1583  -22.4275 F   0  0  0  0  0  0  0  0  0  0  0  0
    4.9992   -3.0649  -20.8458 F   0  0  0  0  0  0  0  0  0  0  0  0
    9.6581    6.8680  -18.3073 H   0  0  0  0  0  0  0  0  0  0  0  0
    9.1639    8.3937  -20.2013 H   0  0  0  0  0  0  0  0  0  0  0  0
    7.8414    6.1694  -16.7638 H   0  0  0  0  0  0  0  0  0  0  0  0
    4.9967    8.4269  -19.0876 H   0  0  0  0  0  0  0  0  0  0  0  0
    6.7941    1.7810  -21.7726 H   0  0  0  0  0  0  0  0  0  0  0  0
    3.7006   -0.8416  -20.2997 H   0  0  0  0  0  0  0  0  0  0  0  0
    7.3468   -2.4917  -21.8991 H   0  0  0  0  0  0  0  0  0  0  0  0
    5.0771    8.3131  -23.3815 H   0  0  0  0  0  0  0  0  0  0  0  0
    5.2739    7.4218  -21.8344 H   0  0  0  0  0  0  0  0  0  0  0  0
    7.5319    8.0550  -22.2563 H   0  0  0  0  0  0  0  0  0  0  0  0
    7.0521    9.6022  -23.0326 H   0  0  0  0  0  0  0  0  0  0  0  0
    3.4546    7.7975  -15.7959 H   0  0  0  0  0  0  0  0  0  0  0  0
    4.8961    8.8576  -15.9542 H   0  0  0  0  0  0  0  0  0  0  0  0
    6.4240    6.9251  -14.9840 H   0  0  0  0  0  0  0  0  0  0  0  0
    4.9826    5.8649  -14.8257 H   0  0  0  0  0  0  0  0  0  0  0  0
    4.1335   10.1702  -22.3310 H   0  0  0  0  0  0  0  0  0  0  0  0
    3.8027    9.0265  -20.9860 H   0  0  0  0  0  0  0  0  0  0  0  0
    7.6206   10.3343  -20.8432 H   0  0  0  0  0  0  0  0  0  0  0  0
    8.1768    0.1046  -17.0219 H   0  0  0  0  0  0  0  0  0  0  0  0
    6.7504    0.6125  -16.0554 H   0  0  0  0  0  0  0  0  0  0  0  0
    6.5605   -0.5980  -17.3690 H   0  0  0  0  0  0  0  0  0  0  0  0
    4.1532    2.4486  -21.4189 H   0  0  0  0  0  0  0  0  0  0  0  0
    3.3825    1.4584  -20.1335 H   0  0  0  0  0  0  0  0  0  0  0  0
    5.1764    3.9594  -16.9787 H   0  0  0  0  0  0  0  0  0  0  0  0
    5.9972    4.8149  -18.3282 H   0  0  0  0  0  0  0  0  0  0  0  0
    5.9883    3.0689  -19.9261 H   0  0  0  0  0  0  0  0  0  0  0  0
    3.3426    3.2948  -18.3935 H   0  0  0  0  0  0  0  0  0  0  0  0
    4.7804    1.2973  -17.8221 H   0  0  0  0  0  0  0  0  0  0  0  0
    3.5715    5.5767  -16.8969 H   0  0  0  0  0  0  0  0  0  0  0  0
    3.9196    6.1951  -18.3676 H   0  0  0  0  0  0  0  0  0  0  0  0
    3.2913    4.0749  -20.5991 H   0  0  0  0  0  0  0  0  0  0  0  0
  1  2  2  0
  1  3  1  0
  2  8  1  0
  3  9  2  0
  4  8  2  0
  4  9  1  0
  5 10  2  0
  5 11  1  0
  6 10  1  0
  6 12  2  0
  7 11  2  0
  7 12  1  0
  8 19  1  0
  9 20  1  0
 10 22  1  0
 11 31  1  0
 12 32  1  0
 13 21  1  0
 13 26  1  0
 13 28  2  0
 14 15  1  0
 14 18  1  0
 15 19  1  0
 16 17  1  0
 16 20  1  0
 17 20  1  0
 18 29  1  0
 19 29  1  0
 20 27  1  0
 22 24  1  0
 23 25  1  0
 23 27  1  0
 24 25  1  0
 24 26  1  0
 25 30  1  0
  1 33  1  0
  2 34  1  0
  3 35  1  0
  4 36  1  0
  5 37  1  0
  6 38  1  0
  7 39  1  0
 14 40  1  0
 14 41  1  0
 15 42  1  0
 15 43  1  0
 16 44  1  0
 16 45  1  0
 17 46  1  0
 17 47  1  0
 18 48  1  0
 18 49  1  0
 19 50  1  6
 21 51  1  0
 21 52  1  0
 21 53  1  0
 22 54  1  0
 22 55  1  0
 23 56  1  0
 23 57  1  0
 24 58  1  6
 25 59  1  1
 26 60  1  0
 27 61  1  0
 27 62  1  0
 30 63  1  0
M  CHG  1  27   1
M  END
>  <OMEGA_C>  (141) 
D2kKQfQu50D6tJPBk+0FQUp2AUFVRZzB4+LzQOZH2kBKxYzBgXPAQKDjAUGPL5fBq8DNQNfcSD93
kKzBeZyVQGg5M78f8aXBBqfXQDcx0b//Mq3BM+7hQDkZCUEe753BJajJQCuM6EAUgI7BuBClQOKT
Gj9r26fBlB/nQAe5qr6wJq/B/tCuQE6Q6L+2pajB1EnaQCZjtz/hZZDBuYGsQElYBkHWpLLBpCba
QGhADkFI0bHBh1GRQIUg+kDEdX/B7dutQHMI1kA2YnbBN+WSQGfFF0Exz6zBCljaQNI6GUEY6KbB
zO2lQIyb2UBxQYfBIRfjQL+Tnj4DcIjBdeqKQN4C5z86YKTBlLWgQLzikUCkGo/BVw6jQKybJ0CO
vZvBxsOGQMNfb0CzM5fByAOwQH6H3D8V9pLBRd2JQK2kuUDcRozBrzn4QOXY+D/4P5XBzdCwQIph
I0FbCKbBUMVyQMmrkkDmyJ/BNj4HQYIfIr57a7PBr/mfQDYnRMA8xKbBqIcaQQ3H20BXdZLBgp8S
QaZMBkE0nKHBv+z6QCBsxUA6HIbBteSfQJvUBkFds5jBNGnZQCn54z80Lq7BBNdsQHRwV7/AZaLB
NRnrQE53H8BFMa/BiXeiQIUCBUFJDbvBgsOoQAJ/7UDkrK7BFAXxQE/hAEHpDLLBbKrhQLKiGUGv
QrjB4RhdQLaE+UDlu3zBlKycQK64DUF/RH/BO5HNQC6a3UB7vm/BF3GfQIitu0DiNW3B7EWEQEu5
IkHQpbLB1l5zQGJsEEFM46fBPdzzQG9ZJUHPvqbBHdQCQUNH1j3ELIjBhQPYQPjKHD+FcYDB9e/R
QL4TGb+384rBseaEQDu1HEDhWavBInpYQMesuj9hEaHBzaSlQG1mfUB41IfBQOm/QJcTmkAZoJLB
jaC/QNpoREC9aJ/Bq+1VQJPdUkDTJZPBS/mYQEINpj+Rk47Bu5JkQDl0skDgLIfBWtt6QEU+xkDm
8JLB4aRSQGBlgkDmyqTBHcIIQb/V8ECnRZTB4toBQd+a+0Dio57Bm3XzQAaB5kAwUYzB1KO5QF87
80AcBpnBpKvOQDozSj9YhKzBss6UQPkBKL8QSqbBKwXXQNxP0b/uEK3BaX7XQAZn/EBTIaHBSVDH
QE1F6EA0qY7BEVelQDA6Iz/7GajBzZDnQAi+sL7i6q7BfpCtQC4q5b/7zqjBiD3ZQHR/uT8yUZDB
xUK5QF4gJkGLHq3BkdWiQOSdEEFIwq3BEEiSQKc9+kApcX7BP56vQB/f1kD5e3XBpJ/mQIxuIUEj
VbHBbRbIQGjVAEGLsazBSN6lQK0f2UAFxYbBQA7hQPcaoj5vYojBULCLQEzl7T8px6TBEcmgQCp6
kUDo1I7BPYmjQFzLKUBT+JvBHp2HQAVmckBXepfBaVGvQN6w3j+nNJPBLlmJQK0fuEC+UovBs8P3
QBgc/D/03pTB8anoQF+KCkFKRbPBQtV5QD2hlUAGAaDB98EHQbCESb635rLB17SdQLnTQcAjB6fB
/qIZQUSB8EAPbJLBSHoNQaanAUGZvKTBVx3+QMw83UBnboTBWdSXQCmg9EB/x5rBPTHbQEyU4z++
Da7BxUZqQFPeRr+f96LBYh3qQLVYIMAb6a7BawypQDUJMkGhLLLBTV+6QH3uK0EB0aTB9sGLQAKp
DkGuL6fB/kiSQC6oDkGwdrXB9IFfQPWX+UCwCHvBFnOdQD/ODUE23n7Bw8DPQKXy3kApi2/Bpw6i
QBzuvECjtWvBRF/sQHlCKkEEz7jBgqn+QHwbJkElWKvBI4++QE5W4kDL66/B4soBQQkC6T2t2IfB
IODUQEibGz+zdoDBXlXQQNHEFr+mHovBqeiGQDJ9IEAMyKvBBdVYQLZpxD81rqHBn62lQBqWeEA1
6YfBewTAQA4Tm0ADG5LBcaXAQA7FRUBJeJ/B1h5VQHbhVkCa5JPBmbmXQDe4pj/5FY/BBftnQH6g
r0DrwYXBiix0QHGRxEANoZHBybtaQAaFhkDCVKXBwpEHQQwn7EDd4ZXBdkv/QOpBAkGegp7BKDDz
QPpi3kCpw43BaYm3QAAyAEEfEpfBGkzPQGgoOT+RWqzB7RCTQK7HJL+uY6bBBCfVQDDr2r8IVqzB
vTLTQDPCB0Hj/p7BZFPHQFuf6EB+c47B2DalQK9nID9nSqjBslHnQHBW477WSa7BG/OqQByh57++
cqjBWi3YQA5otj9ASpDBUsfpQDTVD0E3qrfBYCbfQEiPIEEwJ6/BrXKTQDPQ+EC4AX7BalGyQLZM
1kAURnXB1iTHQHX+/EC8UbbB+ye/QM4bFUFM56fBdXSnQMkO2EDbjYbBRoneQNyktT4lvofBtJuM
QPm88D8yRqXBUsiiQFeskUARTI/BfjekQDbAKUD9TJzBBriIQIf3ckB0yZfB6rquQLYc3T9ogZPB
bBqLQABLt0AvQYvBEHP3QBPg8z+ozpTBjtCnQLJUB0EZEa/BQtF6QNDdlUApRaDBoQEIQeT2sr6m
47HBOI2ZQOSQQcB8i6bBhFoYQSIS5EAQgpXBiF4KQYVtB0H7xaTBlTP/QEgmzEBeEYfByrOVQDCN
A0HjmpfBww7dQOiy2D8/+q3B6J5lQC+7OL/FWaPBQZTnQK23JsDi0a3BC07oQEvnFkERt7/BCeoE
QZYUCUHJTrbBkPr7QEkyJUHbqqrBpq/QQNXbLkEFy7LBsTNiQB4u90BAPnrBpZWdQJc/DUEXqX7B
o3XSQPdf30ABt2/B1/mlQOcOvEArTGvBr0e4QHGi9UDFFL7BDC7VQJOv30DO77LB3IapQH4EIUFh
VaTBz3QAQTXFGj6Mx4bBWz/RQBFxNT8SGoDBKQbOQPZQEb9ULorBDqaJQOPPIUBoWazBzw9ZQBKQ
zD9KcaLBR5OpQPTvd0CclIjBbxPBQFR2nEBK4JLBmNnBQCfnRECAn5/BTtBXQDLmV0DeB5TB/oeW
QHEqpT8unI/B0/RsQLOGrUCBpYXBqfZ1QK1zxED7VJHBzZxaQAfHhkBZf6XB5CLJQHZ8CUFkTaDB
vuX1QJ9GB0FHZZ/BYU6uQCFpAUHLLJjBSH/sQBxE50COvI7BVvbMQLhkLz+vlKzB4T6RQA4zJL8B
w6XBFE3QQOcy4L/hFK3Bn9ADQUFX+kBqQJbBVlbAQEMH7UDhW4/BjxOkQOpdHT/o0KfB9CTjQLew
/r44JK/BvjmnQN1J6b+8dqjBornXQHuSoz+WEpDBOaA2QUL+FUHaMI/BE4gnQVxbEEGnP5jBG+qS
QLyy9UCK/nvBzG21QH8Q1EDHrnbBSaIpQY68D0GHZYXB26gbQYjN+EDXDJTBMKSkQL4c2UBk3IbB
sOrbQIp7ZT65TofBXAWNQNfn8D8Ll6TBrw2kQCb0kUD86I7BzwKmQLjNKED2yJvB8IeLQD+5dEAY
spfBBxCvQGqd3T/rwZLBRTmKQE1mtkCMFYvBglD3QAWGyz9xVZXBC3MfQeH090BkcYjBPIGDQA8W
l0DoWKDBez4FQX2j276rmrPBBOOUQAWaQcAKnqbBRnG7QOxVEUE8MqfB7EsFQXBADUEFo6XBIROM
QFqNA0HcsJjB0N35QD/t00BjZ4jBvDnbQGa10j//Qq7Bau1jQLZcMr+cHaLBPljhQLQlKsDdCq/B
noxFQXS3DEGgsI/Bq2U6QS4vJ0FKKY/BoEYcQbqEHUE60ZnB5nUwQYKkDEHlmZ/BR81jQEcy8UBq
UXbBxviaQJf6C0EvrXvBAyHWQFhG3kDionLB4Q6tQHKDt0AdR23Bshs0QUVUDUEM23zBpaIdQfIO
HEEth4PBDokiQcMU3EDVzJfBszP9QIv5Bb5Q8YbBlvjSQCFLKj/8H3/Bn5bGQIU2H7+mGInBZsOJ
QLkmIkAjoqvBgSJaQOmozz8BiqHBsVeqQIrmd0BBOYjBw5jCQJbInUASIpLB2S7EQP3OQECVLp/B
5HVaQHGeXEDlYZTBS2qWQHs/tj+vSY7Btl5tQM8jrEB+SoXBArFxQOulwUBNL5HB/YZoQKuNiEAM
1KXB

>  <OMEGA_E>  (141) 
8GPkPnh17z7wTOQ+lkonPw==

>  <OMEGA_NBR>  (141) 
    287620

$$$$
50214108
     RDKit          3D

 73 76  0  0  1  0  0  0  0  0999 V2000
    8.4730    7.5671  -18.6216 C   0  0  0  0  0  0  0  0  0  0  0  0
    7.9402    8.1446  -19.7884 C   0  0  0  0  0  0  0  0  0  0  0  0
    7.6109    7.0750  -17.6243 C   0  0  0  0  0  0  0  0  0  0  0  0
    5.6942    7.7637  -18.9534 C   0  0  0  0  0  0  0  0  0  0  0  0
    6.4372    0.7610  -21.5523 C   0  0  0  0  0  0  0  0  0  0  0  0
    4.5935   -0.6318  -20.7570 C   0  0  0  0  0  0  0  0  0  0  0  0
    6.6580   -1.6672  -21.5422 C   0  0  0  0  0  0  0  0  0  0  0  0
    6.5352    8.2032  -19.9696 C   0  0  0  0  0  0  0  0  0  0  0  0
    6.2046    7.2104  -17.7705 C   0  0  0  0  0  0  0  0  0  0  0  0
    5.1341    0.6429  -21.0205 C   0  0  0  0  0  0  0  0  0  0  0  0
    7.2010   -0.3934  -21.8036 C   0  0  0  0  0  0  0  0  0  0  0  0
    5.3517   -1.7853  -21.0262 C   0  0  0  0  0  0  0  0  0  0  0  0
    5.8699   10.2536  -21.2171 C   0  0  0  0  0  0  0  0  0  0  0  0
    6.7539    1.4164  -18.0619 C   0  0  0  0  0  0  0  0  0  0  0  0
    7.1812   10.6463  -21.8913 C   0  0  0  0  0  0  0  0  0  0  0  0
    7.5542    9.4709  -22.8191 C   0  0  0  0  0  0  0  0  0  0  0  0
    5.4289    8.3008  -14.2504 C   0  0  0  0  0  0  0  0  0  0  0  0
    4.8807    8.9101  -15.5486 C   0  0  0  0  0  0  0  0  0  0  0  0
    6.4156    7.1546  -14.5378 C   0  0  0  0  0  0  0  0  0  0  0  0
    6.5817    8.3263  -22.5009 C   0  0  0  0  0  0  0  0  0  0  0  0
    4.1866    7.8174  -16.3650 C   0  0  0  0  0  0  0  0  0  0  0  0
    5.8000    6.0774  -15.4643 C   0  0  0  0  0  0  0  0  0  0  0  0
    5.8618    8.7375  -21.2208 C   0  0  1  0  0  0  0  0  0  0  0  0
    5.1782    6.6861  -16.7555 C   0  0  0  0  0  0  0  0  0  0  0  0
    6.9644    0.4293  -16.9188 C   0  0  0  0  0  0  0  0  0  0  0  0
    4.3561    1.8809  -20.6395 C   0  0  0  0  0  0  0  0  0  0  0  0
    5.1138    4.5283  -17.9514 C   0  0  0  0  0  0  0  0  0  0  0  0
    5.1156    2.6499  -19.5409 C   0  0  1  0  0  0  0  0  0  0  0  0
    4.2723    3.7927  -18.9865 C   0  0  2  0  0  0  0  0  0  0  0  0
    5.4540    1.7374  -18.4318 N   0  0  0  0  0  0  0  0  0  0  0  0
    4.3525    5.6687  -17.4359 N   0  0  0  0  0  0  0  0  0  0  0  0
    5.1746   10.9693  -20.5064 O   0  0  0  0  0  0  0  0  0  0  0  0
    7.7219    1.9761  -18.5659 O   0  0  0  0  0  0  0  0  0  0  0  0
    3.9142    4.6852  -20.0424 O   0  0  0  0  0  0  0  0  0  0  0  0
    8.4571   -0.2791  -22.2908 F   0  0  0  0  0  0  0  0  0  0  0  0
    4.8279   -3.0063  -20.7789 F   0  0  0  0  0  0  0  0  0  0  0  0
    9.5431    7.5014  -18.4913 H   0  0  0  0  0  0  0  0  0  0  0  0
    8.6002    8.5427  -20.5450 H   0  0  0  0  0  0  0  0  0  0  0  0
    8.0187    6.5941  -16.7474 H   0  0  0  0  0  0  0  0  0  0  0  0
    4.6249    7.8504  -19.0778 H   0  0  0  0  0  0  0  0  0  0  0  0
    6.8471    1.7371  -21.7660 H   0  0  0  0  0  0  0  0  0  0  0  0
    3.5978   -0.7226  -20.3487 H   0  0  0  0  0  0  0  0  0  0  0  0
    7.2432   -2.5537  -21.7375 H   0  0  0  0  0  0  0  0  0  0  0  0
    7.0483   11.5678  -22.4771 H   0  0  0  0  0  0  0  0  0  0  0  0
    7.9668   10.8014  -21.1370 H   0  0  0  0  0  0  0  0  0  0  0  0
    7.4518    9.7728  -23.8719 H   0  0  0  0  0  0  0  0  0  0  0  0
    8.5895    9.1519  -22.6282 H   0  0  0  0  0  0  0  0  0  0  0  0
    5.9480    9.0845  -13.6791 H   0  0  0  0  0  0  0  0  0  0  0  0
    4.5895    7.9095  -13.6569 H   0  0  0  0  0  0  0  0  0  0  0  0
    4.1578    9.7030  -15.3061 H   0  0  0  0  0  0  0  0  0  0  0  0
    5.7093    9.3357  -16.1336 H   0  0  0  0  0  0  0  0  0  0  0  0
    7.3112    7.5702  -15.0227 H   0  0  0  0  0  0  0  0  0  0  0  0
    6.6996    6.6834  -13.5853 H   0  0  0  0  0  0  0  0  0  0  0  0
    5.8606    8.1969  -23.3214 H   0  0  0  0  0  0  0  0  0  0  0  0
    7.1329    7.3871  -22.3458 H   0  0  0  0  0  0  0  0  0  0  0  0
    3.3704    7.3871  -15.7662 H   0  0  0  0  0  0  0  0  0  0  0  0
    3.7732    8.2634  -17.2816 H   0  0  0  0  0  0  0  0  0  0  0  0
    6.5894    5.3680  -15.7534 H   0  0  0  0  0  0  0  0  0  0  0  0
    5.0127    5.5445  -14.9110 H   0  0  0  0  0  0  0  0  0  0  0  0
    4.8228    8.3781  -21.2573 H   0  0  0  0  0  0  0  0  0  0  0  0
    8.0381    0.3541  -16.6917 H   0  0  0  0  0  0  0  0  0  0  0  0
    6.4248    0.7806  -16.0270 H   0  0  0  0  0  0  0  0  0  0  0  0
    6.5819   -0.5592  -17.2131 H   0  0  0  0  0  0  0  0  0  0  0  0
    4.2380    2.5256  -21.5230 H   0  0  0  0  0  0  0  0  0  0  0  0
    3.3644    1.5891  -20.2635 H   0  0  0  0  0  0  0  0  0  0  0  0
    5.3597    3.8459  -17.1245 H   0  0  0  0  0  0  0  0  0  0  0  0
    6.0424    4.8870  -18.4194 H   0  0  0  0  0  0  0  0  0  0  0  0
    6.0385    3.0640  -19.9730 H   0  0  0  0  0  0  0  0  0  0  0  0
    3.3741    3.3819  -18.5021 H   0  0  0  0  0  0  0  0  0  0  0  0
    4.7029    1.3256  -17.9158 H   0  0  0  0  0  0  0  0  0  0  0  0
    3.6761    5.3259  -16.7839 H   0  0  0  0  0  0  0  0  0  0  0  0
    3.8839    6.1063  -18.2033 H   0  0  0  0  0  0  0  0  0  0  0  0
    3.3899    4.2221  -20.6850 H   0  0  0  0  0  0  0  0  0  0  0  0
  1  2  2  0
  1  3  1  0
  2  8  1  0
  3  9  2  0
  4  8  2  0
  4  9  1  0
  5 10  2  0
  5 11  1  0
  6 10  1  0
  6 12  2  0
  7 11  2  0
  7 12  1  0
  8 23  1  0
  9 24  1  0
 10 26  1  0
 11 35  1  0
 12 36  1  0
 13 15  1  0
 13 23  1  0
 13 32  2  0
 14 25  1  0
 14 30  1  0
 14 33  2  0
 15 16  1  0
 16 20  1  0
 17 18  1  0
 17 19  1  0
 18 21  1  0
 19 22  1  0
 20 23  1  0
 21 24  1  0
 22 24  1  0
 24 31  1  0
 26 28  1  0
 27 29  1  0
 27 31  1  0
 28 29  1  0
 28 30  1  0
 29 34  1  0
  1 37  1  0
  2 38  1  0
  3 39  1  0
  4 40  1  0
  5 41  1  0
  6 42  1  0
  7 43  1  0
 15 44  1  0
 15 45  1  0
 16 46  1  0
 16 47  1  0
 17 48  1  0
 17 49  1  0
 18 50  1  0
 18 51  1  0
 19 52  1  0
 19 53  1  0
 20 54  1  0
 20 55  1  0
 21 56  1  0
 21 57  1  0
 22 58  1  0
 22 59  1  0
 23 60  1  6
 25 61  1  0
 25 62  1  0
 25 63  1  0
 26 64  1  0
 26 65  1  0
 27 66  1  0
 27 67  1  0
 28 68  1  6
 29 69  1  1
 30 70  1  0
 31 71  1  0
 31 72  1  0
 34 73  1  0
M  CHG  1  31   1
M  END
>  <OMEGA_C>  (142) 
XZEHQYAl8kAF+ZTB2xX+QElQAkG6Tp7B24zzQCNm4kB3/ozB0ja2QG9w+EB+oJfBjv3NQCrTQj8j
a6zBIf6SQPK6Ib9UDqbBnw7VQBVo1b9/VqzBlyDRQElAA0HJwZ/BSYzGQOq75kDiKY7Bi0qkQLiW
JD/sKajB6m7mQFRwyb7cba7BcEGrQEGE5L+WNajBPNa7QLgOJEGbvKnB3R/YQBJOtT+tfpDBhMzl
QC1XKkFPIa/BA7zxQOmIF0GRjbbBNbmtQCDQBEHKAWTBTy6cQKCPDkE7x3jBXEzNQEjy5EDVmmjB
SZ3SQIE4BUHuAbTB1viFQB8o+kCB64LB2pm5QFF6wkCSbXfBu5O7QLrMC0EjxKnBG7SlQNj01UBc
C4bBkdzeQPPI2z6/WYfBCGWLQLTC8D/BHaXB6qOjQDjokEBsnI/BxrKjQISYKUDHU5zBV7aIQOq6
ckBy5JfBPIeuQLdk3j9XdJPBa0eLQPVltUCffIvBDZalQHCCL0EsDaTBKxr3QCLy/D/ihpTB8YJ6
QHDtlUDFVqDBHFAHQVTgjr6LU7LB+32aQMpnQMAwO6bBg7AYQdML8EBA7pPBaJoJQcGuCEEPXKTB
r0wAQRwD00Cf+oXBHP+TQHA2+0BXn5jBXRvbQPtZ3j+xIK7BdEJmQHb+OL8syqLBmsjnQOhvI8BU
5q3Bp4vhQKUVOUEK0bPBou/+QG7SLEGgGKnBMnXuQEJdHEG4+b7BdW4JQUxuEkF9BrXBoVW+QB5a
EUHK3VrBytySQI8a/UC8glrBvgyFQEo/G0HQ5XTBb7K2QC9fFUGcEYHBN/XpQEM/8kDvXHDBJmPW
QFve1UBFXVnBuom7QK4mA0FTkrrBEEHkQDtj7EAyxLLBGLRXQNBi7EBrQnzBi3xxQME2BEHEQIrB
RNzSQJzGq0D6DXzBJmigQChssUCIk27BSFSaQLcMBkH+DqrB/JsAQVhJtT6CiIXBA5jNQKnWRz9G
N4DBJ5/SQA8pD79jtInBAZ6HQLWjIUAIL6zBwVJXQDVmyz+XG6LB24KrQJcidkD+/ojBP1vBQDVi
nEDjWpPBoDvBQLUYRECvyJ/Bz/FXQOBwWEBmBJTBTH6WQIeuqT+JU4/B0ERrQP1tqkB8RYbBWZF4
QNBmw0BHoJHBd/NYQGEbh0D0eqXBcIUKQeEB7UBX3JLBfkkEQUxJ/kAewJzBwfb1QHX930DAaovB
igq+QEhW9UAyy5fBC9HKQOp1Qj8D9KzBz0WUQE6DL78TC6XBc9rUQL5J1L91wqzBSK7cQCWnAUHJ
PJ/Bf+HJQHX+5ECywo3BRxSjQDZAGj9CvKfB5cLjQA+Mvb7faK/B+PSsQF9f6L98pqfBfzSiQCTT
FUH19qnB4vTaQBp3yD8aR5DBJTaqQAIGLUHK+qzBivvSQKtBLEEqorPBZxapQLtQBEFXjmPBx6Kc
QJzhDkGK23jBJrDHQJDO4kCCH2fBY3buQMESHEGWz63BjzqHQEK8/ECWvYPBZhW1QM7fwUASGXfB
Oc3OQKeMCkFVFarBU5elQA6V1kC/N4bBE+TkQFifAj+j04fB+5GJQFeR6D/mdaTB/MWiQF15kUDs
u4/BI/CiQLKHKECSKJzB5I2HQCz4cEDUqJfBPZOwQOTN4D9vSpPB1fuKQJ0bt0A7A4zBYdt9QOSA
DkEavafBTnP4QMUpB0DxDpXBMY10QHvzk0ABKqDB8fAEQdB1X76mX7TBVUOeQNBGQ8CuRKXBUE0b
QcC26UBs+JDBBE0QQYvlA0HmfKLBdLT/QOMg0kDq4oPB2oScQO0390CC15nBPg/WQCCK3z/EDq/B
EwNsQMIITr+p+6DBXgLoQLKpIcAMpa7BXmuPQPhsM0F+tLHB1cquQJbpNkFtyqXBRCrMQMbzJkFw
2bvBS6XiQCYDPEHQ2LPBQe24QHZAEEGeVFnB6PaLQCj5/EBfklvBzDeGQFwYHEHwxXXBBYe5QK8n
FUFdW4DB7CfmQO0J70BNeG3Bk2bNQHLN0kC7tVfBB1gDQdtKFUF/OLPB5mr+QAiCI0FQ56bBdZlU
QNZ68EBti3/BuJN8QKwuBkFaTYvB4gXOQLQtqkBW03rBpbyZQLi9sUD6f2/BgEbOQAoa+0DIA7DB
+d8DQZKjwj6bL4fBoP/XQK9xVT/YDoDB8BPWQOi54774I4rBnFKDQIs8HEAsiavB4/xVQNNwvz9m
8KDBA5iqQKbYeUC/3IjBr4HAQDXdm0DPqZPBdUK/QH4kREAEFaDBOWBXQHzEVUCnfpPB9+yZQNZt
oj8JM4/BfWJnQOk3rUCQHYfBzyp8QL+ZxUDWX5LBKJhSQLk3hEA5F6XBy8QLQReM7ECgOJLBpLoG
QU3mAkFUIZvBQ8f2QKuO3EBjo4vBL4XBQIRW/ECJWpfBRz7LQKCmTD+mpqzBG+mTQNnoML8HrKXB
ewzWQAujzr8X8KzB2XTiQNohB0E4rZ3BHTTLQKS/5UCu4o3BiMaiQEU4HD8x2qfBXP7kQFL6n77f
Ga/ByWutQH2r5r+QRajBVWDRQKIBAkG/2rDBVObaQBd6xD/AXpDBeTKlQG25BkFTZLXBBo2dQNhZ
HkF42bLBR0mpQFcFBEHiNWTBgO+aQIhvDkEmUHnB7oLIQPfi4kBZOmjBifGwQN5IIUEazqfBbZqG
QG5e+0C9BoTBCBK1QD2gwUAMwHfB9PjYQFiyEkF/CajB4g6mQLlC1kDvn4bBA6rlQKJP6j4ZKYjB
hLKIQF145j/RV6TBZLWiQOKDkEAGqI/BSxSiQE/KJkDy+pvBWb2GQEJBbkAyUpfBh1GwQNHa2z8s
PpPBMt+LQBlOt0BHjYzBITLmQPlR40A8XLLBIvb3QIKqB0AfBZXBDxtwQO9DkkC5wZ/B0hUGQXTe
BL6Jc7PBpgqfQH4jQ8ATK6bBukYcQQBa5UBgaJDBal4TQZxjCUEtDKDBfdb+QBEQyUBgy4TBTpKg
QB35/0AqzJnBS2bWQK0B5j/Rb67BVehpQDXFVb/zAaLB4rzpQPkCHsBC267BApukQL/6A0E9Fb7B
p9WMQMJM+UDQhbHBWKStQE2pKEETvbjBmzt2QAz/IUFNwLLBTju5QLomEEEWQlrBKfiMQDzA+0C1
wFvB/VyDQD4KG0Eu2nXB3OG2QH+DFUFUq4DBATTmQByl70A/NG/BOMPPQLUk00DX6FjBXfy5QPkT
MkE7dKbBCHiaQBwlHEHtiaHB10NUQNkM7kClEIDBjCR6QNF7BUHui4vBemPNQGotqUCTSHvBbF6Z
QCl4skAV+W/BMd70QEh7HEFiPqrBuU4EQbNJtD5fi4fBXYbYQFxaPj/XUoDB65rXQITy/74RsYrB
E9SBQB4YHEDqTKvBY+JUQII1uj/0y6DB+5OpQG5KekAUg4jBlOvAQNcemUB7oJPBbC6+QOk2Q0B1
6Z/BlzdXQLdvUkBP7JLBx/yZQH7Imz/7JI/BAzJmQH3orkCk8YfB1hKBQECJxUBxMJPBnjRNQNI8
gkCxhKTBy78IQQfu7UDw5JTBgucBQWzeBUG3lJzBo+7zQMrh20Cxto3BMqa6QG3iAUHwSZbBK4DM
QIY5Qj/Dg6zBhYKSQBVbKL836KXBBpnUQBU41b+kcKzBxO7XQM6GC0GQQ53BzxLIQMmY50DyK47B
wiajQGJSHz/uGKjBRlDlQIQJxb4Smq7BRh2rQPt65r/gI6jByM/oQEOBI0GjCK3BuKLYQJXKvD9e
BJDBF4/mQHURE0FvLbbB2B+9QDUsBkGNWbTBEpKvQHSEA0FUEWTBl/ibQFKaDUEZQHjBOqnOQCtj
4kBro2nBnOSjQPRkE0GpRazBcdKFQMNy+EDPw4LBck65QI+vwEDwQXjBH/DGQDGPHEHX/aTBmBKm
QEhx1UCbaobB/cjgQPhewj4dxYfBOiiKQOxe7D/f4KTBlGKjQMxFkEB/s4/B9P2iQPYpJ0ArLJzB
vu2HQAqTb0C0pJfBz9iuQJ8k2T8XZJPB7u6LQE46tkDWP4zBaIkCQdHAMEGNj6vBmBP3QA5QAkAx
SZTBTtd1QNCkk0ABGaDBmKYGQSD9gL7RlrLBnwabQGK8QcDfCabBfGcZQRfb5EDef5TBdFoNQQUG
DUFG+aHBUqT+QPv9xEDv0YfBW/eYQNRWBUGrKJfByw7ZQAK93j/eSa7BHMllQFK9Qr9dhKLBSZXn
QLbbIsAqFK7Bd2flQNRFG0Eb9b3BvkYBQehoCEHl7bXBgB+rQJN1BEED3bvB2m7EQP917ECJGbHB
bhjBQC/sD0GjLFvBLaaVQL5H+kApA1rB6WeEQAzQGUF0k3PBLGq1QHQXFUGq6oDBKqrqQBbN70Cz
7XHBAQnZQBfA0kB3v1rB3/qRQNxEIEHvQ7DBtJmNQA5HCUFUtqfBKFNZQENs6UCMx3vBn6tuQOah
A0Hh4InBpm7RQFvcqEDl+3zBTH6fQCDJsECGUG/Btr26QJByKkE2h6DBHLsBQTYsdT6fwYbB/XvS
QGeyKz/PEoDBdkbSQMusD78hiIrBl6OFQOjHH0A/46vBFYFVQPmJxT8Vu6HBxl+qQNbAd0C8vojB
aI7BQMbomUBsipPB1B/AQMBUQkBfwp/BluBXQCGvVEC4f5PBnFuXQGZImj9zo4/BFAhoQNnfrEAD
eofBEMZ/QL6WxECyu5LBN4VTQFY8hECVDKXB

>  <OMEGA_E>  (142) 
uFqhPihYqj5QFq4+CLeePg==

>  <OMEGA_NBR>  (142) 
    292510

$$$$
50214105
     RDKit          3D

 66 69  0  0  1  0  0  0  0  0999 V2000
    8.5892    7.4159  -18.5318 C   0  0  0  0  0  0  0  0  0  0  0  0
    7.6325    7.0998  -17.5524 C   0  0  0  0  0  0  0  0  0  0  0  0
    8.1804    7.8674  -19.8005 C   0  0  0  0  0  0  0  0  0  0  0  0
    5.8530    7.7146  -19.1028 C   0  0  0  0  0  0  0  0  0  0  0  0
    6.4956    0.8002  -21.5579 C   0  0  0  0  0  0  0  0  0  0  0  0
    4.6567   -0.6338  -20.8303 C   0  0  0  0  0  0  0  0  0  0  0  0
    6.7386   -1.6268  -21.6278 C   0  0  0  0  0  0  0  0  0  0  0  0
    6.2598    7.2574  -17.8362 C   0  0  0  0  0  0  0  0  0  0  0  0
    6.8049    8.0299  -20.0965 C   0  0  0  0  0  0  0  0  0  0  0  0
    5.1896    0.6564  -21.0385 C   0  0  0  0  0  0  0  0  0  0  0  0
    7.2711   -0.3403  -21.8436 C   0  0  0  0  0  0  0  0  0  0  0  0
    5.4293   -1.7730  -21.1277 C   0  0  0  0  0  0  0  0  0  0  0  0
    6.7801    1.3855  -18.0860 C   0  0  0  0  0  0  0  0  0  0  0  0
    6.5938   10.7744  -21.4012 C   0  0  0  0  0  0  0  0  0  0  0  0
    4.5713    7.8382  -15.9406 C   0  0  0  0  0  0  0  0  0  0  0  0
    5.4791    6.7343  -15.3597 C   0  0  0  0  0  0  0  0  0  0  0  0
    7.1530    9.5657  -22.1218 C   0  0  0  0  0  0  0  0  0  0  0  0
    5.1298   10.3852  -21.1260 C   0  0  0  0  0  0  0  0  0  0  0  0
    5.1953    6.7954  -16.8666 C   0  0  0  0  0  0  0  0  0  0  0  0
    6.3326    8.4206  -21.5085 C   0  0  1  0  0  0  0  0  0  0  0  0
    7.0012    0.3490  -16.9893 C   0  0  0  0  0  0  0  0  0  0  0  0
    6.3296    7.1893  -22.4278 C   0  0  0  0  0  0  0  0  0  0  0  0
    4.3911    1.8810  -20.6287 C   0  0  0  0  0  0  0  0  0  0  0  0
    5.0388    4.5563  -17.8730 C   0  0  0  0  0  0  0  0  0  0  0  0
    5.1217    2.6585  -19.5058 C   0  0  1  0  0  0  0  0  0  0  0  0
    4.2399    3.7797  -18.9309 C   0  0  2  0  0  0  0  0  0  0  0  0
    5.4762    1.7300  -18.4187 N   0  0  0  0  0  0  0  0  0  0  0  0
    4.3075    5.7676  -17.4441 N   0  0  0  0  0  0  0  0  0  0  0  0
    7.7436    1.9656  -18.5758 O   0  0  0  0  0  0  0  0  0  0  0  0
    4.9990    8.9785  -21.4570 O   0  0  0  0  0  0  0  0  0  0  0  0
    3.8584    4.6581  -19.9890 O   0  0  0  0  0  0  0  0  0  0  0  0
    8.5318   -0.2007  -22.3122 F   0  0  0  0  0  0  0  0  0  0  0  0
    4.9204   -3.0073  -20.9145 F   0  0  0  0  0  0  0  0  0  0  0  0
    9.6412    7.3121  -18.3104 H   0  0  0  0  0  0  0  0  0  0  0  0
    7.9473    6.7373  -16.5850 H   0  0  0  0  0  0  0  0  0  0  0  0
    8.9210    8.0915  -20.5540 H   0  0  0  0  0  0  0  0  0  0  0  0
    4.8004    7.8258  -19.3175 H   0  0  0  0  0  0  0  0  0  0  0  0
    6.8997    1.7857  -21.7362 H   0  0  0  0  0  0  0  0  0  0  0  0
    3.6552   -0.7475  -20.4424 H   0  0  0  0  0  0  0  0  0  0  0  0
    7.3341   -2.5011  -21.8457 H   0  0  0  0  0  0  0  0  0  0  0  0
    7.1353   10.9567  -20.4612 H   0  0  0  0  0  0  0  0  0  0  0  0
    6.6494   11.6709  -22.0361 H   0  0  0  0  0  0  0  0  0  0  0  0
    3.4894    7.8212  -15.7430 H   0  0  0  0  0  0  0  0  0  0  0  0
    4.9224    8.8803  -15.9699 H   0  0  0  0  0  0  0  0  0  0  0  0
    6.4785    6.9875  -14.9763 H   0  0  0  0  0  0  0  0  0  0  0  0
    5.0454    5.9285  -14.7493 H   0  0  0  0  0  0  0  0  0  0  0  0
    6.9904    9.6370  -23.2074 H   0  0  0  0  0  0  0  0  0  0  0  0
    8.2269    9.4410  -21.9193 H   0  0  0  0  0  0  0  0  0  0  0  0
    4.8878   10.5484  -20.0655 H   0  0  0  0  0  0  0  0  0  0  0  0
    4.4544   10.9858  -21.7529 H   0  0  0  0  0  0  0  0  0  0  0  0
    8.0771    0.2627  -16.7772 H   0  0  0  0  0  0  0  0  0  0  0  0
    6.4718    0.6619  -16.0772 H   0  0  0  0  0  0  0  0  0  0  0  0
    6.6139   -0.6252  -17.3222 H   0  0  0  0  0  0  0  0  0  0  0  0
    5.9906    7.4820  -23.4324 H   0  0  0  0  0  0  0  0  0  0  0  0
    7.3472    6.7761  -22.4903 H   0  0  0  0  0  0  0  0  0  0  0  0
    5.6492    6.4280  -22.0186 H   0  0  0  0  0  0  0  0  0  0  0  0
    4.2655    2.5391  -21.5012 H   0  0  0  0  0  0  0  0  0  0  0  0
    3.4032    1.5629  -20.2642 H   0  0  0  0  0  0  0  0  0  0  0  0
    5.2055    3.9082  -17.0000 H   0  0  0  0  0  0  0  0  0  0  0  0
    6.0082    4.8530  -18.2999 H   0  0  0  0  0  0  0  0  0  0  0  0
    6.0357    3.1053  -19.9241 H   0  0  0  0  0  0  0  0  0  0  0  0
    3.3528    3.3336  -18.4575 H   0  0  0  0  0  0  0  0  0  0  0  0
    4.7329    1.3228  -17.8880 H   0  0  0  0  0  0  0  0  0  0  0  0
    3.6312    5.5058  -16.7556 H   0  0  0  0  0  0  0  0  0  0  0  0
    3.8411    6.1575  -18.2381 H   0  0  0  0  0  0  0  0  0  0  0  0
    3.3649    4.1741  -20.6406 H   0  0  0  0  0  0  0  0  0  0  0  0
  1  2  2  0
  1  3  1  0
  2  8  1  0
  3  9  2  0
  4  8  2  0
  4  9  1  0
  5 10  2  0
  5 11  1  0
  6 10  1  0
  6 12  2  0
  7 11  2  0
  7 12  1  0
  8 19  1  0
  9 20  1  0
 10 23  1  0
 11 32  1  0
 12 33  1  0
 13 21  1  0
 13 27  1  0
 13 29  2  0
 14 17  1  0
 14 18  1  0
 15 16  1  0
 15 19  1  0
 16 19  1  0
 17 20  1  0
 18 30  1  0
 19 28  1  0
 20 22  1  6
 20 30  1  0
 23 25  1  0
 24 26  1  0
 24 28  1  0
 25 26  1  0
 25 27  1  0
 26 31  1  0
  1 34  1  0
  2 35  1  0
  3 36  1  0
  4 37  1  0
  5 38  1  0
  6 39  1  0
  7 40  1  0
 14 41  1  0
 14 42  1  0
 15 43  1  0
 15 44  1  0
 16 45  1  0
 16 46  1  0
 17 47  1  0
 17 48  1  0
 18 49  1  0
 18 50  1  0
 21 51  1  0
 21 52  1  0
 21 53  1  0
 22 54  1  0
 22 55  1  0
 22 56  1  0
 23 57  1  0
 23 58  1  0
 24 59  1  0
 24 60  1  0
 25 61  1  6
 26 62  1  1
 27 63  1  0
 28 64  1  0
 28 65  1  0
 31 66  1  0
M  CHG  1  28   1
M  END
>  <OMEGA_C>  (143) 
kW0JQVlP7UAxQZTBPD30QPgx40BAa4zB++ICQYLB+0B9Z57BfEu7QE7e9kCR0pjBCNzPQKPXTD+q
dqzB0AOVQO4+Ir9hpKbB7qLXQIQ80L+9Ba3BolDIQKk86ECSsI7BrMHZQHd6AEG0xaDBzhCmQIwH
KD/ETqjBJK3oQLFArr6zv67B9rytQErw4r+EBanBrvbYQJFWsT8HsJDBtADTQOZjLEGWNavBWEiS
QJLS+kDFDH/BoFSvQL5/10B7wXXBBuXkQBcNGUFq+bDBsCekQJ4pJkEYAqnBCECmQDl02UDO7obB
fqTKQKO6BkFZEazBzAngQJO1sj4A6ofBeozKQBIP5kAUbLPBmIOMQJXE8D+sB6XBeD2hQFPNkUD5
+47B7OSjQIQlKkDqC5zBkq2HQOHlcUBwcpfBpjyvQLhv3T+WWZPBNteJQJGQuECBjYvBKsv3QFKZ
+z8jm5TBuPefQA+oD0EDqKvBr/B2QGEPlUBu6Z/BbIIIQfqQTb53f7LBFHSdQBR4QMDgUKfBVEIa
QRX96UCoe5LB+U/+QPGX10ADroTBVrwOQex2AUGXbqTBkJyZQJ9s+kAwiprBh8rcQI+S5D+z463B
Je9pQOJeP7/2iaPBjLDqQMgSIMAFxK7BM1TkQJ1OL0F2sKPB1MfUQA68OkH2SbDBs1FfQIBH+kBR
43vBWISdQJAVDkHNhH/B0k/PQP2Z30C6nm/BU3ShQF62vUA+/WvBYLHfQB8xGkGxqLnBi6EDQXAO
F0GiWq/BKWmcQELGKEEShqDBeIqOQOzFL0H1Ba7BxjsBQeR9hj6fN4bBphjPQJhvKT8dnoDB3aTT
QEQNIL/Ok4rBpbK/QNRs70ChdbvBDxzrQCbW2EAR7LPBg8a0QEyyzUAaJrDBOn+IQAWAIkB6AqzB
Zc1ZQCcOyD8dHaLBKJOmQAsgekAHAIjB7ULAQC5Mm0AdZpLBsiTBQHO9RkB+ZJ/B2pRWQMlZVUD1
qJPBrHOXQKpQqT+QGo/Bv2VoQOgvsEBoC4bB2NR1QIQKxUCk55HBH1tXQCWShUAIIKXB

>  <OMEGA_E>  (143) 
cLzoPg==

>  <OMEGA_NBR>  (143) 
    293910

$$$$
50214112
     RDKit          3D

 72 75  0  0  1  0  0  0  0  0999 V2000
    8.6703    7.5276  -18.3828 C   0  0  0  0  0  0  0  0  0  0  0  0
    8.2917    7.9930  -19.6503 C   0  0  0  0  0  0  0  0  0  0  0  0
    7.6950    7.1043  -17.4644 C   0  0  0  0  0  0  0  0  0  0  0  0
    5.9485    7.6626  -19.0651 C   0  0  0  0  0  0  0  0  0  0  0  0
    6.4202    0.8261  -21.5536 C   0  0  0  0  0  0  0  0  0  0  0  0
    4.6282   -0.6474  -20.7861 C   0  0  0  0  0  0  0  0  0  0  0  0
    6.7102   -1.5931  -21.6348 C   0  0  0  0  0  0  0  0  0  0  0  0
    6.9314    8.0390  -20.0119 C   0  0  0  0  0  0  0  0  0  0  0  0
    6.3150    7.1979  -17.7796 C   0  0  0  0  0  0  0  0  0  0  0  0
    5.1297    0.6501  -21.0066 C   0  0  0  0  0  0  0  0  0  0  0  0
    7.2137   -0.2955  -21.8553 C   0  0  0  0  0  0  0  0  0  0  0  0
    5.4150   -1.7673  -21.1064 C   0  0  0  0  0  0  0  0  0  0  0  0
    6.8035    1.5192  -18.0057 C   0  0  0  0  0  0  0  0  0  0  0  0
    5.2401    8.1673  -14.1838 C   0  0  0  0  0  0  0  0  0  0  0  0
    4.8413    8.8777  -15.4869 C   0  0  0  0  0  0  0  0  0  0  0  0
    6.2590    7.0543  -14.4582 C   0  0  0  0  0  0  0  0  0  0  0  0
    5.8233   10.6748  -21.0561 C   0  0  0  0  0  0  0  0  0  0  0  0
    6.9609    9.9071  -21.7008 C   0  0  0  0  0  0  0  0  0  0  0  0
    4.2278    7.8780  -16.4720 C   0  0  0  0  0  0  0  0  0  0  0  0
    5.7202    6.0448  -15.4970 C   0  0  0  0  0  0  0  0  0  0  0  0
    4.6133    9.7434  -21.2349 C   0  0  0  0  0  0  0  0  0  0  0  0
    6.5609    8.4558  -21.4358 C   0  0  2  0  0  0  0  0  0  0  0  0
    5.2012    6.7188  -16.8124 C   0  0  0  0  0  0  0  0  0  0  0  0
    7.0912    0.4340  -16.9727 C   0  0  0  0  0  0  0  0  0  0  0  0
    4.3181    1.8471  -20.5761 C   0  0  0  0  0  0  0  0  0  0  0  0
    5.0841    4.5335  -17.9428 C   0  0  0  0  0  0  0  0  0  0  0  0
    5.0863    2.6324  -19.4962 C   0  0  1  0  0  0  0  0  0  0  0  0
    4.2259    3.7536  -18.9260 C   0  0  2  0  0  0  0  0  0  0  0  0
    5.4864    1.7277  -18.3997 N   0  0  0  0  0  0  0  0  0  0  0  0
    4.3634    5.7358  -17.5234 N   0  0  0  0  0  0  0  0  0  0  0  0
    7.7385    2.0754  -18.5722 O   0  0  0  0  0  0  0  0  0  0  0  0
    5.1309    8.4487  -21.6558 O   0  0  0  0  0  0  0  0  0  0  0  0
    3.7990    4.6140  -19.9831 O   0  0  0  0  0  0  0  0  0  0  0  0
    8.4626   -0.1267  -22.3453 F   0  0  0  0  0  0  0  0  0  0  0  0
    4.9310   -3.0102  -20.8901 F   0  0  0  0  0  0  0  0  0  0  0  0
    9.7152    7.4944  -18.1117 H   0  0  0  0  0  0  0  0  0  0  0  0
    9.0462    8.3172  -20.3518 H   0  0  0  0  0  0  0  0  0  0  0  0
    7.9989    6.7036  -16.5087 H   0  0  0  0  0  0  0  0  0  0  0  0
    4.9032    7.7310  -19.3279 H   0  0  0  0  0  0  0  0  0  0  0  0
    6.7972    1.8208  -21.7400 H   0  0  0  0  0  0  0  0  0  0  0  0
    3.6401   -0.7817  -20.3712 H   0  0  0  0  0  0  0  0  0  0  0  0
    7.3171   -2.4547  -21.8707 H   0  0  0  0  0  0  0  0  0  0  0  0
    5.6845    8.9008  -13.4950 H   0  0  0  0  0  0  0  0  0  0  0  0
    4.3426    7.7287  -13.7233 H   0  0  0  0  0  0  0  0  0  0  0  0
    4.1049    9.6630  -15.2612 H   0  0  0  0  0  0  0  0  0  0  0  0
    5.7346    9.3321  -15.9404 H   0  0  0  0  0  0  0  0  0  0  0  0
    7.1863    7.5040  -14.8427 H   0  0  0  0  0  0  0  0  0  0  0  0
    6.4713    6.5230  -13.5187 H   0  0  0  0  0  0  0  0  0  0  0  0
    6.0258   10.8557  -19.9901 H   0  0  0  0  0  0  0  0  0  0  0  0
    5.6586   11.6353  -21.5662 H   0  0  0  0  0  0  0  0  0  0  0  0
    7.0208   10.1138  -22.7796 H   0  0  0  0  0  0  0  0  0  0  0  0
    7.9240   10.1484  -21.2272 H   0  0  0  0  0  0  0  0  0  0  0  0
    3.3156    7.4552  -16.0258 H   0  0  0  0  0  0  0  0  0  0  0  0
    3.9699    8.4084  -17.4006 H   0  0  0  0  0  0  0  0  0  0  0  0
    6.5307    5.3487  -15.7589 H   0  0  0  0  0  0  0  0  0  0  0  0
    4.8898    5.4858  -15.0411 H   0  0  0  0  0  0  0  0  0  0  0  0
    4.0707    9.6421  -20.2834 H   0  0  0  0  0  0  0  0  0  0  0  0
    3.9361   10.1469  -22.0020 H   0  0  0  0  0  0  0  0  0  0  0  0
    7.0683    7.7968  -22.1557 H   0  0  0  0  0  0  0  0  0  0  0  0
    8.1785    0.2964  -16.8778 H   0  0  0  0  0  0  0  0  0  0  0  0
    6.6734    0.7335  -16.0003 H   0  0  0  0  0  0  0  0  0  0  0  0
    6.6290   -0.5107  -17.2951 H   0  0  0  0  0  0  0  0  0  0  0  0
    4.1383    2.4986  -21.4440 H   0  0  0  0  0  0  0  0  0  0  0  0
    3.3551    1.5080  -20.1664 H   0  0  0  0  0  0  0  0  0  0  0  0
    5.2981    3.9074  -17.0640 H   0  0  0  0  0  0  0  0  0  0  0  0
    6.0291    4.8211  -18.4269 H   0  0  0  0  0  0  0  0  0  0  0  0
    5.9844    3.0723  -19.9542 H   0  0  0  0  0  0  0  0  0  0  0  0
    3.3622    3.3220  -18.3990 H   0  0  0  0  0  0  0  0  0  0  0  0
    4.7664    1.2351  -17.9109 H   0  0  0  0  0  0  0  0  0  0  0  0
    3.6181    5.4602  -16.9163 H   0  0  0  0  0  0  0  0  0  0  0  0
    3.9846    6.1757  -18.3377 H   0  0  0  0  0  0  0  0  0  0  0  0
    3.2632    4.1229  -20.5949 H   0  0  0  0  0  0  0  0  0  0  0  0
  1  2  2  0
  1  3  1  0
  2  8  1  0
  3  9  2  0
  4  8  2  0
  4  9  1  0
  5 10  2  0
  5 11  1  0
  6 10  1  0
  6 12  2  0
  7 11  2  0
  7 12  1  0
  8 22  1  0
  9 23  1  0
 10 25  1  0
 11 34  1  0
 12 35  1  0
 13 24  1  0
 13 29  1  0
 13 31  2  0
 14 15  1  0
 14 16  1  0
 15 19  1  0
 16 20  1  0
 17 18  1  0
 17 21  1  0
 18 22  1  0
 19 23  1  0
 20 23  1  0
 21 32  1  0
 22 32  1  0
 23 30  1  0
 25 27  1  0
 26 28  1  0
 26 30  1  0
 27 28  1  0
 27 29  1  0
 28 33  1  0
  1 36  1  0
  2 37  1  0
  3 38  1  0
  4 39  1  0
  5 40  1  0
  6 41  1  0
  7 42  1  0
 14 43  1  0
 14 44  1  0
 15 45  1  0
 15 46  1  0
 16 47  1  0
 16 48  1  0
 17 49  1  0
 17 50  1  0
 18 51  1  0
 18 52  1  0
 19 53  1  0
 19 54  1  0
 20 55  1  0
 20 56  1  0
 21 57  1  0
 21 58  1  0
 22 59  1  6
 24 60  1  0
 24 61  1  0
 24 62  1  0
 25 63  1  0
 25 64  1  0
 26 65  1  0
 26 66  1  0
 27 67  1  6
 28 68  1  1
 29 69  1  0
 30 70  1  0
 30 71  1  0
 33 72  1  0
M  CHG  1  30   1
M  END
>  <OMEGA_C>  (144) 
lbkKQdTh8EDzD5PB8qoEQUTG/0DYM53BST32QLBW40Aot4vBfFq+QOQz9UBqhZjBTXLNQBF6Uz/O
bazBKRqUQNW5Jb/XSabB4LnWQPrqy78AFK3BPc7dQNyfAEFNGKDBvxTKQFJV5kCoPI7BfCakQHVu
Jj+CDajB/tbmQPBJl76g167Bc0etQA824r/12ajBh7bZQOFzwj+VC5DBG6+nQECtAkH78GLBKuya
QAcLDkFuynfBo0nIQNK84UCrVGfBYFi6QOnLKkHNcqjBoL/eQFSDHkFJm63B9EmHQIgY/EDCxoPB
PAy3QBZvwUDR83fBFqCTQNTkG0EL4anBNfPRQNJKB0F9fKvBinCmQMAA10Dlf4bBXuviQJwz3j4r
yIfBwC2KQEZt7D/Om6TBRLGiQF4SkUDtio/BmcKiQPR5KEA5+JvBWDqHQNs6cECEaJfBj5CvQMMl
3T+bMpPB7qCLQPiLt0DnL4zBuaH3QOjTBEDpk5TBMjCkQOItB0EHP63BzyJzQLClk0By3Z/BuGYH
QRjGAb4aw7LBo8qdQOKmQMDoHqfBbnEbQRLS70Cq5JDBDr0QQVwTBUGB0KLBNvf/QAWE1kDMEYTB
SOecQKRk90CFn5rBrYLZQOEQ6T+X663B/PdoQH0eSL8/+KLBcCXqQIYaHcBD967BX+e1QLVpDkF+
61fBmfaKQGpR90C1klvBYluDQLWbGkHhLXTBy4G3QDJQFUG6C3/BS/blQIog8ECxe23BexTPQKS8
0EBmTFjBDtPAQAmxLUG465/BKBO1QEcqOkGQh6zBOqrgQP7RIUGNPLbBBJH9QK1fIkFd0anBijJU
QMOQ7kDfNIDBSBJ+QKOIBkFrNIvBlPvQQHEoq0BIJHzB4HicQPWLr0B+qHDBMEOCQN9FGkFkRKLB
WOh7QOFZIkEcBLDB0i/iQJN/+UD2PrHB9doCQb3Dlz61BYfBNIzVQHDJOz+YAIDB1CDUQL28Ar9n
XIrBVW2EQPXoH0A9javBwbpWQIAHwT/eVKHBtYmpQDITekApg4jBUe7AQGBGmkBcapPBfoC/QKOg
REBGop/BqS1XQMCbVEA0MZPBK4aYQK4Ynj+ISY/BKo9nQI25rkCXVIfBdAR/QIGfxUCMs5LBA9lQ
QMnug0BuwqTBCeQLQQIZ60BEEpLBykIHQSKlAkE/2prBQIn2QLyG20D5movBGj3CQL3P/UAzNpfB
am7LQOdKSz/KnazBUq6TQFU8ML8cvKXBSOPVQMyBz79+4KzBJuTjQG+0B0H4Zp3B6j/LQPoB5kBt
143BAtCiQM5GHD/i4qfBmhjlQHqapL5pAq/BShatQN3K5r8AS6jBziHbQB/hxT8aUJDB5JWpQDiP
A0HZ12PBRl+bQFlMDkHI0HjBPm3IQMfH4UAiHmjBpo2dQNuTGEHFdrLBsNOxQD4UIUG2R6jBzryG
QLKu+0B66YPB0pG0QNAuwUD313fBwtGxQJuNAkFdq7PB6IPcQMCDFEF+i6fBiN6lQJJ31kD7o4bB
MPzlQJ7/+z5z6IfB196IQE3U5j8lZaTBfrWiQAvpkEDRx4/B7DSiQMm1JkBG/pvBHrOGQCXubUCt
TpfBTI+wQNNb2z+9RZPBksCLQLK5t0DVqozBhin4QJtOCEBp+5TB1F3dQJi6BUEJcrDBmqZuQLm8
kUBvu5/B6jkGQQQSFL5bRbPBDHOeQD4RQ8CsOabBuUccQSPb4kCsRJDBsiEUQd7lCEE6sp/BAvn9
QAZTx0Cj2ITBSHGhQPBLAUESqZnBy8PWQEQc5T+aZK7BqjNpQMDoU7/kH6LBuoLpQOmgHsClwa7B
ucu5QJJ9D0H4wVnBpC2NQHHl+kDJb1vBwgCEQHvyGkF9LXXBLG63QANgFUFBX4DBmzvmQNdp7kBS
B2/BLI3PQA+N0UBo6VjB1zJ1QM5YF0GZoLHBykmlQBTbIkE6V7nB2bm3QMtjMkER36jBZ2idQLHO
HUEbTaHBvUZUQDFi7kA9AYDBx7t6QFfnBUEVYIvBSI7MQMd5qEAZfnvBJKOYQDA/skCuKnDBGOOh
QPem7UBfdK7BjiKwQNQl+kB+BbzBfOP2QNUKIEGfaKjBSXkEQUhdzT59MYfBQ3DYQJTJSj/6JYDB
zWHYQJDt876TUorBUDiCQIFlHEDAWqvB5wBVQLQLuz/v4qDB+BGqQJSte0DdnYjBXqnAQCqgmUB5
25PBwkO+QM11Q0BX6J/BK99XQPzFUUC5zZLB1k6aQJeXmT+xQI/BQ6BlQJBFr0A1H4jBjTKBQJ4h
xkA7TpPBUqpLQElpgUCMa6TBg0AIQZzN7kB2EJXBGt4AQVkABkFyyZzBD5TzQEBX3EDlw43BY864
QAxvAEHpopbBQVLMQLpvPj/OcqzBUriRQKqSJ7/A7qXBKavTQFFg17+EWqzBd4nVQE/UCkGNZp3B
b03HQOh+5kAkS47BkNGiQMbGHj/8GKjBL9jkQGxg0L5he67BSAiqQBEI57/eH6jByrXYQLBSuD+F
XZDBnViwQKI8BEHtlmTBPYycQG/nDUEn63jBAjPPQH1s40CC12nBp7vPQG7MCkFyp7XBU2GrQC5X
EEFOLq7BBO2FQEqG+EBy1ILBxKO5QLscwUBGEHjBihDvQFaGHUHPGLTBQgHDQGZSG0H3BKXBRdyl
QAb41ED+WIbBqkvgQGTR6D6xPYfBhxuKQGUW7T9a8KTB3ayjQAZJkEAxzY/BySejQJajJ0DoSZzB
1k6IQLyYcEAI1ZfBqteuQNPi2j9PcZPBiZWLQK8ytUDG8YvBsx73QODmAkCdPpTBYgvkQDndJ0Fe
DKrBCyJ4QH58lEBoSqDBH4AGQSStkr5xYrLBOoaZQF6zQcBMDKbBfQQZQQKK5kBqu5TBRgEMQbV/
DUHoOaLBXhT/QK1ixkB4vofBs9eWQDeOAkHm1JfB4DbZQKlV3D9cNq7BBfhjQPx8P78kmKLBWmvm
QKNNJMC79q3BVRzCQDHNEEHAC1zBHoOWQFdO/ECCTFrBLDyFQBNPGkEJcnTBTuy1QEUQFUGkZYHB
9TDrQCdc8EBIVHLBlKDZQPRk1EAbzlrBdKPeQJcC90BeZrPBX5jEQNXrCUGM/b3BBF+UQP08G0GL
ArLB5JiaQPvjAUHuaqvBIcVZQAgg6kALmnvB/3VuQEdcA0Hb/onBIMTRQK45qUDbtXzB0xmgQAFt
sUB91W7BTQ8IQYaCF0F5xbPBzvDrQAD2KEF/vbrBAqGsQD+6JUHOpqDBPk4BQej82T5sS4XBuRzO
QFGIRj8UKIDBMZ/VQGE3DL8ZsYnBf6+FQDPPH0B8+6vBulBVQKxzxz86w6HBDY+rQHJDdkCyDInB
XGDBQD8gm0Baq5PBF13AQP43QkDP55/BZuVXQDlUVkCXyJPB3DCXQMN1oT9VbI/BIf1pQDfMqkDx
6IbBJ4V7QPxtw0CdOJLBxt1VQPZmhUBST6XB

>  <OMEGA_E>  (144) 
RL2bPlAlpj6knJg+

>  <OMEGA_NBR>  (144) 
    297633

$$$$
50214110
     RDKit          3D

 76 78  0  0  1  0  0  0  0  0999 V2000
    8.6015    7.4947  -18.5245 C   0  0  0  0  0  0  0  0  0  0  0  0
    7.6592    6.9731  -17.6221 C   0  0  0  0  0  0  0  0  0  0  0  0
    8.1799    8.2492  -19.6308 C   0  0  0  0  0  0  0  0  0  0  0  0
    5.8673    7.9337  -18.9489 C   0  0  0  0  0  0  0  0  0  0  0  0
    6.3508    0.6939  -21.5273 C   0  0  0  0  0  0  0  0  0  0  0  0
    4.5922   -0.7609  -20.6535 C   0  0  0  0  0  0  0  0  0  0  0  0
    6.6483   -1.7254  -21.5440 C   0  0  0  0  0  0  0  0  0  0  0  0
    6.2757    7.2270  -17.8026 C   0  0  0  0  0  0  0  0  0  0  0  0
    6.8018    8.4858  -19.8496 C   0  0  0  0  0  0  0  0  0  0  0  0
    5.0805    0.5309  -20.9317 C   0  0  0  0  0  0  0  0  0  0  0  0
    7.1389   -0.4335  -21.8198 C   0  0  0  0  0  0  0  0  0  0  0  0
    5.3708   -1.8878  -20.9705 C   0  0  0  0  0  0  0  0  0  0  0  0
    6.8339    1.4402  -18.0570 C   0  0  0  0  0  0  0  0  0  0  0  0
    5.4130    8.2459  -14.2913 C   0  0  0  0  0  0  0  0  0  0  0  0
    4.8772    8.8858  -15.5825 C   0  0  0  0  0  0  0  0  0  0  0  0
    6.3844    7.0913  -14.5925 C   0  0  0  0  0  0  0  0  0  0  0  0
    4.1952    7.8205  -16.4481 C   0  0  0  0  0  0  0  0  0  0  0  0
    5.7470    6.0459  -15.5375 C   0  0  0  0  0  0  0  0  0  0  0  0
    5.1864    6.6907  -16.8442 C   0  0  0  0  0  0  0  0  0  0  0  0
    7.1402    0.4634  -16.9258 C   0  0  0  0  0  0  0  0  0  0  0  0
    5.4280    8.2184  -23.4387 C   0  0  0  0  0  0  0  0  0  0  0  0
    4.9664    9.8790  -20.9503 C   0  0  0  0  0  0  0  0  0  0  0  0
    7.3278   10.0945  -21.7709 C   0  0  0  0  0  0  0  0  0  0  0  0
    4.2776    1.7393  -20.5175 C   0  0  0  0  0  0  0  0  0  0  0  0
    6.0943    7.8706  -22.1039 C   0  0  0  0  0  0  0  0  0  0  0  0
    5.1156    4.5300  -18.0181 C   0  0  0  0  0  0  0  0  0  0  0  0
    5.0760    2.5637  -19.4896 C   0  0  1  0  0  0  0  0  0  0  0  0
    4.2298    3.7029  -18.9350 C   0  0  2  0  0  0  0  0  0  0  0  0
    6.3003    9.0952  -21.1639 C   0  0  0  0  0  0  0  0  0  0  0  0
    5.5050    1.6972  -18.3736 N   0  0  0  0  0  0  0  0  0  0  0  0
    4.3683    5.7027  -17.5653 N   0  0  0  0  0  0  0  0  0  0  0  0
    7.7522    2.0451  -18.6003 O   0  0  0  0  0  0  0  0  0  0  0  0
    3.7561    4.5190  -20.0065 O   0  0  0  0  0  0  0  0  0  0  0  0
    8.3685   -0.2753  -22.3591 F   0  0  0  0  0  0  0  0  0  0  0  0
    4.8930   -3.1262  -20.7173 F   0  0  0  0  0  0  0  0  0  0  0  0
    9.6545    7.3144  -18.3663 H   0  0  0  0  0  0  0  0  0  0  0  0
    7.9905    6.3752  -16.7859 H   0  0  0  0  0  0  0  0  0  0  0  0
    8.9102    8.6507  -20.3177 H   0  0  0  0  0  0  0  0  0  0  0  0
    4.8122    8.0563  -19.1438 H   0  0  0  0  0  0  0  0  0  0  0  0
    6.7166    1.6835  -21.7579 H   0  0  0  0  0  0  0  0  0  0  0  0
    3.6212   -0.8854  -20.1974 H   0  0  0  0  0  0  0  0  0  0  0  0
    7.2515   -2.5917  -21.7721 H   0  0  0  0  0  0  0  0  0  0  0  0
    5.9406    9.0127  -13.7052 H   0  0  0  0  0  0  0  0  0  0  0  0
    4.5658    7.8566  -13.7076 H   0  0  0  0  0  0  0  0  0  0  0  0
    4.1485    9.6690  -15.3264 H   0  0  0  0  0  0  0  0  0  0  0  0
    5.7125    9.3311  -16.1428 H   0  0  0  0  0  0  0  0  0  0  0  0
    7.2880    7.4996  -15.0687 H   0  0  0  0  0  0  0  0  0  0  0  0
    6.6583    6.5991  -13.6477 H   0  0  0  0  0  0  0  0  0  0  0  0
    3.3597    7.3815  -15.8830 H   0  0  0  0  0  0  0  0  0  0  0  0
    3.8100    8.2953  -17.3625 H   0  0  0  0  0  0  0  0  0  0  0  0
    6.5111    5.3028  -15.8095 H   0  0  0  0  0  0  0  0  0  0  0  0
    4.9223    5.5467  -15.0077 H   0  0  0  0  0  0  0  0  0  0  0  0
    8.2250    0.4395  -16.7451 H   0  0  0  0  0  0  0  0  0  0  0  0
    6.6232    0.7884  -16.0109 H   0  0  0  0  0  0  0  0  0  0  0  0
    6.7929   -0.5421  -17.2057 H   0  0  0  0  0  0  0  0  0  0  0  0
    5.3180    7.3059  -24.0430 H   0  0  0  0  0  0  0  0  0  0  0  0
    4.4361    8.6551  -23.2504 H   0  0  0  0  0  0  0  0  0  0  0  0
    6.0513    8.9444  -23.9813 H   0  0  0  0  0  0  0  0  0  0  0  0
    4.6325   10.3035  -21.9085 H   0  0  0  0  0  0  0  0  0  0  0  0
    4.1966    9.1943  -20.5646 H   0  0  0  0  0  0  0  0  0  0  0  0
    5.1303   10.6912  -20.2268 H   0  0  0  0  0  0  0  0  0  0  0  0
    6.9289   10.5065  -22.7095 H   0  0  0  0  0  0  0  0  0  0  0  0
    7.5077   10.9131  -21.0585 H   0  0  0  0  0  0  0  0  0  0  0  0
    8.2734    9.5702  -21.9734 H   0  0  0  0  0  0  0  0  0  0  0  0
    4.0684    2.3600  -21.4012 H   0  0  0  0  0  0  0  0  0  0  0  0
    3.3293    1.4116  -20.0667 H   0  0  0  0  0  0  0  0  0  0  0  0
    5.4629    7.1360  -21.5826 H   0  0  0  0  0  0  0  0  0  0  0  0
    7.0781    7.4253  -22.3135 H   0  0  0  0  0  0  0  0  0  0  0  0
    5.4142    3.9248  -17.1494 H   0  0  0  0  0  0  0  0  0  0  0  0
    6.0132    4.8534  -18.5656 H   0  0  0  0  0  0  0  0  0  0  0  0
    5.9607    2.9867  -19.9878 H   0  0  0  0  0  0  0  0  0  0  0  0
    3.3898    3.2883  -18.3584 H   0  0  0  0  0  0  0  0  0  0  0  0
    4.7969    1.2697  -17.8116 H   0  0  0  0  0  0  0  0  0  0  0  0
    3.6378    5.3942  -16.9560 H   0  0  0  0  0  0  0  0  0  0  0  0
    3.9684    6.1493  -18.3657 H   0  0  0  0  0  0  0  0  0  0  0  0
    3.2026    4.0009  -20.5789 H   0  0  0  0  0  0  0  0  0  0  0  0
  1  2  2  0
  1  3  1  0
  2  8  1  0
  3  9  2  0
  4  8  2  0
  4  9  1  0
  5 10  2  0
  5 11  1  0
  6 10  1  0
  6 12  2  0
  7 11  2  0
  7 12  1  0
  8 19  1  0
  9 29  1  0
 10 24  1  0
 11 34  1  0
 12 35  1  0
 13 20  1  0
 13 30  1  0
 13 32  2  0
 14 15  1  0
 14 16  1  0
 15 17  1  0
 16 18  1  0
 17 19  1  0
 18 19  1  0
 19 31  1  0
 21 25  1  0
 22 29  1  0
 23 29  1  0
 24 27  1  0
 25 29  1  0
 26 28  1  0
 26 31  1  0
 27 28  1  0
 27 30  1  0
 28 33  1  0
  1 36  1  0
  2 37  1  0
  3 38  1  0
  4 39  1  0
  5 40  1  0
  6 41  1  0
  7 42  1  0
 14 43  1  0
 14 44  1  0
 15 45  1  0
 15 46  1  0
 16 47  1  0
 16 48  1  0
 17 49  1  0
 17 50  1  0
 18 51  1  0
 18 52  1  0
 20 53  1  0
 20 54  1  0
 20 55  1  0
 21 56  1  0
 21 57  1  0
 21 58  1  0
 22 59  1  0
 22 60  1  0
 22 61  1  0
 23 62  1  0
 23 63  1  0
 23 64  1  0
 24 65  1  0
 24 66  1  0
 25 67  1  0
 25 68  1  0
 26 69  1  0
 26 70  1  0
 27 71  1  6
 28 72  1  1
 30 73  1  0
 31 74  1  0
 31 75  1  0
 33 76  1  0
M  CHG  1  31   1
M  END
>  <OMEGA_C>  (145) 
mJ8JQTfU70AXMpTB8Bf1QIEj30D5+YzB6OACQZj8A0HiC53BMMG7QIHg/UBTl5fBfTnLQE2iMT/q
N6zBlvOSQH/HQr9oOqXBub7UQCrZ3L8OWqzB3dLIQGtD50Cna47BNqjZQMPFB0EOzJ7BG5OiQBjq
Bz8ddKfByHHkQHbx3b72jq7B8d2rQHyj8b+Zw6fB6a7aQPJWuD+/dJDBMTetQDPvA0FUqWTB1xGc
QBosDkEGUnnB8EzMQDzs4kDvemnBvj6GQEFB+kCvlYPBEee3QNN3wUCwmXjBXvelQE8a1kD1wIbB
cHzkQJRF7T4MaIfB87GtQJh+A0F3grvBiOyeQE0QHkEsmqfBfH3qQDWDIUHBKq7Bb+KIQIih3j/q
I6TBQwTDQL7b+0DS1LDBHLOjQH/1kEAaJZDBam6iQDQTJECp6pvBeFqHQJT8bEDmepfBzpvJQOeF
EUGfT6nBvCiwQFw/2T8P/ZLB0siLQDZ8tkC9hYzB0RH4QGjjAkBgzZTBcmRwQJubkEBSDaDBeuUF
QXrwjL5a37LBOJOcQBUTSMAQvaXB1XgaQT0P6kA67pLBUrL/QKgBzECJSYbBR5AOQS9pCkGmiqLB
Rv2ZQI7mAEF9JpnB/+3WQDt+1z80EK7BKsJnQDqnYr9JlKHB4QvoQKveJcBHLa7BpRm+QBY0EEFs
SFvBKRuSQHtp+0BHUlvBx8CEQEO0GkHgOHXBmMy2QENMFUGEJIHBpjfpQHX870BvGXHB7xDVQI8r
00APXVrBWgVXQBg17EDXIH7BVtZzQJO5BEFl5orBj1rQQJawqUDq83zBU4OdQIF+sUB8H3DBfZkD
QfkA4T7d9YXBjvHTQB3WST87FoDBs1/ZQMbHCr8vpYnB/SyqQKzJ6UASWMDBYfSNQE57CkHgALrB
5aPBQGYcD0Gw2b/BFT2UQDTbJEGyRK/B6EqGQM8bE0FkhKTBnCukQDUPK0GG0KHBQbndQNEaKEEh
rbXBfD/wQEKcLkHKd6jBw18EQZgfGUF2ya/B8S+CQJEKF0C3NavBMRNVQOKvtD+UiKDBBdCuQDJa
5EAmqazBiX/iQGGc7UD2gbLBTUGtQHcwe0D/MYnB7GvAQPtOm0BvhpTBc76+QLomP0D25p/BCPJY
QCd0UkD73ZLB93+ZQEyEoj86fo7BRNFoQKydrEDepYfBJ/p9QOrGxEDz7JLByPZMQI4HgECioaTB
rDAKQTVy7kAPdpPBZ/H1QGVR3kCpQIzBVJwDQeb7AkH1dZzBYxe9QOUe+0DWZZfBBdTMQDv8ST/l
eqzBaIKRQLgmHL/6ZKbBLKPTQIjL0b/KsazB/MjJQGb/5UDR+Y3BSBrbQJ17BkGigp7BDQqjQBhr
Kj/DTKjB6z3lQDynub5cka7BPq2pQNBr4b+cqqjBe7DXQLIruj/sTJDBw3usQHocBEHw2mPB+Qed
QBZ1DkHKxnjBD0vLQDrQ4kAhOWjBM0CHQIcr+0DcaIPB3Eu3QOx7wUASj3fBaGimQCQp1kA3VIbB
a8feQHQ76j49PIfBJmAGQUc4HEG3pbTBnWnBQDJxAUEEW7HB43WgQGeZHkHpPqbBHlSKQIDe8j9U
GqXBTcHrQEzvI0GAVqzBqQGjQLnBkEBnjI/B2R+jQNbLKUC+VZzBJJSIQFK8c0CiAJjBvwrLQPBi
EkH2lqjBwQKuQLAq3j9ae5PBm+eLQIYUt0CTJ4zBN2H2QN6XA0CCE5TBYsF9QHvDlkBQhaDBOtYG
QXxqd76BSrLBEK2YQCvwPsCF4KbB3AIbQSHC6EAMFpLB3BgAQQEIzEA6YoXBpnMPQZZrCUFD3qHB
oWibQJy1/UCEOJnBaAbaQCwx4j94Eq7BcBljQNEZNL9bMaPB503mQDKMIcCIWK7BaCG9QDo/EEF5
M1rBNZqQQNgs/ECW9VrBaBOGQG5GG0FDEnXBJ5W4QA46FUG2sYDB5sToQGJy70Czem/B7A3TQA0N
00Dr+FjBJ29XQB3a7UCOG37BCyd4QII9BUEl04rB/cHPQMCFqUAIo3vBfW+cQKa3sUDrW2/B+4MA
QfUg1j46O4XBf3nMQIhURj/+KIDB4O7TQOslCr+qxonBYRURQZeFKUEjx7bB2tQPQaYHD0EUPrHB
aPr7QAqYFkHD2rvBIei1QIKCCUHeoLjBtsveQGz18EDKMrPBrbeoQFGp7EB7cq7Bm8eVQCDnJkHl
h63BZMSHQLAgE0G3taPBKNalQHheKkGt15/B2TqGQC89I0DbG6zB6ndVQLgozT9lBaLBeUD9QByt
KUEgQ6XBLZHZQIE9MUHO36/Bmu+nQOj1dkCqpYjBLjXCQPzgmUCL7JLBSLnAQAyNQ0A82J/BRi5W
QPWxWkAwW5TBUQmWQE5OpT8xjY/BgKpnQJkWrkAJY4fB5BaAQE50xUDEqZLBrblcQPBliEB4y6XB
C+MIQeB78kDPcZPBP0v0QOTU4UBlCYzBCbEBQZ12A0EuypzBxgy6QPWq9kBjv5fBeSjMQDtsaT8T
Fq3BrwGVQLvyG7+WcabBKofXQJrGv79fw63Beb3HQOU85UDj9o3BRvrWQAn1BEGq9Z7BaJ6jQOJ/
Mz9/YqjBZDjmQOozQL6srq/BC9iuQKaP2r+JMKnBYJLbQDjuzD/emJDBDPSoQLGvA0FoFGPB+X+Z
QP0KDkEr/HfBW57JQAW840AtkmfBf0iFQP4w+kApPoPBjzu3QDu1wUBvAnfBlCKlQEOO1UBxBobB
3d3mQDMVBD9YgIjBjJKMQLjNLkER4azBMvbmQJBuIEFTq63BBau4QBZUAEHNc7HB/z+JQDI58D/k
r6TBfHqcQKvDHUHFB6XBZOihQKz8j0DYJo/B8FGiQBpUKkDJI5zBcX+GQDXTb0AKM5fBHSPFQA3o
EEEgyqjBowKxQEq53z+HnZPBYWCKQOWBtUBSdIvBzFX4QCjsDUBaGZXBX1pwQIdslEDlY5/BoboG
QeBgdDyA8LPBY7igQAWnPcDiU6fBOdcZQfGL70Cb8ZHBJ6f/QP1h0kA+2YTBqxwNQUoyCkHUVKLB
9IGYQANM9UDuzJnBeiHXQJpG9T+Yr67BPv9rQMsLRb/k2aLBMHXrQIL1FcBlzK/BCQe4QDz+D0FY
AVnBlVGNQAWm+UDim1rBapuBQFhtGkF9SXTB4+C0QNRhFUF4IYDBxWPmQLv08UCwzG7BpTjSQGQr
1EDpYVjBfsxSQChe7EBXQ37BiKx1QMTMBEEktorBrt3QQHkTq0CfL3vB1kSdQMh/sEDvz27BuO4E
QcRM3z6Hz4fBiDPZQOeURj+OqYDBpqvZQE7J5L6vMIvB7n1gQOrQNkHGhqnBCwCmQNKqOkGTPK7B
awyEQAIsJ0FihLTBzB/ZQGykKEFdpLTBG1nwQHVWLEHGoKfBI6UBQSlFF0HaLbDBaeSrQGKxCEFs
gbjBlBzVQCUZ7kDaw7PB7CSgQIrr6kBgPa7BcmuCQBE0IkD5h6vBj/VVQHL/wT+WP6HBtVCkQAjB
JUElcJ3BFV2CQDdCEkH0t6PBVSqpQEAYdkCXUIjBlfC/QOkjmkDr+ZLBAjG+QLOASEAQ+J/BLltW
QEI5UkBnEJPBdASbQL3WmT9JyI/BcH5nQJ/Iq0DZWIbBdD15QJRjw0ADypHBHCtOQBEphUBbYqTB
PJIIQXFL5UDSe5XBbuPyQHVf2ECx2Y3BWpcCQS9UAEFR2Z3B+Ru8QAabAEEMKpfBFBDJQF+3MD+e
wqzBKT+UQOzbRb/PV6TB0xnUQDyO3L9xmKzB2dHHQNtl5kB5jY7BXMDaQLEmCEHpkZ7B/ieiQCje
BD9vMqfBqB3iQAkt3L5vZq/BNAmtQFZg8r9xH6fBOhDcQGtWxT9fFpDBlkmuQGZQBEGGx2TBcaWb
QPJnDkFvN3nBnerMQPmB40DVD2rB0EaFQFR4+kDlX4PBleK2QG30wUDBdXjBF9WkQLFX1kBWuIbB
/hvnQFLSAj+gg4fBH3QGQdKgMUE2JpzBaATnQFt2GUHw37DBSZifQHwXHUFeVajBjISIQHF83D8W
zaPB0q/dQEGOMEHF95/BDOyiQNHskEAx9o/BO5miQGorJEAU0pvBXzuHQMXobEDlaJfBFVjQQG5p
G0ET26XByFixQIp72z/24pLBYL2KQDSHtkC0aYzB3/X4QEg3BkC5BZXBZetwQBewkEClAKDBT8UD
QcEKh77ap7TBqlOfQKyFSMDbg6TBFuIYQcQe2kDB6ZTBgXn8QAWQw0DMYYfBQkEOQTPxBEG1yqPB
zgCbQMYwBUH9G5jBZJXTQIIf1z/O/K7B4i9tQH3uZr8EB6DBxE3nQCFeJcD8o67Bhey/QH+iEEHx
0lvByd+TQHtj/ECj4lrBDViEQJXUGkHByHTBc621QHmlFUH9S4HBRiDpQA1I8EAGbnLBpAvXQO0R
1EDYE1vBxyBWQDdg7EDjWX3BZk9wQITBBEF3n4rBe1nOQI8oqUDhv3zBD1WcQF1Ns0CRhm/B5wkF
QZAd0D5O84bB9lDaQAawVz9zg3/BluLYQE346r6xp4nBi1kJQXUKQUGiJ5jBIZEJQSl+JEG5gJbB
2y0RQREbMEGzFaPBAezeQLpoJ0Gm2LXBru4EQevUGEFQrK/BZ1PcQLHCCkE66LTBqreZQKL9KkE5
h63B0OSUQLJwDkHmaKzBTL+NQJQGH0F3z6DB3d6AQMRHFUDP3qrBYVhVQCvtsT/H95/BsQDJQBFg
MkHh55jBJTrYQPn8PUHcfKXBQAWsQHIWe0AN+ojBwe2/QINRm0BhN5TBF2a+QGF6P0CGAKDBvD9Y
QK0HUkCa6ZLBnDebQK7UnT+FlI7B1dBmQGa5rEBfhIfBQsN7QBiQxED/15LBjThOQK8fgEDoq6TB

>  <OMEGA_E>  (145) 
mNgfPhDxIz540Ds+QGNhPg==

>  <OMEGA_NBR>  (145) 
    302672

$$$$
50214111
     RDKit          3D

 77 80  0  0  1  0  0  0  0  0999 V2000
    8.7394    7.4596  -18.1882 C   0  0  0  0  0  0  0  0  0  0  0  0
    8.4409    7.9441  -19.4672 C   0  0  0  0  0  0  0  0  0  0  0  0
    7.7083    7.0428  -17.3349 C   0  0  0  0  0  0  0  0  0  0  0  0
    6.0655    7.6493  -19.0259 C   0  0  0  0  0  0  0  0  0  0  0  0
    6.3833    0.8159  -21.5590 C   0  0  0  0  0  0  0  0  0  0  0  0
    4.6487   -0.6836  -20.7143 C   0  0  0  0  0  0  0  0  0  0  0  0
    6.7152   -1.5979  -21.6336 C   0  0  0  0  0  0  0  0  0  0  0  0
    7.1064    8.0144  -19.9151 C   0  0  0  0  0  0  0  0  0  0  0  0
    6.3521    7.1737  -17.7235 C   0  0  0  0  0  0  0  0  0  0  0  0
    5.1182    0.6214  -20.9627 C   0  0  0  0  0  0  0  0  0  0  0  0
    7.1858   -0.2927  -21.8817 C   0  0  0  0  0  0  0  0  0  0  0  0
    5.4432   -1.7919  -21.0572 C   0  0  0  0  0  0  0  0  0  0  0  0
    6.8577    1.5244  -18.0525 C   0  0  0  0  0  0  0  0  0  0  0  0
    5.1013   10.5365  -20.8598 C   0  0  0  0  0  0  0  0  0  0  0  0
    5.1957    8.2457  -14.2167 C   0  0  0  0  0  0  0  0  0  0  0  0
    6.2799   10.8894  -21.7755 C   0  0  0  0  0  0  0  0  0  0  0  0
    4.4088    9.2575  -21.3703 C   0  0  0  0  0  0  0  0  0  0  0  0
    4.8782    8.9335  -15.5541 C   0  0  0  0  0  0  0  0  0  0  0  0
    6.1555    7.0656  -14.4151 C   0  0  0  0  0  0  0  0  0  0  0  0
    7.3935    9.8276  -21.6850 C   0  0  0  0  0  0  0  0  0  0  0  0
    5.4121    8.1893  -21.8899 C   0  0  0  0  0  0  0  0  0  0  0  0
    4.2401    7.9321  -16.5239 C   0  0  0  0  0  0  0  0  0  0  0  0
    5.6159    6.0624  -15.4630 C   0  0  0  0  0  0  0  0  0  0  0  0
    6.8715    8.3852  -21.3866 C   0  0  0  0  0  0  0  0  0  0  0  0
    5.1805    6.7334  -16.8105 C   0  0  0  0  0  0  0  0  0  0  0  0
    7.1732    0.4386  -17.0282 C   0  0  0  0  0  0  0  0  0  0  0  0
    4.2981    1.8093  -20.5232 C   0  0  0  0  0  0  0  0  0  0  0  0
    5.0764    4.5568  -17.9570 C   0  0  0  0  0  0  0  0  0  0  0  0
    5.0836    2.6317  -19.4829 C   0  0  1  0  0  0  0  0  0  0  0  0
    4.2147    3.7475  -18.9127 C   0  0  2  0  0  0  0  0  0  0  0  0
    5.5264    1.7568  -18.3794 N   0  0  0  0  0  0  0  0  0  0  0  0
    4.3522    5.7638  -17.5506 N   0  0  0  0  0  0  0  0  0  0  0  0
    7.7741    2.0568  -18.6701 O   0  0  0  0  0  0  0  0  0  0  0  0
    3.7502    4.5825  -19.9740 O   0  0  0  0  0  0  0  0  0  0  0  0
    8.4108   -0.1030  -22.4212 F   0  0  0  0  0  0  0  0  0  0  0  0
    4.9874   -3.0423  -20.8223 F   0  0  0  0  0  0  0  0  0  0  0  0
    9.7663    7.4068  -17.8581 H   0  0  0  0  0  0  0  0  0  0  0  0
    9.2409    8.2670  -20.1170 H   0  0  0  0  0  0  0  0  0  0  0  0
    7.9500    6.6178  -16.3720 H   0  0  0  0  0  0  0  0  0  0  0  0
    5.0377    7.7351  -19.3465 H   0  0  0  0  0  0  0  0  0  0  0  0
    6.7344    1.8158  -21.7671 H   0  0  0  0  0  0  0  0  0  0  0  0
    3.6797   -0.8324  -20.2611 H   0  0  0  0  0  0  0  0  0  0  0  0
    7.3293   -2.4499  -21.8853 H   0  0  0  0  0  0  0  0  0  0  0  0
    5.4706   10.3687  -19.8374 H   0  0  0  0  0  0  0  0  0  0  0  0
    4.3794   11.3665  -20.8574 H   0  0  0  0  0  0  0  0  0  0  0  0
    5.6607    8.9765  -13.5386 H   0  0  0  0  0  0  0  0  0  0  0  0
    4.2599    7.8764  -13.7718 H   0  0  0  0  0  0  0  0  0  0  0  0
    5.9225   10.9470  -22.8142 H   0  0  0  0  0  0  0  0  0  0  0  0
    6.6890   11.8649  -21.4738 H   0  0  0  0  0  0  0  0  0  0  0  0
    3.8277    8.8204  -20.5449 H   0  0  0  0  0  0  0  0  0  0  0  0
    3.7305    9.5303  -22.1921 H   0  0  0  0  0  0  0  0  0  0  0  0
    4.1800    9.7652  -15.3785 H   0  0  0  0  0  0  0  0  0  0  0  0
    5.8089    9.3224  -15.9930 H   0  0  0  0  0  0  0  0  0  0  0  0
    7.1280    7.4499  -14.7565 H   0  0  0  0  0  0  0  0  0  0  0  0
    6.2838    6.5444  -13.4549 H   0  0  0  0  0  0  0  0  0  0  0  0
    7.9328    9.8092  -22.6436 H   0  0  0  0  0  0  0  0  0  0  0  0
    8.0850   10.1189  -20.8807 H   0  0  0  0  0  0  0  0  0  0  0  0
    5.0635    7.1996  -21.5599 H   0  0  0  0  0  0  0  0  0  0  0  0
    5.4184    8.2281  -22.9892 H   0  0  0  0  0  0  0  0  0  0  0  0
    3.3056    7.5548  -16.0831 H   0  0  0  0  0  0  0  0  0  0  0  0
    4.0178    8.4453  -17.4711 H   0  0  0  0  0  0  0  0  0  0  0  0
    6.4056    5.3281  -15.6799 H   0  0  0  0  0  0  0  0  0  0  0  0
    4.7439    5.5471  -15.0339 H   0  0  0  0  0  0  0  0  0  0  0  0
    7.4963    7.7041  -21.9830 H   0  0  0  0  0  0  0  0  0  0  0  0
    8.2604    0.2768  -16.9877 H   0  0  0  0  0  0  0  0  0  0  0  0
    6.8122    0.7530  -16.0378 H   0  0  0  0  0  0  0  0  0  0  0  0
    6.6740   -0.4970  -17.3204 H   0  0  0  0  0  0  0  0  0  0  0  0
    4.0751    2.4416  -21.3953 H   0  0  0  0  0  0  0  0  0  0  0  0
    3.3570    1.4575  -20.0752 H   0  0  0  0  0  0  0  0  0  0  0  0
    5.3072    3.9509  -17.0684 H   0  0  0  0  0  0  0  0  0  0  0  0
    6.0125    4.8423  -18.4593 H   0  0  0  0  0  0  0  0  0  0  0  0
    5.9606    3.0779  -19.9745 H   0  0  0  0  0  0  0  0  0  0  0  0
    3.3695    3.3083  -18.3625 H   0  0  0  0  0  0  0  0  0  0  0  0
    4.8239    1.3021  -17.8319 H   0  0  0  0  0  0  0  0  0  0  0  0
    3.5878    5.4912  -16.9663 H   0  0  0  0  0  0  0  0  0  0  0  0
    4.0003    6.2121  -18.3723 H   0  0  0  0  0  0  0  0  0  0  0  0
    3.2126    4.0714  -20.5676 H   0  0  0  0  0  0  0  0  0  0  0  0
  1  2  2  0
  1  3  1  0
  2  8  1  0
  3  9  2  0
  4  8  2  0
  4  9  1  0
  5 10  2  0
  5 11  1  0
  6 10  1  0
  6 12  2  0
  7 11  2  0
  7 12  1  0
  8 24  1  0
  9 25  1  0
 10 27  1  0
 11 35  1  0
 12 36  1  0
 13 26  1  0
 13 31  1  0
 13 33  2  0
 14 16  1  0
 14 17  1  0
 15 18  1  0
 15 19  1  0
 16 20  1  0
 17 21  1  0
 18 22  1  0
 19 23  1  0
 20 24  1  0
 21 24  1  0
 22 25  1  0
 23 25  1  0
 25 32  1  0
 27 29  1  0
 28 30  1  0
 28 32  1  0
 29 30  1  0
 29 31  1  0
 30 34  1  0
  1 37  1  0
  2 38  1  0
  3 39  1  0
  4 40  1  0
  5 41  1  0
  6 42  1  0
  7 43  1  0
 14 44  1  0
 14 45  1  0
 15 46  1  0
 15 47  1  0
 16 48  1  0
 16 49  1  0
 17 50  1  0
 17 51  1  0
 18 52  1  0
 18 53  1  0
 19 54  1  0
 19 55  1  0
 20 56  1  0
 20 57  1  0
 21 58  1  0
 21 59  1  0
 22 60  1  0
 22 61  1  0
 23 62  1  0
 23 63  1  0
 24 64  1  0
 26 65  1  0
 26 66  1  0
 26 67  1  0
 27 68  1  0
 27 69  1  0
 28 70  1  0
 28 71  1  0
 29 72  1  6
 30 73  1  1
 31 74  1  0
 32 75  1  0
 32 76  1  0
 34 77  1  0
M  CHG  1  32   1
M  END
>  <OMEGA_C>  (146) 
b9QLQQi17kBkgZHBCg4HQbI1/kDpvJvBDar2QNNe4UDxrYrBfRjCQAbH9ED+NJjB2EPMQO3fUD/C
eKzBI8KUQDj+Lr/rtqXB3eLWQNWHzL+sEa3B3mfjQMg6AEEXUp/BN0TLQDCP5UCxyY3BMcijQEwR
Hz+Rs6fBBvLlQDfelb6qDa/BFi+uQM5c5b8ndajBNnLbQIggwz9ua5DBrz2jQIOVKEH54KbBkUOm
QDjuA0F8d2PB2/TIQPI6LkEoNK7BBBWNQLEeFEFP9qrBUhqcQIvvDkF03XjB/vnEQEgZ4kBApGbB
P5fsQPc9HUH5eq3B8y+tQHwHA0FzHq/BOK+HQOzT/UDoMITBNrWzQFH/wUCbaHfBV+PbQK8pBkGo
F6vBo8alQOd310DVe4bBi4rlQH6U4D7OOYjBpomJQJmY5z+BL6TBOnKiQJLRkUDwp4/BtqyiQMRt
KEDt3JvB9N6GQGTWb0AeTZfBe9iwQGPe4D/vCJPBU0WLQDZxuECvZ4zBDcX4QOGiA0B0XJXBqQJw
QNyjkkDYyp/Bz5IGQeD40r2iXrPBIJmfQG+1QsAglKbB3UIcQd0E7UBV3Y7Bq9oTQZ1FBEGa76DB
MGb+QObE00DG+YLBLzWhQAaG90CKxZrB9X/XQAZt6D8AI67BAoFrQPEaVb/NFqLBo4nqQIHLHMAJ
Fa/B/Q6vQC3mJUHxsp7BOSSMQDvdNUHo26bBhyS1QJSfD0E5nljBZVGIQHoL/EBSWVzBdYW9QL0m
L0GBg7bBBwzWQMLWPUFvyqvBdvh0QDEgDUEGXKTBDsBuQDJ8GEFuibHB1sKFQDc+HEGADnbBG+K5
QIgoFUFQ43/BxxjkQGxl7kCUGmzByhTJQLJr0UBvR1fBwdn9QFHyHEEAJrXBMFwBQfXmIUG4C6fB
WwiiQN9i5kC1eqzBlGOtQHymA0HP6bfBOo9TQNLA8UAvqoDBiJGAQNcfB0HPxIvB9vrMQKd/qkDY
4HrBFs6XQD+CsUDDinDB1uHvQOmH9kAk3a/BwioEQcG4jT7j5ofB8f3ZQGnFQD9zTYDBBJHVQGx4
/r4mkIrBNGeCQApDHECPKavBo9lWQOOPuj8DmqDB8dSpQG3bfEAijIjBI2bAQIT0mkC4rJPBib2+
QJ78REC2y5/BxKVXQGm6U0Bb5pLBWV2aQJurpj+4p47BpZ5lQCm4r0AVu4fBwQKAQMzJxkCJ+pLB
4JpNQNVIgkBgiqTBaIoLQYWv60D/NZLBwQkGQZfJAEHqnpvBctL2QN6w3ECKSIvB5anAQPRK90DX
bpfBd4LKQMycST+GxqzBoM6TQIDzM781f6XBJPLVQJDZz7+eyqzB16/gQPy1A0EOLZ7B9/vKQC30
40AyrY3B6EWiQJhDGT8u3KfB7HTkQJEepb5mJa/BXoqtQBgR6L9XA6jBiybbQPj+xz/Pe5DBwOeQ
QJ5nGkGZlbfBtlypQO2jBUF3+2TBMZykQPJhK0HZIbDBbXixQJSmCEFWN7rBSgScQK5GD0E8mHrB
npbHQDra5EAj5mfBp92zQBz9IEHbxqXBCfnAQPS6+0B/9q/BoNCGQNMf/EC2N4TBoja0QN2xwkBS
A3fByAPUQH+8DkEKT6jBX6mlQMoA1kBYZIbBA0nmQMfc/D57O4jBHz6IQBV35T8KXKTBL2CiQEA+
kEDnio/BTe6hQP/yJkDxGZzBCciGQObabkDucJfBkYGwQJQH3T/UXJPByz6LQPyntkDYMozB0f33
QKG2CUAnL5XBVlxyQPISk0C14p/BILwFQWgTDb58lLPB0KefQEfYQ8B2taXBuSocQelS5kCYRpDB
5lwSQW7nBkEG2aDBLX7/QJuMy0DdGYTBSIifQNTW+UDDzpnBWFnVQHxb5D+Ptq7Bn/5pQA8MWb8Z
wqHBBMzpQJiEHsA9pq7BY+tpQGY3E0HYnrPB8buGQDUnIkG5EL/BftC5QLv9EUHwhFvBb4aMQJNQ
AEGoaFzBfPO/QJ76MkEwK7TBdVyMQKiUN0GKQ67B9SiiQGNG+UBkYr/BYv7MQLa0D0Haar7B7zyF
QAJqHEEu3nfB1364QKp6FUGub4HBbfzlQBg48ED5tm7B7pTNQOAu1kDtLljBIq3DQGQZLUH/wqDB
rjSYQO9YGkHpdqHBIdylQEGz60C6CKzBW6rZQOXv40BG87HBm25UQHQb8EAOD4DBPbt6QPI0BUG3
54vBEXzMQLvzqUC7FXrB7FWYQHketEDTHW/BSJLwQPXCFUF5EazBcqIEQX+fyz66oofBSijZQF03
SD9LZoDB+XLYQFYj8L6qtYrBFBOBQHYgG0AoV6vBCElUQNh6uT/yt6DBHCmpQLhLeED8hIjBSaXA
QNlxmUB2ZpPBauG9QBQaQ0BYIaDBjDBWQMFlU0BbOpPBVWGaQBrHmz91RI/BJVFmQDW7rUCDbYfB
N+V+QNPfxEAGu5LBpvpPQOZxg0ByyaTBu58JQTVY60CzYJPBLuICQd5AAEHdq5zBPMj0QO5D3EBp
BYzBdY+7QFrV9UAFgJfB0r7JQOgmNz/0Aa3BqPqSQJhyNL+H6KTBEtnSQAZf2r+Ew6zBVX/ZQM43
AkGt357B5nvIQK5640BW0o3BEyWiQO+BEz9Qs6fBLijiQLRn2b5Ce6/B3R+rQGA57L9jiqfBFzXb
QDKVzz/dM5DB+tLYQAOtNUF62rTBZaysQMqJBUGcpWTB5D/VQI1VH0E++rnBeOK6QDZuN0HZJKvB
dwedQBQOD0Ex7XnBKp/KQHei5EAWQWjBRv7iQK01DkFR/rHB2JjHQDvrJkErzKLBFm2GQCRn+0AW
iIPBReC1QOVKwkBo13bBqnvIQD0jEEE7n6fBmgGlQK5x1UBTGobB5GnlQKZyGD9Ri4fB8xaJQK7A
5j81f6TB+LKiQL6zkEB1v4/BMQCjQI8xKEDvXZzBo82HQLnwcECv4JfB3/SwQEcd4T9DfZPBZn6K
QFKatUBFwYvBoYP4QITiDEBvzJTBat12QAF4lEDiXKDBVxIEQe6/k74LibTBXAucQAbNRMDCGaXB
QnoaQXGk5kAm4JHBMoYOQV7hBkE2IaLBQxT/QH4hy0Ak+YTBPtuZQFu0+EBxRZnBNkzVQO0x2T8G
K6/Bq7ppQMdyT78OwaDBjJDlQC85JcAyr67BDQT6QARaOEEuP7LBqujPQA7gQUG9yrrByhC+QPTy
EUFMslvBScyQQKw9AEHLS1vBtOGzQMpzHEFyYbzB8g3qQHWVHkHkEMHB4Ga9QP+OR0F4rafBsbSZ
QIWENEFcsq3BroeGQOUxHEGzrXbBD5C4QF05FUHxfoHBYE3oQCUB8EBg0W/B+CjSQOsR1kBgrljB
kOfdQOiX/ED8h7XBNI8CQedJEEFJGrDBDJ7nQNXaKkG3t5/BylWwQJdVJ0E9MpzBitdVQFxJ70Dv
5n3BNzp2QL29BEG7FYvBN+7NQFSrqUAChXrBs+2aQAOYs0AsOm7Bo1+nQNZWC0HyZqnBjScEQSPz
Az80lYbBpPnWQHvxaT/j3X/Bzk7YQGErxL653onBWq2CQH6WGkCmoKvBHjFVQONnvz9y2qDBhKiq
QODDdkDECInBXV3AQJnem0APk5PB8CG/QPlmQ0D6aqDBCfBWQMAKVkAM4pPB8JeaQOEUnj97l4/B
KCJoQFX6qkBQtIbB8e14QIIBxECF+pHBJU1VQLQkhUAWaaXB/YQJQZZU6UCqgZPB1hADQTZ9AEGT
f5zBKFf0QHr72kB5EozBchu8QGdH+0A6rJbBp23KQCrsPj+Bo6zBFF2SQN70ML+mUaXB8NDTQMNO
1r90eazB50naQNskBUF76Z3BhFjIQJv75EDRg43B0/2hQPxZGD/yvqfBnHbjQICexr73567BpSir
QAeU6b9svafB+nfbQIr/vj8G5pDBdSK+QKEcG0HG1L3Bdp6sQAhiBkEyImXB3K2fQIMeC0EzVLjB
m3bRQBBGK0FV07XBv8ObQFdqD0GxZXrBIivKQBvS5UCEgmjBdMi2QBdJ/0ADO6/BL6ToQCGAH0E/
z6zBphWFQLEx+0A/bYPByPO0QG0Kw0A4pnbBfHnIQIF9EEGDZKfBgWSkQBje1UDlC4bBl6DlQP6b
Bz/oxYfB1tSIQOX+5z88ZaTB3aCiQFTEkEAujo/BeMyiQOsUKEAILJzBsMOHQH7mcEDSr5fBAdSw
QNFr4D+dTpPBdnSKQNUXtkAz24vBbrj4QEaIBUA2ZZXBMFx3QGBzlEC2M6DB9lUFQcAydr58UrPB
7xycQG6pQ8D8YqXB8z4aQeck4kBcSpLB+bkOQebzBUF/QqLBCUn+QM9KyEA9PoXBr4yaQFV+AEGZ
KpjBcR/WQAWN3T9jo67BbMJmQFFuTr+cmqHBDf3mQO/mIsBRPa7BKlLYQKMnEkFwpMHB+S2sQDn3
I0F7+MPBMLC+QET7EkFdzVzBKTqRQI52AUE3PFvBqvKDQCvPE0HKFrXBI7GUQJaH/kCXOb7BV1To
QMCpNUGtCrrBcqW3QDAXNUEQaLLBzgyFQH12HEHAJnfBG7C2QPaVFUFU9IHBjM/nQBag8EB0UHDB
DtvRQGXS10Bb01jBXz6gQO8i6kD4BKvB+E/RQIEq7ECufLLBYrIBQXQoFkEEHLDBoPf0QGoaK0Ey
9KbB3O5UQNzD7kBaKH3Bl/9wQKg2BEEl84rB7aXMQBL0qUCbHnrBi9aZQB0KtUB34G3BdFCtQLVL
GkHtsKTBEDQEQUw8AT96bobBgXrVQEdiXj9mcIDBb0/aQLjy9L5A3onBDUyCQJb7G0Chc6vBmcxU
QOBvvz9+xaDBKeqpQASid0DyuIjB0KjAQIlVm0BET5PBzPu+QM1HQ0BtM6DBFKJWQGFOVkDytZPB
eVSaQF+MqT+gxI7BkWVmQOPrq0An/IbBffx6QJJsxECoO5LBLNZVQK0qhUD8QqXB

>  <OMEGA_E>  (146) 
1KWNPng8kD7wdJc+WJONPg==

>  <OMEGA_NBR>  (146) 
    307766

$$$$
50214113
     RDKit          3D

 74 77  0  0  1  0  0  0  0  0999 V2000
    8.5347    7.5923  -18.5344 C   0  0  0  0  0  0  0  0  0  0  0  0
    8.0550    8.0437  -19.7763 C   0  0  0  0  0  0  0  0  0  0  0  0
    7.6386    7.1239  -17.5578 C   0  0  0  0  0  0  0  0  0  0  0  0
    5.7820    7.5821  -19.0552 C   0  0  0  0  0  0  0  0  0  0  0  0
    6.3990    0.7839  -21.5743 C   0  0  0  0  0  0  0  0  0  0  0  0
    4.5812   -0.6366  -20.7685 C   0  0  0  0  0  0  0  0  0  0  0  0
    6.6502   -1.6410  -21.5817 C   0  0  0  0  0  0  0  0  0  0  0  0
    6.6645    8.0104  -20.0549 C   0  0  0  0  0  0  0  0  0  0  0  0
    6.2410    7.1611  -17.7956 C   0  0  0  0  0  0  0  0  0  0  0  0
    5.1040    0.6459  -21.0289 C   0  0  0  0  0  0  0  0  0  0  0  0
    7.1750   -0.3585  -21.8390 C   0  0  0  0  0  0  0  0  0  0  0  0
    5.3508   -1.7788  -21.0529 C   0  0  0  0  0  0  0  0  0  0  0  0
    6.7737    1.5316  -18.0006 C   0  0  0  0  0  0  0  0  0  0  0  0
    5.3283    8.2867  -14.2591 C   0  0  0  0  0  0  0  0  0  0  0  0
    7.1538   10.4091  -21.9933 C   0  0  0  0  0  0  0  0  0  0  0  0
    5.8276   10.7288  -21.2650 C   0  0  0  0  0  0  0  0  0  0  0  0
    4.8565    8.9093  -15.5811 C   0  0  0  0  0  0  0  0  0  0  0  0
    6.3373    7.1547  -14.5071 C   0  0  0  0  0  0  0  0  0  0  0  0
    7.0440    8.9385  -22.4295 C   0  0  0  0  0  0  0  0  0  0  0  0
    5.0048    9.4362  -21.3191 C   0  0  0  0  0  0  0  0  0  0  0  0
    4.2001    7.8350  -16.4506 C   0  0  0  0  0  0  0  0  0  0  0  0
    5.7715    6.0800  -15.4673 C   0  0  0  0  0  0  0  0  0  0  0  0
    6.0622    8.3224  -21.4297 C   0  0  0  0  0  0  0  0  0  0  0  0
    5.1843    6.6811  -16.7815 C   0  0  0  0  0  0  0  0  0  0  0  0
    7.0328    0.4700  -16.9370 C   0  0  0  0  0  0  0  0  0  0  0  0
    4.3207    1.8712  -20.6246 C   0  0  0  0  0  0  0  0  0  0  0  0
    5.0851    4.4923  -17.9146 C   0  0  0  0  0  0  0  0  0  0  0  0
    5.0965    2.6398  -19.5373 C   0  0  1  0  0  0  0  0  0  0  0  0
    4.2530    3.7746  -18.9697 C   0  0  2  0  0  0  0  0  0  0  0  0
    5.4693    1.7251  -18.4401 N   0  0  0  0  0  0  0  0  0  0  0  0
    4.3441    5.6602  -17.4381 N   0  0  0  0  0  0  0  0  0  0  0  0
    7.7233    2.0854  -18.5449 O   0  0  0  0  0  0  0  0  0  0  0  0
    3.9104    4.6819  -20.0188 O   0  0  0  0  0  0  0  0  0  0  0  0
    8.4278   -0.2230  -22.3287 F   0  0  0  0  0  0  0  0  0  0  0  0
    4.8453   -3.0076  -20.8056 F   0  0  0  0  0  0  0  0  0  0  0  0
    9.5950    7.6055  -18.3299 H   0  0  0  0  0  0  0  0  0  0  0  0
    8.7455    8.4161  -20.5186 H   0  0  0  0  0  0  0  0  0  0  0  0
    8.0157    6.7344  -16.6237 H   0  0  0  0  0  0  0  0  0  0  0  0
    4.7212    7.5751  -19.2578 H   0  0  0  0  0  0  0  0  0  0  0  0
    6.7933    1.7663  -21.7882 H   0  0  0  0  0  0  0  0  0  0  0  0
    3.5908   -0.7422  -20.3511 H   0  0  0  0  0  0  0  0  0  0  0  0
    7.2441   -2.5188  -21.7897 H   0  0  0  0  0  0  0  0  0  0  0  0
    5.8060    9.0652  -13.6461 H   0  0  0  0  0  0  0  0  0  0  0  0
    4.4579    7.8805  -13.7229 H   0  0  0  0  0  0  0  0  0  0  0  0
    7.2767   11.0613  -22.8705 H   0  0  0  0  0  0  0  0  0  0  0  0
    8.0075   10.5448  -21.3130 H   0  0  0  0  0  0  0  0  0  0  0  0
    6.0224   11.0165  -20.2213 H   0  0  0  0  0  0  0  0  0  0  0  0
    5.2954   11.5442  -21.7769 H   0  0  0  0  0  0  0  0  0  0  0  0
    4.1274    9.7056  -15.3708 H   0  0  0  0  0  0  0  0  0  0  0  0
    5.7199    9.3341  -16.1141 H   0  0  0  0  0  0  0  0  0  0  0  0
    7.2499    7.5816  -14.9487 H   0  0  0  0  0  0  0  0  0  0  0  0
    6.5827    6.6795  -13.5459 H   0  0  0  0  0  0  0  0  0  0  0  0
    6.6542    8.8639  -23.4554 H   0  0  0  0  0  0  0  0  0  0  0  0
    8.0231    8.4404  -22.3721 H   0  0  0  0  0  0  0  0  0  0  0  0
    4.4055    9.3162  -20.4045 H   0  0  0  0  0  0  0  0  0  0  0  0
    4.3406    9.4325  -22.1958 H   0  0  0  0  0  0  0  0  0  0  0  0
    3.3343    7.4214  -15.9127 H   0  0  0  0  0  0  0  0  0  0  0  0
    3.8619    8.2953  -17.3908 H   0  0  0  0  0  0  0  0  0  0  0  0
    6.5822    5.3853  -15.7319 H   0  0  0  0  0  0  0  0  0  0  0  0
    4.9733    5.5308  -14.9465 H   0  0  0  0  0  0  0  0  0  0  0  0
    5.6084    7.4158  -21.8566 H   0  0  0  0  0  0  0  0  0  0  0  0
    8.1170    0.3438  -16.8005 H   0  0  0  0  0  0  0  0  0  0  0  0
    6.5778    0.7849  -15.9863 H   0  0  0  0  0  0  0  0  0  0  0  0
    6.5901   -0.4849  -17.2568 H   0  0  0  0  0  0  0  0  0  0  0  0
    4.1769    2.5204  -21.5009 H   0  0  0  0  0  0  0  0  0  0  0  0
    3.3405    1.5661  -20.2295 H   0  0  0  0  0  0  0  0  0  0  0  0
    5.2811    3.8113  -17.0733 H   0  0  0  0  0  0  0  0  0  0  0  0
    6.0399    4.8156  -18.3548 H   0  0  0  0  0  0  0  0  0  0  0  0
    6.0064    3.0635  -19.9874 H   0  0  0  0  0  0  0  0  0  0  0  0
    3.3482    3.3593  -18.5019 H   0  0  0  0  0  0  0  0  0  0  0  0
    4.7396    1.2141  -17.9859 H   0  0  0  0  0  0  0  0  0  0  0  0
    3.6569    5.3495  -16.7814 H   0  0  0  0  0  0  0  0  0  0  0  0
    3.8892    6.0843  -18.2211 H   0  0  0  0  0  0  0  0  0  0  0  0
    3.3919    4.2287  -20.6733 H   0  0  0  0  0  0  0  0  0  0  0  0
  1  2  2  0
  1  3  1  0
  2  8  1  0
  3  9  2  0
  4  8  2  0
  4  9  1  0
  5 10  2  0
  5 11  1  0
  6 10  1  0
  6 12  2  0
  7 11  2  0
  7 12  1  0
  8 23  1  0
  9 24  1  0
 10 26  1  0
 11 34  1  0
 12 35  1  0
 13 25  1  0
 13 30  1  0
 13 32  2  0
 14 17  1  0
 14 18  1  0
 15 16  1  0
 15 19  1  0
 16 20  1  0
 17 21  1  0
 18 22  1  0
 19 23  1  0
 20 23  1  0
 21 24  1  0
 22 24  1  0
 24 31  1  0
 26 28  1  0
 27 29  1  0
 27 31  1  0
 28 29  1  0
 28 30  1  0
 29 33  1  0
  1 36  1  0
  2 37  1  0
  3 38  1  0
  4 39  1  0
  5 40  1  0
  6 41  1  0
  7 42  1  0
 14 43  1  0
 14 44  1  0
 15 45  1  0
 15 46  1  0
 16 47  1  0
 16 48  1  0
 17 49  1  0
 17 50  1  0
 18 51  1  0
 18 52  1  0
 19 53  1  0
 19 54  1  0
 20 55  1  0
 20 56  1  0
 21 57  1  0
 21 58  1  0
 22 59  1  0
 22 60  1  0
 23 61  1  0
 25 62  1  0
 25 63  1  0
 25 64  1  0
 26 65  1  0
 26 66  1  0
 27 67  1  0
 27 68  1  0
 28 69  1  6
 29 70  1  1
 30 71  1  0
 31 72  1  0
 31 73  1  0
 33 74  1  0
M  CHG  1  31   1
M  END
>  <OMEGA_C>  (147) 
8o0IQYP08kBzRpTBY+EAQS2zAEHeNZ7Bym/0QL3240BddozB9gW5QC6g8kAjcZjBPsTMQLCsSD9D
mKzBhZmSQLf2Ir/6JabBx87UQP4L0r9Qp6zB9EPVQHMqAEF2cKDBabbHQO4n5UBvXY7BnVOjQNtc
JT9HO6jBY5nlQCKTt75Otq7BZTmrQLKu479hbKjBgMLYQBgNxD8iAZDBbYGqQFSWBEEbJWTBHOzk
QLGLJkFK8q/BS3u6QC2pK0HDHqrBaWibQIqMDkFETHnB/srKQD3z5EApHWjBOWjhQPQDD0GGb7PB
nCegQLD6FkF2jarB1maGQHO4+kDumoPBu6+4QKmPwkD9eXfBWf3BQKAoBUEPcKvBjOWlQIfL1UCG
QIbBcwzhQDKi8D79fofBJkOKQGSD7z8q/6TB8LiiQPLAj0AIUY/BWRajQN3yKEB2TJzB+hiIQGiT
cUDgwZfBNgSvQPzQ3D9ghZPBOAOLQDYgtUAngYvB8iT3QPJ3BUD0W5TBcEN6QFbSlUCJJqDBJdgG
QUhbZL4jobLBowybQNp7QMDjcabBRoUZQW1g80Cqo5LBfu0LQWGoBkEbJqTBM0AAQZOA10BE/YTB
vxOXQG9n8kDrD5rB3WLZQIwW4j8jTq7Bxc9lQAL/Pb/6zqLBcc/nQF8zIcBmUa7Bdcq5QCMLEUFW
VlrBOqeOQDEt/EAXkVvBBdvoQCb7MEHV9rbBux4AQZC3KEEHgarBerfAQGZDMEFIxaHBMnSpQAu1
OEECN67BWxOEQElKG0HP7nXBcAm3QJ1YFUGn6YDBzf7nQHSc8kC3LW/BUaXSQMO+1UDfu1jBZe/U
QJ3SDUGipLvBgV4AQd0LB0EH+rLBLfqMQFEPFUFoPKPB3uWKQIvrFkEWkbHBfWRVQFl87UCWmn7B
ISp3QIq5BEFLIIvBrKHSQItUrECttXvBNCWfQPv7sEDIJG/BZHizQF5O7UBA2q7BC98BQWcMsD5w
Z4bBmn3SQFnwSD/dx3/BueHSQKk/+L7tDYrBHKmFQPNNIUDNAazBkspVQG52yD/31aHBr/6oQCfs
c0AJlojB/UbBQCsZmkCQ1pLBSzTAQDQQREA+5p/BukhWQEf/VkD8A5TBfKqXQFNmmz8S44/BSAtq
QPEuq0BLQIbBn+h4QDSywkDexJHBqBRZQLNRh0DRYqXBc9ELQUzT7kD4HJLBj8UGQddiAEGAEZzB
0vz2QHZk4EDjS4vBLJ7BQJAo90DySZjBP4zMQNgkWD+HoKzBBiKVQN8SKr9l8qXBAY7XQCCjyL9j
N63BgrTiQNTCAUFqcJ/Bm13LQBa95UBbGY7BLPSjQEptJD+n76fBKXbmQOUwhb5qLK/BXNKuQDVO
4r94pKjBg1naQBDrwT/tLJDBBOCnQN/5AkFiWGPBMq+sQMuqKEHLkKbBeNSPQBBjF0Him6vBFKKc
QGBNDkE5cHjBYe3GQCC64EAFN2fB2PTZQLYzI0HnT6rB2+KtQC4cBUFeNq/B5RWIQO7s/EDVC4TB
vxe1QCMFwUCq+HfBcjbaQCq8CkHio6rBaGSmQIYM10AvpobB/jvkQCFO0T5PI4jBaJaJQJ1+6T8a
ZKTBimWiQHhAkUBHp4/B82KiQDHNJ0Dn3ZvBKaOGQNj/bkB4Q5fBtPWvQMfI3D+CHZPB/aqLQIFD
uEBaiozBNeP3QJu+BUCBt5TBP2dvQLhdkkB6t5/BK+MGQRz0hL3CaLPBioqgQCROQcD/tabBd1Yc
QSYV7EA+rI/Bi2UTQQNHBkH+LaHBATP/QNUK0UAm1YPBoJigQPkS+0B3pJrBN67XQEBR7D/jQa7B
rytsQGtvUb9NW6LBP1rrQEGnGsDiOK/B3uK2QNaNDkFWa1jBuV2KQDV7+UBtDVzB5lSjQGutOEHq
X6nBc6qqQOsVKEHvyJ3B3FtxQJ1wEUEtr6XBiBp9QBP8HUGkh7LBMguGQBxmG0EPLHXBZPy5QLrc
FEFXmn/BDJPlQNeY7UCXAW3BLxjMQNGgz0CnDFjBKTXgQHDtKUHuSrLBn/fxQME9KUE3oaTB/8Oi
QHJk60A4AKzB7yuvQKlBBEED/7fBqxNVQIlE8EC7dYDB9E+AQCLsBkGpg4vBITzOQKWaqUCOzHvB
sG+ZQKVfsEDZ83DBbDvzQHYtBUHmK7DBm4sDQZ8+jT7HhofBFkHXQMMqLz+vQoDBTXnVQM0HCL+4
1IrBsf6CQOw1HkAnT6vBEmVWQMwSvD//+aDBL1upQJ4WfEC7fIjBt4/AQFDRmUDKppPBFcS+QKV7
REBDpJ/BKE9XQL7XUkCb15LBwDyZQKZvnj8wDI/ByeJlQNUNsEAh5YfBfNCAQCaHxkDvKpPBnrVM
QH4fgkDKdKTBTooJQVX160AVS5TBsmoDQVTxBEFWGpzBC3X0QChw2kCBU43Bif28QEOsAUGJTJbB
DVTMQGcvRz9DhazBIi2TQG4dLL/l7KXBmHHVQJs70r+utazBzETbQObXCkEORZ3BGvbIQM8Q50D6
DY7B+zSjQDYyHj/uBKjB7ovlQD8CtL7xxa7B3TOsQBaV5r/CUajBcTjZQMicvj9GFpDBWHmuQPPj
A0H6KGTBRpqtQFHpBUE4qLLB8UvcQHvyCkEE4bXBWaObQFLuDUGWjXjBblLNQFG64kBwYWnBhbWh
QLtaF0G9jKrB+VHpQEliHkGJC6/BLbOFQA0t+UCZ/ILBtO63QJAOwUAxA3jBncHMQJSdHEH8E6XB
GdylQKW21UD2b4bB0wbiQK8ozT4L04fBX7aJQGTy6T/rrqTB1/uiQGRlkEC5rY/BOqiiQLf4JkAx
FpzBSnOHQD0sb0CyjJfBjDCvQGwT2j8vTJPB6rSLQLmctkBTUozBEFH3QD88A0A+gZTBmxl0QIMw
k0DjBKDBca4GQZLRSL540LLBC9OcQORqQsDrQKbBkBcaQdhg4kCQpJPBnV8PQWj+C0GqP6HBJhX+
QMk/w0CQY4fBBpSbQGmaBUFmTpfBWGXYQO404j8wO67BLGxnQI48S7+MfKLBcrfoQA6wIMBSfq7B
LATAQMpEEEHnPFvBUCWUQDBz+0DbPFrB4GmYQCugBkHQrLnBjmqrQL/u60DX+K7Bvi7xQDtr+kAC
JrTBjDLeQK3eDkHHcb7BBRKEQJc6GkFvHnTB+nu1QJJOFUHq+YDBAa/pQGC070AVinHBeSPXQJI0
00DBXVrBrpaUQBKGJUFCnK7BLk2KQMxZEUH5s6TBnq4FQfaIHUFW2azBxiHjQBhrLUHFWbPBevtX
QBuE6kDXcXzBrudvQJT/A0HcMIrBis7PQKG1qED5YHzBCIKdQJvPsUCJO2/BWdvKQGQYLEHs6qDB
2GMCQY6ihz4G8obB9THUQIIeMj+OFYDBznHTQN4tC7/ee4rB90yEQDFfHkDTq6vBT3RVQI63wD/U
ZaHBnu2pQCKYeEB4qojBiizBQGrBmUAwjZPBGoC/QMF8QkDExp/BIFNXQPENVEAFWJPBxACYQD94
mz/LaY/BoP9mQP+GrUCum4fBkBKAQI/8xEC52ZLBMLRRQEWTg0D666TB

>  <OMEGA_E>  (147) 
sDN1PlC2fz5gtmc+

>  <OMEGA_NBR>  (147) 
    311566

$$$$
50212929
     RDKit          3D

 74 77  0  0  1  0  0  0  0  0999 V2000
    8.5308    7.3433  -18.4084 C   0  0  0  0  0  0  0  0  0  0  0  0
    7.5516    6.8055  -17.5566 C   0  0  0  0  0  0  0  0  0  0  0  0
    8.1564    8.0409  -19.5694 C   0  0  0  0  0  0  0  0  0  0  0  0
    5.8152    7.6228  -19.0546 C   0  0  0  0  0  0  0  0  0  0  0  0
    6.4112    0.4233  -21.5829 C   0  0  0  0  0  0  0  0  0  0  0  0
    4.5428   -0.9712  -20.8509 C   0  0  0  0  0  0  0  0  0  0  0  0
    6.6092   -2.0039  -21.6360 C   0  0  0  0  0  0  0  0  0  0  0  0
    6.9875    6.4836  -13.5187 C   0  0  0  0  0  0  0  0  0  0  0  0
    6.1755    6.9520  -17.8671 C   0  0  0  0  0  0  0  0  0  0  0  0
    6.0827    6.6744  -14.6681 C   0  0  0  0  0  0  0  0  0  0  0  0
    6.7869    8.2036  -19.8976 C   0  0  0  0  0  0  0  0  0  0  0  0
    5.1014    0.3043  -21.0737 C   0  0  0  0  0  0  0  0  0  0  0  0
    7.1685   -0.7282  -21.8496 C   0  0  0  0  0  0  0  0  0  0  0  0
    5.2926   -2.1245  -21.1463 C   0  0  0  0  0  0  0  0  0  0  0  0
    5.7560    8.0086  -14.7051 C   0  0  0  0  0  0  0  0  0  0  0  0
    6.6056    1.2135  -18.0024 C   0  0  0  0  0  0  0  0  0  0  0  0
    5.5519    5.6848  -15.6744 C   0  0  0  0  0  0  0  0  0  0  0  0
    4.8365    8.6289  -15.7353 C   0  0  0  0  0  0  0  0  0  0  0  0
    4.0911    7.5496  -16.5357 C   0  0  0  0  0  0  0  0  0  0  0  0
    5.0470    6.4075  -16.9612 C   0  0  1  0  0  0  0  0  0  0  0  0
    6.7571    0.1381  -16.9307 C   0  0  0  0  0  0  0  0  0  0  0  0
    7.4836    9.7072  -21.8683 C   0  0  0  0  0  0  0  0  0  0  0  0
    5.2238    9.9730  -20.8304 C   0  0  0  0  0  0  0  0  0  0  0  0
    5.7663    7.8962  -22.1704 C   0  0  0  0  0  0  0  0  0  0  0  0
    4.3166    1.5434  -20.7292 C   0  0  0  0  0  0  0  0  0  0  0  0
    4.9196    4.2350  -18.0642 C   0  0  0  0  0  0  0  0  0  0  0  0
    5.0742    2.3604  -19.6649 C   0  0  1  0  0  0  0  0  0  0  0  0
    4.3014    3.6337  -19.3087 C   0  0  1  0  0  0  0  0  0  0  0  0
    6.3296    8.9372  -21.1737 C   0  0  0  0  0  0  0  0  0  0  0  0
    7.1835    7.6505  -12.9439 N   0  0  0  0  0  0  0  0  0  0  0  0
    6.4559    8.5425  -13.6594 N   0  0  0  0  0  0  0  0  0  0  0  0
    5.3294    1.5130  -18.4764 N   0  0  0  0  0  0  0  0  0  0  0  0
    4.2316    5.4802  -17.7488 N   0  0  0  0  0  0  0  0  0  0  0  0
    7.6113    1.6798  -18.5279 O   0  0  0  0  0  0  0  0  0  0  0  0
    2.9186    3.3776  -19.0832 O   0  0  0  0  0  0  0  0  0  0  0  0
    8.4292   -0.6059  -22.3208 F   0  0  0  0  0  0  0  0  0  0  0  0
    4.7466   -3.3476  -20.9645 F   0  0  0  0  0  0  0  0  0  0  0  0
    9.5768    7.2199  -18.1697 H   0  0  0  0  0  0  0  0  0  0  0  0
    7.8479    6.2784  -16.6618 H   0  0  0  0  0  0  0  0  0  0  0  0
    8.9163    8.4555  -20.2152 H   0  0  0  0  0  0  0  0  0  0  0  0
    4.7720    7.6934  -19.3250 H   0  0  0  0  0  0  0  0  0  0  0  0
    6.8318    1.4008  -21.7676 H   0  0  0  0  0  0  0  0  0  0  0  0
    3.5423   -1.0625  -20.4547 H   0  0  0  0  0  0  0  0  0  0  0  0
    7.1896   -2.8898  -21.8474 H   0  0  0  0  0  0  0  0  0  0  0  0
    7.4167    5.5443  -13.2025 H   0  0  0  0  0  0  0  0  0  0  0  0
    6.3549    4.9844  -15.9475 H   0  0  0  0  0  0  0  0  0  0  0  0
    4.7169    5.1277  -15.2243 H   0  0  0  0  0  0  0  0  0  0  0  0
    4.1017    9.2670  -15.2226 H   0  0  0  0  0  0  0  0  0  0  0  0
    5.4338    9.2406  -16.4274 H   0  0  0  0  0  0  0  0  0  0  0  0
    3.2875    7.1312  -15.9120 H   0  0  0  0  0  0  0  0  0  0  0  0
    3.6558    8.0073  -17.4363 H   0  0  0  0  0  0  0  0  0  0  0  0
    7.8245   -0.0773  -16.7750 H   0  0  0  0  0  0  0  0  0  0  0  0
    6.3138    0.4941  -15.9890 H   0  0  0  0  0  0  0  0  0  0  0  0
    6.2418   -0.7779  -17.2554 H   0  0  0  0  0  0  0  0  0  0  0  0
    7.1003   10.2090  -22.7690 H   0  0  0  0  0  0  0  0  0  0  0  0
    7.8919   10.4583  -21.1760 H   0  0  0  0  0  0  0  0  0  0  0  0
    8.2773    9.0004  -22.1521 H   0  0  0  0  0  0  0  0  0  0  0  0
    4.9063   10.4892  -21.7484 H   0  0  0  0  0  0  0  0  0  0  0  0
    4.3620    9.4550  -20.3844 H   0  0  0  0  0  0  0  0  0  0  0  0
    5.6200   10.7085  -20.1147 H   0  0  0  0  0  0  0  0  0  0  0  0
    5.4358    8.4067  -23.0869 H   0  0  0  0  0  0  0  0  0  0  0  0
    6.5503    7.1660  -22.4199 H   0  0  0  0  0  0  0  0  0  0  0  0
    4.9124    7.3753  -21.7127 H   0  0  0  0  0  0  0  0  0  0  0  0
    4.1841    2.1553  -21.6337 H   0  0  0  0  0  0  0  0  0  0  0  0
    3.3313    1.2540  -20.3348 H   0  0  0  0  0  0  0  0  0  0  0  0
    4.8155    3.5326  -17.2241 H   0  0  0  0  0  0  0  0  0  0  0  0
    5.9860    4.4375  -18.2428 H   0  0  0  0  0  0  0  0  0  0  0  0
    6.0410    2.6601  -20.0955 H   0  0  0  0  0  0  0  0  0  0  0  0
    4.4159    4.3495  -20.1360 H   0  0  0  0  0  0  0  0  0  0  0  0
    6.4329    9.5176  -13.4390 H   0  0  0  0  0  0  0  0  0  0  0  0
    4.5430    1.1353  -17.9876 H   0  0  0  0  0  0  0  0  0  0  0  0
    3.4053    5.2636  -17.2289 H   0  0  0  0  0  0  0  0  0  0  0  0
    3.9782    5.9290  -18.6057 H   0  0  0  0  0  0  0  0  0  0  0  0
    2.5342    3.0005  -19.8659 H   0  0  0  0  0  0  0  0  0  0  0  0
  1  2  2  0
  1  3  1  0
  2  9  1  0
  3 11  2  0
  4  9  2  0
  4 11  1  0
  5 12  2  0
  5 13  1  0
  6 12  1  0
  6 14  2  0
  7 13  2  0
  7 14  1  0
  8 10  1  0
  8 30  2  0
  9 20  1  0
 10 15  2  0
 10 17  1  0
 11 29  1  0
 12 25  1  0
 13 36  1  0
 14 37  1  0
 15 18  1  0
 15 31  1  0
 16 21  1  0
 16 32  1  0
 16 34  2  0
 17 20  1  0
 18 19  1  0
 19 20  1  0
 20 33  1  6
 22 29  1  0
 23 29  1  0
 24 29  1  0
 25 27  1  0
 26 28  1  0
 26 33  1  0
 27 28  1  0
 27 32  1  0
 28 35  1  0
 30 31  1  0
  1 38  1  0
  2 39  1  0
  3 40  1  0
  4 41  1  0
  5 42  1  0
  6 43  1  0
  7 44  1  0
  8 45  1  0
 17 46  1  0
 17 47  1  0
 18 48  1  0
 18 49  1  0
 19 50  1  0
 19 51  1  0
 21 52  1  0
 21 53  1  0
 21 54  1  0
 22 55  1  0
 22 56  1  0
 22 57  1  0
 23 58  1  0
 23 59  1  0
 23 60  1  0
 24 61  1  0
 24 62  1  0
 24 63  1  0
 25 64  1  0
 25 65  1  0
 26 66  1  0
 26 67  1  0
 27 68  1  6
 28 69  1  6
 31 70  1  0
 32 71  1  0
 33 72  1  0
 33 73  1  0
 35 74  1  0
M  CHG  1  33   1
M  END
>  <OMEGA_C>  (148) 
/n0IQRv86kBoRJPBzqbxQLDG2UDwc4zBlIACQaynAEEIjpzBUBa6QJLt80Djb5jBvSjNQG7A2D6y
qazB8F6RQDCieL+wzqbB1X7TQH0/AMBvFq3BxpnfQIN5z0CaTFjB6Z3FQBV33kDm747BmqXCQIWU
1UCAsGrBki7ZQCJCA0FELp/BxD6jQKbMmz7/lqjBlWTlQK1rOr8MzK7BAl2pQDP4B8CbK6nBBjG4
QEQjAEEUSGvBeGHTQHZVmz/TBJDB0aixQKbptUBsynrBdcSaQPUPCkHcw3vBo+qCQHaW8UAwSYTB
+IChQIEKzUCesIfB5znYQOhuDT4ecofB03nvQNZQG0FC8q7BXymnQJaRH0GVpKbBloW4QG+t/EDo
XLHBNyGKQAqOxT9p1aXBr22dQPCEh0CUg5DBhl+iQHwRF0CpUZ3B+aSJQOeNaEAieJrBcIzKQJP+
DkHRY6nBA9/lQLzQ9EAcGk/B8JbOQPStCEHxjFrBWYqqQNuqwT+uz5PBJ2mHQG1dr0B0/Y3BIpDz
QDoF1z8SOZTBqMo6QHsqWEBxqpjBEd4GQSMeG7/1kLLBZuSXQAU/VsBat6fBlToZQRoJ50CbW5HB
/SH7QKToyEBES4XBEakOQcRJB0G0uKHBO7SYQF0w9kCVmZrBH57aQOpMsz8AJK7BX7ViQGsBiL8l
o6PBBxHmQJPyOMCNx67Ba1XtQPxqsUBlPVPBpVvLQGaAn0D7KH/B1vCWQHoWpEDulnPBG0GDQM9F
FEHZj3PBauGtQK3ZE0Ffa4PBQWZSQNoy5EBzl37BEPhpQAQeAEF3fYvB+mH6QNxWnr0bM4bBPgrK
QIf0/D4T03/BAb3HQC4mR7/1CorB5jXjQPFXI0H+JrbBHIr8QD1VJ0GAaKnBtG8EQcQBEEF+N7HB
sgCdQKnTJ0HC/K3BWZWLQH5HF0FTE6PB29azQP1VK0Hu6qDBBPKtQAOCBkEFsrjBwpvRQOxP5UD3
W7PBFjKdQGEC7ECYs63BF+SFQEDwCUC9Ea3BjDRVQNiCoD+ZraLBwBiaQMoWYkDqyonBII2/QD4A
jkBX8ZHBwE/BQFk/KkCZw6DBcE+NQEAvi0BxFqHBjtrNQBRIGEH+BVfBQWCRQKZQkT+u5o/B2u9Z
QBlvqEC71InBopp+QEm6vUB02JTB0zAiQBAIQEBP7Z7BuzsIQV5L60DHG5PBOSDxQHXl2UBYVIzB
H0ACQU3LAEFnZpzB4JG5QO8c9EBeTpjBqSORQMwBfb+1v6bBwPnMQMVv0j63f6zBJWXTQKYRAcBs
+qzBvVTgQCmGz0DZm1jBPRbFQDqM3kDA0o7BcH3CQC9r1UDiqWrB0q7YQDZcA0GJCp/B+euiQMav
kz6bhajBXkmpQK32CMABDanBRUrlQDZZPb8yoq7B29e3QKQJAEGxLWvB23bTQC6fmz/p54/B6Dax
QISxtUAirnrByg6aQLfsCUGohXvBxESCQFJA8UBrLITB1/agQKvUzEAtn4fBcifZQO+9KT7sKIfB
+py4QPGv/EBLSLHBg/HuQKqSG0HlvK7BoEimQNdtH0G+j6bB9p6JQAAPwz+pwqXBYu6dQIfah0Bo
xJDB+U2hQN1iFUAWHZ3B9uGGQCZ0Y0Da3ZnBxxfKQDAND0FTQ6nBI6nmQD/j9EA1cU/Bg7jOQMOj
CEEHpFrBiG6qQByfvD/EvZPBDhSHQOb7rkAP9o3BQD7zQH/l2T/UJpTBowI6QBJtS0BvgpbB9x6Y
QDRNV8CJbafBV+oGQX6QHb/rQ7LBUPcYQSuE50BJK5HBw5j6QL3nyEAjMIXBWGkOQfxxB0Eqj6HB
qS+YQINx9kDBdprByxhiQCh4ir9SoaPBn3raQNrcsT8M563BoPPlQBmxOcAuuK7By5PuQNGUsUAg
vVPBLMfKQEoon0A6Fn/BwH6WQN0CpEBuZHPBBIGCQKACFEHYMXPBc+KsQI7VE0EgToPBjk9RQJy3
40BgWX7BNmloQErp/0AvXIvBVnn7QC/wc7yt14XBW3zKQM3CBj/AZX/BtJfJQNduRb8PoonBVROu
QMB9BkHUn7jBX/vRQBmW5UB5P7PBi1qdQIW460AOra3Bhr3iQD+RI0Gv9bXBa5r7QO+hJ0ERKqnB
alAEQahlEEFg+LDBAyecQDmpJ0Fn6q3B4MiKQFP7FkGEDKPBb46yQJk9K0HWzaDBn72FQOQnCUAP
+KzBQeJTQGRinT9Qu6LB3wyfQG3vZEB/yInBI7q+QP/Xj0A1Q5PBNcG/QG3jK0AmhKDBMf+EQPa+
h0BRt6DBn9vNQC47GEEDE1fBqa+RQMjLhj/u8Y/BUzZaQEEZp0BVuYnBQUt8QCaovUD8tZTBBTMd
QKKqL0B0O5zBIl4IQWW06kASJJPBV3bxQHp12UAwUIzBD1UCQcBkAEEBdpzBK9C5QDEd80CtVpjB
jFyQQFite79fzqbB9SrMQKRx1T7akazBTb3SQLC1AMBg86zB7fHfQGCuz0CLUFjB+WjFQKPs3UBp
0I7Bs5PCQDJs1UAHk2rBVNDYQDbSAkGQG5/B+xKiQN1Nlj7/m6jBrpOoQHGbCMDeD6nBZ5LkQAjt
O7+mpq7BwBG4QMkNAEE7SWvBRMLTQD/rnT8484/B13uxQPJ+tUDCjXrBEmWaQEnXCUHfvHvBd5WC
QD3m8EAwNoTBYkuhQIlizED9lofBUanaQIJWJD6qcIfBVvDuQP9iGkHFEa/BS6GnQJqeH0HnXabB
80+2QMVA/ECeH7HB28mIQMh+wz8ax6XBlcaeQDjmh0CR+JDBHICgQEaQFEDrDp3BT3qFQLFiYEBN
apnBYevJQEiYDkG3R6nB9FzmQPgv9UDMTk/B48bOQCvACEEvvVrBQZqqQDhguD9a35PBi2iHQIdW
rkC83I3BCefyQN185D+F+ZPBiHI7QKp4REDhCZXBW2CXQDjuVsCLdKfBzo0GQQJzHL9wSrLBahwZ
Qa/55kDpN5HBa/76QKu+yEDXIoXB23UOQT0QB0EsoqHBsmuYQNU19UC4gJrBjoJgQPTWib+zsqPB
Y5/ZQIKesj8rAK7BwWPlQChVOcDRoK7Bv9XtQGa7sUD6M1PBAyTLQJz/nkCG337BU8aWQCTMo0An
RHPB0tuCQMQGFEErhXPBQU6tQIGhE0G5coPBoPRRQKOE40CeXn7BgAVpQCtW/0DYbIvB/Sf9QBEi
4DxUDIbBkxPLQHNx8D735H/BHLfMQFgHSr/MMIrBAXbiQJB2IkEqPbbBkgn9QBxRJkHepKnBassD
QXq+DkEzbrHBpDCdQCzwJ0Feq63BXP+LQL+zF0F0nqLBl2q1QHxGK0HnvqDB+5KrQMlhBkHAarjB
RJPOQAst5ECKObPBWdqaQCtm7EBJTa3BIguFQBb9CUD876zBcRlSQGCznT9ay6LBLjKjQHVeZkBF
8YnBMTm+QLzpkEApOJTBfYS+QCoYLUBye6DBIO9/QAGPhUCNRaDBVQrOQNNgGEGlU1fB1WWSQCg4
dz/JRZDBjy1cQA6hpUA2e4nB6td6QOgyvUAmfpTBNdgbQIy6JkCFXJrBwFcIQYkc6kDOWJPBwGrx
QJwM2UDufIzBC00CQc1TAEE0mJzBCba5QMTr80DkUpjBjwnMQMR7zj5KaKzBD4aQQFw5gL8OiabB
N7vSQDGKAcBa26zB9QngQBRPz0CTcljBGlfFQME43kBY347BuqfCQN071UCOr2rBab3YQOIfA0Et
IJ/BHBCiQL+FjT4gX6jBInjkQKDZPr9mi67B6ayoQMOnCcCV5qjBFwW4QJLj/0AoP2vByfLTQEmE
nj/cApDBtIOxQJV5tUATuXrBSUuaQLTLCUHTo3vBpoCCQKnr8EBqNITBDUOhQKOLzEBrpYfBKw3b
QJ6WFz56qIfBX3i3QG7V/EClQLHBosvuQEs+G0G64q7BdramQPGOH0GNbKbBtImIQBgcwT83naXB
p72eQLQyiECBEZHB+lOgQMyaFEBpCJ3BIliFQNCyYEDHd5nBauvJQOL1DkGWSKnBoFnmQIKz9EAr
Tk/BxLHOQNWOCEFzpFrBMaaqQDg9uj8IypPBP16HQDaWrkA68I3B4PzyQPQB5T+fF5TB1h07QOg5
RUD0EJXBMm0GQbV7Hr/uR7LB0WOXQEEKWMAoaKfBaxcZQVnh5UCzgJHBK/r6QDHux0CGX4XBGm4O
QXfkBkHFzKHBjkaYQOaT9kASaJrBqWDZQDwIsT9X2q3BZDJhQJ+XjL9wUaPB7l3lQHwQOsBgmK7B
agPuQF9TsUDYcVPB0yfLQF0Dn0CTHH/B79KWQPK2o0DDdHPB1b6CQKzsE0GJXHPBjiqtQJGnE0GF
YIPB0OVRQGlg40B8YH7BvLloQGGA/0BZZIvBJZb9QJgJQDu0aYbBFQLMQJke5T5NEoDBcavMQKrm
Sr95d4rBWsKsQLSrBkGJjLjBCV7QQBFd5UCpUbPBkCqcQAVC7EADjq3BKGTiQEJZI0ETDrbBdB/8
QFwxJ0GmWanBkAMEQXHlD0HZOLHBmV+cQG3oJ0ENuq3BwjKLQH5FF0EU06LBJqOzQEM/K0FysaDB
u2OEQF39B0Bt1KzBw/RRQBLsmj+AiKLBtl+jQEkUZ0C/CYrBURe+QN9GkUAvXZTBJkC+QPbaLEDp
iaDBWcp/QIuIhUDPXKDBYuPNQGUpGEFtIFfBBXySQKlWfz+eCJDBoBZcQILVpUCHkInB98Z6QAuF
vUA4j5TBX2obQIxOJ0BJXZrB

>  <OMEGA_E>  (148) 
vEOWPgQ4mj6owpo+WPmaPg==

>  <OMEGA_NBR>  (148) 
      4945

$$$$
50156294
     RDKit          3D

 85 87  0  0  1  0  0  0  0  0999 V2000
    0.4354   -5.2491  -15.5436 C   0  0  0  0  0  0  0  0  0  0  0  0
    0.5468   -4.0238  -16.2311 C   0  0  0  0  0  0  0  0  0  0  0  0
    1.4501   -6.2199  -15.6620 C   0  0  0  0  0  0  0  0  0  0  0  0
    1.6696   -3.7714  -17.0430 C   0  0  0  0  0  0  0  0  0  0  0  0
    2.5707   -5.9724  -16.4781 C   0  0  0  0  0  0  0  0  0  0  0  0
    5.8963   -0.7759  -17.1580 C   0  0  0  0  0  0  0  0  0  0  0  0
    6.7507   -1.7493  -15.0957 C   0  0  0  0  0  0  0  0  0  0  0  0
    7.1554    0.5985  -15.5918 C   0  0  0  0  0  0  0  0  0  0  0  0
    6.4556    0.8499  -21.4392 C   0  0  0  0  0  0  0  0  0  0  0  0
    5.5009   -1.2914  -20.7707 C   0  0  0  0  0  0  0  0  0  0  0  0
    7.7821   -1.1895  -21.6237 C   0  0  0  0  0  0  0  0  0  0  0  0
    6.0640   -1.8978  -16.3172 C   0  0  0  0  0  0  0  0  0  0  0  0
    6.4689    0.4622  -16.8094 C   0  0  0  0  0  0  0  0  0  0  0  0
    2.6824   -4.7506  -17.1768 C   0  0  0  0  0  0  0  0  0  0  0  0
    7.2620   -0.4925  -14.7028 C   0  0  0  0  0  0  0  0  0  0  0  0
    5.3710    0.1067  -20.9026 C   0  0  0  0  0  0  0  0  0  0  0  0
    7.6595    0.2040  -21.7779 C   0  0  0  0  0  0  0  0  0  0  0  0
    6.6981   -1.9390  -21.1301 C   0  0  0  0  0  0  0  0  0  0  0  0
    5.5252   -3.2145  -16.7094 C   0  0  0  0  0  0  0  0  0  0  0  0
    6.3507    1.6126  -17.7105 C   0  0  0  0  0  0  0  0  0  0  0  0
    3.4324   -4.3975  -19.5508 C   0  0  0  0  0  0  0  0  0  0  0  0
    9.0034    0.6725  -13.3347 C   0  0  0  0  0  0  0  0  0  0  0  0
    5.1120    8.9485  -21.3255 C   0  0  0  0  0  0  0  0  0  0  0  0
    4.5298    7.6734  -16.2541 C   0  0  0  0  0  0  0  0  0  0  0  0
    8.5730   -2.6588  -11.9980 C   0  0  0  0  0  0  0  0  0  0  0  0
    5.2570    5.0754  -18.2073 C   0  0  0  0  0  0  0  0  0  0  0  0
    4.0427    2.1190  -20.4755 C   0  0  0  0  0  0  0  0  0  0  0  0
    5.4212    7.1468  -19.7285 C   0  0  0  0  0  0  0  0  0  0  0  0
    3.8753   -4.5128  -18.0854 C   0  0  1  0  0  0  0  0  0  0  0  0
    4.9300    2.8211  -19.4068 C   0  0  1  0  0  0  0  0  0  0  0  0
    4.8880    6.5762  -18.3843 C   0  0  2  0  0  0  0  0  0  0  0  0
    4.2831    4.1687  -19.0080 C   0  0  1  0  0  0  0  0  0  0  0  0
    4.5577   -3.2776  -17.7014 N   0  0  0  0  0  0  0  0  0  0  0  0
    5.1117    1.9162  -18.2583 N   0  0  0  0  0  0  0  0  0  0  0  0
    7.9064   -0.3255  -13.4654 N   0  0  0  0  0  0  0  0  0  0  0  0
    5.9133   -4.2362  -16.1505 O   0  0  0  0  0  0  0  0  0  0  0  0
    7.3413    2.2916  -17.9598 O   0  0  0  0  0  0  0  0  0  0  0  0
    6.0933   -1.7549  -12.2158 O   0  0  0  0  0  0  0  0  0  0  0  0
    7.7723   -0.4063  -10.8791 O   0  0  0  0  0  0  0  0  0  0  0  0
    3.1007    3.9325  -18.2393 O   0  0  0  0  0  0  0  0  0  0  0  0
    4.1679    0.6685  -20.4922 O   0  0  0  0  0  0  0  0  0  0  0  0
    4.6204    8.2779  -20.1447 O   0  0  0  0  0  0  0  0  0  0  0  0
    5.4632    7.3393  -17.3002 O   0  0  0  0  0  0  0  0  0  0  0  0
    8.6969    0.9242  -22.2612 F   0  0  0  0  0  0  0  0  0  0  0  0
    6.8100   -3.2794  -20.9934 F   0  0  0  0  0  0  0  0  0  0  0  0
    7.4600   -1.2362  -12.0506 S   0  0  0  0  0  0  0  0  0  0  0  0
   -0.4284   -5.4442  -14.9255 H   0  0  0  0  0  0  0  0  0  0  0  0
   -0.2288   -3.2785  -16.1353 H   0  0  0  0  0  0  0  0  0  0  0  0
    1.3682   -7.1542  -15.1265 H   0  0  0  0  0  0  0  0  0  0  0  0
    1.7577   -2.8296  -17.5641 H   0  0  0  0  0  0  0  0  0  0  0  0
    3.3462   -6.7185  -16.5696 H   0  0  0  0  0  0  0  0  0  0  0  0
    5.3271   -0.8677  -18.0713 H   0  0  0  0  0  0  0  0  0  0  0  0
    6.8877   -2.6061  -14.4527 H   0  0  0  0  0  0  0  0  0  0  0  0
    7.6053    1.5457  -15.3336 H   0  0  0  0  0  0  0  0  0  0  0  0
    6.3563    1.9150  -21.5880 H   0  0  0  0  0  0  0  0  0  0  0  0
    4.6732   -1.8713  -20.3898 H   0  0  0  0  0  0  0  0  0  0  0  0
    8.7068   -1.6831  -21.8840 H   0  0  0  0  0  0  0  0  0  0  0  0
    4.3125   -4.2257  -20.1880 H   0  0  0  0  0  0  0  0  0  0  0  0
    2.9341   -5.3290  -19.8575 H   0  0  0  0  0  0  0  0  0  0  0  0
    2.7329   -3.5553  -19.6572 H   0  0  0  0  0  0  0  0  0  0  0  0
    9.3861    0.6645  -12.3035 H   0  0  0  0  0  0  0  0  0  0  0  0
    9.8168    0.4162  -14.0295 H   0  0  0  0  0  0  0  0  0  0  0  0
    8.6180    1.6744  -13.5749 H   0  0  0  0  0  0  0  0  0  0  0  0
    4.4493    9.7912  -21.5718 H   0  0  0  0  0  0  0  0  0  0  0  0
    6.1284    9.3244  -21.1372 H   0  0  0  0  0  0  0  0  0  0  0  0
    5.1329    8.2405  -22.1671 H   0  0  0  0  0  0  0  0  0  0  0  0
    5.0454    8.2508  -15.4726 H   0  0  0  0  0  0  0  0  0  0  0  0
    3.7095    8.2747  -16.6730 H   0  0  0  0  0  0  0  0  0  0  0  0
    4.1217    6.7496  -15.8182 H   0  0  0  0  0  0  0  0  0  0  0  0
    8.3378   -3.2767  -11.1189 H   0  0  0  0  0  0  0  0  0  0  0  0
    8.4456   -3.2578  -12.9118 H   0  0  0  0  0  0  0  0  0  0  0  0
    9.6134   -2.3079  -11.9317 H   0  0  0  0  0  0  0  0  0  0  0  0
    6.2825    4.9112  -18.5698 H   0  0  0  0  0  0  0  0  0  0  0  0
    5.1987    4.8133  -17.1406 H   0  0  0  0  0  0  0  0  0  0  0  0
    2.9917    2.3727  -20.2727 H   0  0  0  0  0  0  0  0  0  0  0  0
    4.3276    2.5017  -21.4666 H   0  0  0  0  0  0  0  0  0  0  0  0
    6.4648    7.4691  -19.5978 H   0  0  0  0  0  0  0  0  0  0  0  0
    5.3731    6.3641  -20.4999 H   0  0  0  0  0  0  0  0  0  0  0  0
    4.5683   -5.3620  -17.9928 H   0  0  0  0  0  0  0  0  0  0  0  0
    5.9101    3.0307  -19.8601 H   0  0  0  0  0  0  0  0  0  0  0  0
    3.7922    6.6714  -18.3729 H   0  0  0  0  0  0  0  0  0  0  0  0
    4.0153    4.6999  -19.9332 H   0  0  0  0  0  0  0  0  0  0  0  0
    4.3140   -2.4337  -18.1794 H   0  0  0  0  0  0  0  0  0  0  0  0
    4.2992    1.4984  -17.8516 H   0  0  0  0  0  0  0  0  0  0  0  0
    2.5076    3.3777  -18.7322 H   0  0  0  0  0  0  0  0  0  0  0  0
  1  2  2  0
  1  3  1  0
  2  4  1  0
  3  5  2  0
  4 14  2  0
  5 14  1  0
  6 12  2  0
  6 13  1  0
  7 12  1  0
  7 15  2  0
  8 13  2  0
  8 15  1  0
  9 16  2  0
  9 17  1  0
 10 16  1  0
 10 18  2  0
 11 17  2  0
 11 18  1  0
 12 19  1  0
 13 20  1  0
 14 29  1  0
 15 35  1  0
 16 41  1  0
 17 44  1  0
 18 45  1  0
 19 33  1  0
 19 36  2  0
 20 34  1  0
 20 37  2  0
 21 29  1  0
 22 35  1  0
 23 42  1  0
 24 43  1  0
 25 46  1  0
 26 31  1  0
 26 32  1  0
 27 30  1  0
 27 41  1  0
 28 31  1  0
 28 42  1  0
 29 33  1  0
 30 32  1  0
 30 34  1  0
 31 43  1  0
 32 40  1  0
 35 46  1  0
 38 46  2  0
 39 46  2  0
  1 47  1  0
  2 48  1  0
  3 49  1  0
  4 50  1  0
  5 51  1  0
  6 52  1  0
  7 53  1  0
  8 54  1  0
  9 55  1  0
 10 56  1  0
 11 57  1  0
 21 58  1  0
 21 59  1  0
 21 60  1  0
 22 61  1  0
 22 62  1  0
 22 63  1  0
 23 64  1  0
 23 65  1  0
 23 66  1  0
 24 67  1  0
 24 68  1  0
 24 69  1  0
 25 70  1  0
 25 71  1  0
 25 72  1  0
 26 73  1  0
 26 74  1  0
 27 75  1  0
 27 76  1  0
 28 77  1  0
 28 78  1  0
 29 79  1  6
 30 80  1  6
 31 81  1  6
 32 82  1  6
 33 83  1  0
 34 84  1  0
 40 85  1  0
M  END
>  <OMEGA_C>  (149) 
JPDePlr4p8CrsnjBn/0LP2HDgMA82YHBUp25PysJx8B2l3rBVLbVPxVfccAmWIjB8IYkQI4dv8Af
04PBR668QC+fRr+uQ4nBygXYQCrp378ciHHB2vjkQEk0GT/6d3nBa5TOQGWRWT+Fg6vBawewQEZM
pb9QKqbBpAb5QNhBmL9u/azBAgzCQCjs8r+MiYLBWQHPQIqo7D6meYbBsKwrQDkFmMAmaonBVGLo
QDcn/L6cPmvBEN+rQJh12j2XOKfBoBr1QOLuUD4eOa7BxFbWQOYv+L9yCqnBkc6wQBi6TcDOrIXB
MjnLQA5pzj8gr43BBa1bQGe4jMAZaJzBAQ4QQbsnLD8KW1XBIJWjQN8sD0GfmqrBVfSQQIqM9UBc
CILB6ioJQVEpKsDy9z/BHzmoQK9pokCnqJHBjF2BQGGdB0DezaPBqHqtQJSy5EDi053BmwR4QIFo
kMDWrpDBgsKdQNWMNEAPQZvB12qcQCBw0kATE5PB2A6JQA5mhUBJEJjB+tiRQPfDUcCKnI3B8JKj
QPZE9T/sEJLBYgH9QOaspr5hclfBmTm9QBePh8AxNIHB3evqQIGpEkCUrY/Bd/zCQNig4L/cc0PB
5Lb4QMAC0L7OEC7BsHFGQG2ue0AZ6pHBhF+FQGIjKz/y76PBbtqTQEByBEFsKKHBRNKuQKrb6kDL
ZorBXSYLQWmXbD/kFrLBaOvZQCXiUcCD8qfBGbjuQEI9nr9jz0DB3lnbvvI2rsDKzm7BxUdqviPS
UcAAFYHBkSKvPxrv5MAaBnLBM/3gP2QXNcBKg4zB0ydWQND91sChjoTBmXeqQNMjXr/9kZDBDmjc
QIfKJsAuPmfB0l7zQBraxT+gVnXBLGfLQEkd9T9MtKzBM4uVQCWI779hHqPB9E4LQWhu179aEq/B
SQCKQFg5h8DsgKHBcsg7QP+GqsAg3J7BcuguQFuJY8DzQZ3Biy0WQbIeKj8J20TBmhEdQQkZ1T7r
eGDBX+MJQU5R1j/9MlnBoGCOQLKoHEElk6zBGhzEQJIwFUHmGKnB20CkQAHZA0FEVrHBP3ShQFsD
BEG2j3fBeGhtQCRlBEFgYoXBNeWDQJn810BCF33BxWcFQd60UcDr5jHBDSEHQWCAUMCOlk7Be9AZ
QTe0E8Bx6D7BDArJQIconUD6jpTBE1ymQKIGmkD8H4nBKXg/QALaF0CVLqLBxnuKQEQcIECuu6vB
od/OQLcC70AzyJzBHfCrQOWmy0DE/6PBLS+SQHaVq8Ar8Y/BMR+9QKz3QUCD4Z7B77NyQGJ81UDG
+5LB9HyAQDxllkBGd5/BPgyKQDTCG8CBb5HBEpOJQHLLvz8s0I7BdHwgQH0sWECE25XB

>  <OMEGA_E>  (149) 
HKErPw==

>  <OMEGA_NBR>  (149) 
      1705

$$$$
50156296
     RDKit          3D

 92 95  0  0  1  0  0  0  0  0999 V2000
    0.4284   -5.2206  -15.5771 C   0  0  0  0  0  0  0  0  0  0  0  0
    0.5490   -3.9851  -16.2442 C   0  0  0  0  0  0  0  0  0  0  0  0
    1.4361   -6.1967  -15.7105 C   0  0  0  0  0  0  0  0  0  0  0  0
    1.6743   -3.7275  -17.0510 C   0  0  0  0  0  0  0  0  0  0  0  0
    2.5599   -5.9434  -16.5200 C   0  0  0  0  0  0  0  0  0  0  0  0
    5.8984   -0.7680  -17.1234 C   0  0  0  0  0  0  0  0  0  0  0  0
    6.7563   -1.7580  -15.0704 C   0  0  0  0  0  0  0  0  0  0  0  0
    7.1219    0.6051  -15.5283 C   0  0  0  0  0  0  0  0  0  0  0  0
    6.4729    0.9055  -21.4174 C   0  0  0  0  0  0  0  0  0  0  0  0
    5.5055   -1.2502  -20.8178 C   0  0  0  0  0  0  0  0  0  0  0  0
    7.8100   -1.1249  -21.6028 C   0  0  0  0  0  0  0  0  0  0  0  0
    6.0738   -1.8967  -16.2954 C   0  0  0  0  0  0  0  0  0  0  0  0
    6.4424    0.4742  -16.7517 C   0  0  0  0  0  0  0  0  0  0  0  0
    2.6805   -4.7116  -17.1987 C   0  0  0  0  0  0  0  0  0  0  0  0
    7.2542   -0.5007  -14.6604 C   0  0  0  0  0  0  0  0  0  0  0  0
    5.3758    0.1481  -20.9270 C   0  0  0  0  0  0  0  0  0  0  0  0
    7.6909    0.2722  -21.7240 C   0  0  0  0  0  0  0  0  0  0  0  0
    6.7118   -1.8874  -21.1621 C   0  0  0  0  0  0  0  0  0  0  0  0
    5.5402   -3.2070  -16.7086 C   0  0  0  0  0  0  0  0  0  0  0  0
    6.3142    1.6257  -17.6481 C   0  0  0  0  0  0  0  0  0  0  0  0
    8.8194    9.0519  -19.3042 C   0  0  0  0  0  0  0  0  0  0  0  0
    8.4154   10.3426  -20.0342 C   0  0  0  0  0  0  0  0  0  0  0  0
    7.3381    9.4329  -19.4273 C   0  0  0  0  0  0  0  0  0  0  0  0
    3.4338   -4.3228  -19.5651 C   0  0  0  0  0  0  0  0  0  0  0  0
    9.0133    0.6416  -13.2938 C   0  0  0  0  0  0  0  0  0  0  0  0
    4.6770    7.9264  -15.9520 C   0  0  0  0  0  0  0  0  0  0  0  0
    8.5578   -2.7154  -12.0005 C   0  0  0  0  0  0  0  0  0  0  0  0
    6.4567    8.5691  -20.3498 C   0  0  0  0  0  0  0  0  0  0  0  0
    5.2256    4.9426  -18.0538 C   0  0  0  0  0  0  0  0  0  0  0  0
    4.0376    2.1416  -20.4868 C   0  0  0  0  0  0  0  0  0  0  0  0
    4.8062    7.3168  -19.0544 C   0  0  0  0  0  0  0  0  0  0  0  0
    3.8753   -4.4692  -18.1017 C   0  0  1  0  0  0  0  0  0  0  0  0
    4.9140    2.8051  -19.3873 C   0  0  1  0  0  0  0  0  0  0  0  0
    4.6938    6.3742  -17.8107 C   0  0  2  0  0  0  0  0  0  0  0  0
    4.2683    4.1340  -18.9529 C   0  0  1  0  0  0  0  0  0  0  0  0
    4.5652   -3.2480  -17.6945 N   0  0  0  0  0  0  0  0  0  0  0  0
    5.0899    1.8727  -18.2582 N   0  0  0  0  0  0  0  0  0  0  0  0
    7.9099   -0.3486  -13.4270 N   0  0  0  0  0  0  0  0  0  0  0  0
    5.9354   -4.2384  -16.1732 O   0  0  0  0  0  0  0  0  0  0  0  0
    7.2914    2.3346  -17.8649 O   0  0  0  0  0  0  0  0  0  0  0  0
    6.0919   -1.7620  -12.1757 O   0  0  0  0  0  0  0  0  0  0  0  0
    7.8155   -0.4643  -10.8421 O   0  0  0  0  0  0  0  0  0  0  0  0
    3.0456    3.8751  -18.2573 O   0  0  0  0  0  0  0  0  0  0  0  0
    4.1605    0.6958  -20.5398 O   0  0  0  0  0  0  0  0  0  0  0  0
    5.4085    6.9199  -16.6848 O   0  0  0  0  0  0  0  0  0  0  0  0
    6.1255    7.3359  -19.6583 O   0  0  0  0  0  0  0  0  0  0  0  0
    8.7457    1.0091  -22.1400 F   0  0  0  0  0  0  0  0  0  0  0  0
    6.8181   -3.2310  -21.0597 F   0  0  0  0  0  0  0  0  0  0  0  0
    7.4701   -1.2717  -12.0201 S   0  0  0  0  0  0  0  0  0  0  0  0
   -0.4373   -5.4197  -14.9628 H   0  0  0  0  0  0  0  0  0  0  0  0
   -0.2214   -3.2358  -16.1368 H   0  0  0  0  0  0  0  0  0  0  0  0
    1.3464   -7.1395  -15.1915 H   0  0  0  0  0  0  0  0  0  0  0  0
    1.7693   -2.7783  -17.5573 H   0  0  0  0  0  0  0  0  0  0  0  0
    3.3309   -6.6928  -16.6219 H   0  0  0  0  0  0  0  0  0  0  0  0
    5.3442   -0.8583  -18.0459 H   0  0  0  0  0  0  0  0  0  0  0  0
    6.9003   -2.6217  -14.4382 H   0  0  0  0  0  0  0  0  0  0  0  0
    7.5460    1.5586  -15.2500 H   0  0  0  0  0  0  0  0  0  0  0  0
    6.3715    1.9718  -21.5553 H   0  0  0  0  0  0  0  0  0  0  0  0
    4.6710   -1.8389  -20.4665 H   0  0  0  0  0  0  0  0  0  0  0  0
    8.7427   -1.6113  -21.8475 H   0  0  0  0  0  0  0  0  0  0  0  0
    9.2173    8.1992  -19.8740 H   0  0  0  0  0  0  0  0  0  0  0  0
    9.3222    9.1067  -18.3274 H   0  0  0  0  0  0  0  0  0  0  0  0
    8.6287   11.3214  -19.5798 H   0  0  0  0  0  0  0  0  0  0  0  0
    8.5238   10.4139  -21.1265 H   0  0  0  0  0  0  0  0  0  0  0  0
    6.8566    9.8013  -18.5094 H   0  0  0  0  0  0  0  0  0  0  0  0
    4.3157   -4.1481  -20.1990 H   0  0  0  0  0  0  0  0  0  0  0  0
    2.9263   -5.2435  -19.8888 H   0  0  0  0  0  0  0  0  0  0  0  0
    2.7427   -3.4719  -19.6561 H   0  0  0  0  0  0  0  0  0  0  0  0
    9.4033    0.6207  -12.2655 H   0  0  0  0  0  0  0  0  0  0  0  0
    9.8202    0.3880  -13.9971 H   0  0  0  0  0  0  0  0  0  0  0  0
    8.6319    1.6481  -13.5208 H   0  0  0  0  0  0  0  0  0  0  0  0
    5.2904    8.2886  -15.1137 H   0  0  0  0  0  0  0  0  0  0  0  0
    4.4385    8.7662  -16.6212 H   0  0  0  0  0  0  0  0  0  0  0  0
    3.7446    7.4914  -15.5628 H   0  0  0  0  0  0  0  0  0  0  0  0
    8.3232   -3.3400  -11.1259 H   0  0  0  0  0  0  0  0  0  0  0  0
    8.4072   -3.3004  -12.9197 H   0  0  0  0  0  0  0  0  0  0  0  0
    9.6053   -2.3843  -11.9441 H   0  0  0  0  0  0  0  0  0  0  0  0
    5.5337    9.1144  -20.5964 H   0  0  0  0  0  0  0  0  0  0  0  0
    7.0046    8.3385  -21.2753 H   0  0  0  0  0  0  0  0  0  0  0  0
    6.2095    5.0040  -18.5419 H   0  0  0  0  0  0  0  0  0  0  0  0
    5.3277    4.4293  -17.0863 H   0  0  0  0  0  0  0  0  0  0  0  0
    2.9850    2.3934  -20.2904 H   0  0  0  0  0  0  0  0  0  0  0  0
    4.3366    2.5512  -21.4630 H   0  0  0  0  0  0  0  0  0  0  0  0
    4.0832    6.9793  -19.8116 H   0  0  0  0  0  0  0  0  0  0  0  0
    4.5550    8.3398  -18.7378 H   0  0  0  0  0  0  0  0  0  0  0  0
    4.5610   -5.3258  -18.0242 H   0  0  0  0  0  0  0  0  0  0  0  0
    5.8981    3.0281  -19.8251 H   0  0  0  0  0  0  0  0  0  0  0  0
    3.6274    6.2944  -17.5530 H   0  0  0  0  0  0  0  0  0  0  0  0
    4.0620    4.7273  -19.8559 H   0  0  0  0  0  0  0  0  0  0  0  0
    4.3209   -2.3931  -18.1522 H   0  0  0  0  0  0  0  0  0  0  0  0
    4.2841    1.3917  -17.9126 H   0  0  0  0  0  0  0  0  0  0  0  0
    2.4616    3.3771  -18.8170 H   0  0  0  0  0  0  0  0  0  0  0  0
  1  2  2  0
  1  3  1  0
  2  4  1  0
  3  5  2  0
  4 14  2  0
  5 14  1  0
  6 12  2  0
  6 13  1  0
  7 12  1  0
  7 15  2  0
  8 13  2  0
  8 15  1  0
  9 16  2  0
  9 17  1  0
 10 16  1  0
 10 18  2  0
 11 17  2  0
 11 18  1  0
 12 19  1  0
 13 20  1  0
 14 32  1  0
 15 38  1  0
 16 44  1  0
 17 47  1  0
 18 48  1  0
 19 36  1  0
 19 39  2  0
 20 37  1  0
 20 40  2  0
 21 22  1  0
 21 23  1  0
 22 23  1  0
 23 28  1  0
 24 32  1  0
 25 38  1  0
 26 45  1  0
 27 49  1  0
 28 46  1  0
 29 34  1  0
 29 35  1  0
 30 33  1  0
 30 44  1  0
 31 34  1  0
 31 46  1  0
 32 36  1  0
 33 35  1  0
 33 37  1  0
 34 45  1  0
 35 43  1  0
 38 49  1  0
 41 49  2  0
 42 49  2  0
  1 50  1  0
  2 51  1  0
  3 52  1  0
  4 53  1  0
  5 54  1  0
  6 55  1  0
  7 56  1  0
  8 57  1  0
  9 58  1  0
 10 59  1  0
 11 60  1  0
 21 61  1  0
 21 62  1  0
 22 63  1  0
 22 64  1  0
 23 65  1  0
 24 66  1  0
 24 67  1  0
 24 68  1  0
 25 69  1  0
 25 70  1  0
 25 71  1  0
 26 72  1  0
 26 73  1  0
 26 74  1  0
 27 75  1  0
 27 76  1  0
 27 77  1  0
 28 78  1  0
 28 79  1  0
 29 80  1  0
 29 81  1  0
 30 82  1  0
 30 83  1  0
 31 84  1  0
 31 85  1  0
 32 86  1  6
 33 87  1  6
 34 88  1  1
 35 89  1  6
 36 90  1  0
 37 91  1  0
 43 92  1  0
M  END
>  <OMEGA_C>  (150) 
BFnbPjkPp8CzO3nBIYwMPy0Lf8Ar9IHBMdO3PytLxsAmXnvB1E3WP5mPbsBuaIjBBtUjQB8wvsAB
KYTBhL+8QIacRL+i/IjBiTPYQF8H4b8yIHHBtubjQBDlGj/kc3jBPiLPQPrNZz/MVqvBMS2wQBUI
oL/aiqbBd+v5QDj8j79x0qzBXVzCQEXH8r8PXYLBiyjOQIvF8j6MA4bBCI0rQLzFlsDblonBVCLo
QCovAL8ckWrB3QasQAKpFz5zaqfBqBv2QPVjiz7Vyq3B1cbWQECW8b/hS6nBEUmxQM4/TcAeq4XB
wg3KQPUX0D9fL43BbRwNQW3UEEEDb5rBXqUGQTt7JUHyRaDBptHqQEPtFkEXa5vBc8NbQE9UisBg
hZzBbjYQQUI+JD+Ns1TBQqqVQFml/UBAO3/B4+wIQZrILcDqAUDBBJ3OQA4bCUF8zKLBODinQNIp
nkAnbpDBAzSBQCgQCUAP5aPBZ8yZQPwi6kBgb5jBlgR4QKoDj8BW0JDBIz+dQF+GM0AmGZvBxDOW
QBf5y0BMfI7BFJaIQGlJhECin5fB0hWSQK7eT8BHjo3BSeCiQN+z7z/kEJLBPh79QHZ4sr7c1FbB
wu69QOSgh8CxYoHB7VLpQMVqFUBV647B4/DCQImI4b+Kz0LBeBj6QJa67b4feS3B0utCQBECeEDc
DpLBICOFQOAfMj96UaTBMhKtQJpv3UCIeoXB1APEQAbA6kAtRJ3BZO4LQSoqgT/OHrHBwC3aQCzJ
TsBbeqjBAwvvQNfGor9nUkDBAOnfvtFtrcDRZ2/BhrJivsUXT8ApGIHBpVWsP/V25MA8EHPBhHni
PwbQMcBwdYzB0yxVQDsr1sCn+YTB1gOrQKe8W78SXpDBgM/cQLHKJ8DCAmfBgHjxQKh+xz8dAHTB
L+PLQMRk/D9TcazB7XiVQK5i679Vu6PB/uELQQRAzr+Yx67B6XkTQc4vA0Hv/Z7BwicVQQW1EUFx
npLBPQ8KQXokNUGHo5zBZGEIQUOfJkEFA6nBd2nbQBXSHEFIE5TBHRqKQI+9hMCFl6HBREk7QPXK
p8AsHJ/BVYgvQOIyXsC0P53B+XMWQaDkHj+MP0TBfh8dQYCmxj4z9F/BUBwKQfTz0j9EVVjBkEqp
QOidBEGp0XHBWAiOQG1CDEE4+ITBMqhvQMK570BuAXnBACwFQW3CVcDRAzLBtoMGQTo5U8BHt07B
Zq8ZQdKYGMDtGj/B1BOxQGPUEUFnxaTBECbgQJdqBUHpM6rB47PGQKsgoEDcVZTBm3yqQHC8jUC5
sIjBtAk/QDEtGUDQUqLBh8WKQKBHI0AitKvBhqmCQGtW30Amfp7BSsKRQPNvBUEB55XBWPORQE5t
qsCXMZDBdL28QC/NQUC3mZ7BdCdoQHxryUCObIzBKfyBQHFGl0Dl2J7Bi0SKQGEoGcCvN5HBoheJ
QD0jsj8bTY/Bz4odQAUiWEBCiZbB

>  <OMEGA_E>  (150) 
NM8NPw==

>  <OMEGA_NBR>  (150) 
      3525

$$$$
50197270
     RDKit          3D

 78 81  0  0  1  0  0  0  0  0999 V2000
    8.6970    8.5343  -17.8510 C   0  0  0  0  0  0  0  0  0  0  0  0
    7.8879    9.2918  -16.9823 C   0  0  0  0  0  0  0  0  0  0  0  0
    9.0411    0.7024  -14.9001 C   0  0  0  0  0  0  0  0  0  0  0  0
    8.6184    1.6472  -15.8546 C   0  0  0  0  0  0  0  0  0  0  0  0
    8.4683   -0.5830  -14.8814 C   0  0  0  0  0  0  0  0  0  0  0  0
    8.1689    7.3986  -18.4904 C   0  0  0  0  0  0  0  0  0  0  0  0
    6.5542    8.9064  -16.7420 C   0  0  0  0  0  0  0  0  0  0  0  0
    7.0346    0.0234  -16.7626 C   0  0  0  0  0  0  0  0  0  0  0  0
    6.7972    1.1667  -21.4475 C   0  0  0  0  0  0  0  0  0  0  0  0
    5.0540   -0.4070  -20.7712 C   0  0  0  0  0  0  0  0  0  0  0  0
    7.1627   -1.2304  -21.6783 C   0  0  0  0  0  0  0  0  0  0  0  0
    7.6079    1.3143  -16.7892 C   0  0  0  0  0  0  0  0  0  0  0  0
    7.4720   -0.9310  -15.8204 C   0  0  0  0  0  0  0  0  0  0  0  0
    6.8346    7.0125  -18.2492 C   0  0  0  0  0  0  0  0  0  0  0  0
    6.0243    7.7623  -17.3663 C   0  0  0  0  0  0  0  0  0  0  0  0
    5.5170    0.9153  -20.9050 C   0  0  0  0  0  0  0  0  0  0  0  0
    7.6267    0.0934  -21.8126 C   0  0  0  0  0  0  0  0  0  0  0  0
    5.8714   -1.4775  -21.1691 C   0  0  0  0  0  0  0  0  0  0  0  0
    7.1609    2.2968  -17.7970 C   0  0  0  0  0  0  0  0  0  0  0  0
    6.8251   -2.2573  -15.7527 C   0  0  0  0  0  0  0  0  0  0  0  0
    6.2447    5.8711  -19.0220 C   0  0  0  0  0  0  0  0  0  0  0  0
    4.6491    7.2698  -16.9479 C   0  0  0  0  0  0  0  0  0  0  0  0
    5.1416    5.1735  -18.1874 C   0  0  2  0  0  0  0  0  0  0  0  0
    9.5002   -4.2056  -17.0973 C   0  0  0  0  0  0  0  0  0  0  0  0
    3.8801   -3.1043  -17.8270 C   0  0  0  0  0  0  0  0  0  0  0  0
    4.6341    2.0557  -20.4735 C   0  0  0  0  0  0  0  0  0  0  0  0
    8.5649   -4.0496  -18.3100 C   0  0  0  0  0  0  0  0  0  0  0  0
    4.7785   -4.3526  -17.9031 C   0  0  0  0  0  0  0  0  0  0  0  0
    7.5482   -2.9098  -18.0938 C   0  0  0  0  0  0  0  0  0  0  0  0
    5.8593   -4.3364  -16.8045 C   0  0  0  0  0  0  0  0  0  0  0  0
    4.4135    4.0803  -18.9906 C   0  0  2  0  0  0  0  0  0  0  0  0
    5.3762    2.9808  -19.4872 C   0  0  1  0  0  0  0  0  0  0  0  0
    5.8849    2.1789  -18.3527 N   0  0  0  0  0  0  0  0  0  0  0  0
    6.7156   -3.1144  -16.8728 N   0  0  0  0  0  0  0  0  0  0  0  0
    4.1300    6.1890  -17.8111 N   0  0  0  0  0  0  0  0  0  0  0  0
    7.9286    3.1830  -18.1527 O   0  0  0  0  0  0  0  0  0  0  0  0
    6.3351   -2.5779  -14.6755 O   0  0  0  0  0  0  0  0  0  0  0  0
    3.7563    4.6891  -20.1075 O   0  0  0  0  0  0  0  0  0  0  0  0
    8.8675    0.3360  -22.2912 F   0  0  0  0  0  0  0  0  0  0  0  0
    5.4171   -2.7443  -21.0538 F   0  0  0  0  0  0  0  0  0  0  0  0
    9.7223    8.8252  -18.0260 H   0  0  0  0  0  0  0  0  0  0  0  0
    8.2904   10.1700  -16.4994 H   0  0  0  0  0  0  0  0  0  0  0  0
    9.8047    0.9640  -14.1825 H   0  0  0  0  0  0  0  0  0  0  0  0
    9.0667    2.6296  -15.8742 H   0  0  0  0  0  0  0  0  0  0  0  0
    8.7915   -1.3057  -14.1468 H   0  0  0  0  0  0  0  0  0  0  0  0
    8.7846    6.8228  -19.1655 H   0  0  0  0  0  0  0  0  0  0  0  0
    5.9366    9.4912  -16.0764 H   0  0  0  0  0  0  0  0  0  0  0  0
    6.2577   -0.2341  -17.4672 H   0  0  0  0  0  0  0  0  0  0  0  0
    7.1376    2.1828  -21.5813 H   0  0  0  0  0  0  0  0  0  0  0  0
    4.0723   -0.5980  -20.3634 H   0  0  0  0  0  0  0  0  0  0  0  0
    7.7966   -2.0562  -21.9657 H   0  0  0  0  0  0  0  0  0  0  0  0
    5.8070    6.2526  -19.9562 H   0  0  0  0  0  0  0  0  0  0  0  0
    7.0361    5.1445  -19.2578 H   0  0  0  0  0  0  0  0  0  0  0  0
    4.7116    6.8935  -15.9162 H   0  0  0  0  0  0  0  0  0  0  0  0
    3.9477    8.1162  -16.9877 H   0  0  0  0  0  0  0  0  0  0  0  0
    5.5908    4.7300  -17.2866 H   0  0  0  0  0  0  0  0  0  0  0  0
   10.2104   -5.0246  -17.2843 H   0  0  0  0  0  0  0  0  0  0  0  0
   10.0544   -3.2688  -16.9389 H   0  0  0  0  0  0  0  0  0  0  0  0
    8.9040   -4.4348  -16.2017 H   0  0  0  0  0  0  0  0  0  0  0  0
    3.1222   -3.1482  -18.6230 H   0  0  0  0  0  0  0  0  0  0  0  0
    3.3811   -3.0709  -16.8473 H   0  0  0  0  0  0  0  0  0  0  0  0
    4.4953   -2.2015  -17.9561 H   0  0  0  0  0  0  0  0  0  0  0  0
    4.3372    2.6368  -21.3590 H   0  0  0  0  0  0  0  0  0  0  0  0
    3.7367    1.6510  -19.9826 H   0  0  0  0  0  0  0  0  0  0  0  0
    9.1692   -3.8259  -19.2015 H   0  0  0  0  0  0  0  0  0  0  0  0
    8.0187   -4.9919  -18.4643 H   0  0  0  0  0  0  0  0  0  0  0  0
    4.1550   -5.2502  -17.7784 H   0  0  0  0  0  0  0  0  0  0  0  0
    5.2691   -4.3808  -18.8872 H   0  0  0  0  0  0  0  0  0  0  0  0
    8.0967   -1.9617  -17.9926 H   0  0  0  0  0  0  0  0  0  0  0  0
    6.8844   -2.8578  -18.9694 H   0  0  0  0  0  0  0  0  0  0  0  0
    5.3659   -4.3687  -15.8218 H   0  0  0  0  0  0  0  0  0  0  0  0
    6.4983   -5.2239  -16.9232 H   0  0  0  0  0  0  0  0  0  0  0  0
    3.6668    3.6108  -18.3334 H   0  0  0  0  0  0  0  0  0  0  0  0
    6.2182    3.4565  -20.0114 H   0  0  0  0  0  0  0  0  0  0  0  0
    5.2682    1.5006  -17.9533 H   0  0  0  0  0  0  0  0  0  0  0  0
    3.3884    5.7275  -17.3241 H   0  0  0  0  0  0  0  0  0  0  0  0
    3.7726    6.6013  -18.6492 H   0  0  0  0  0  0  0  0  0  0  0  0
    3.3033    4.0227  -20.6107 H   0  0  0  0  0  0  0  0  0  0  0  0
  1  2  2  0
  1  6  1  0
  2  7  1  0
  3  4  2  0
  3  5  1  0
  4 12  1  0
  5 13  2  0
  6 14  2  0
  7 15  2  0
  8 12  2  0
  8 13  1  0
  9 16  2  0
  9 17  1  0
 10 16  1  0
 10 18  2  0
 11 17  2  0
 11 18  1  0
 12 19  1  0
 13 20  1  0
 14 15  1  0
 14 21  1  0
 15 22  1  0
 16 26  1  0
 17 39  1  0
 18 40  1  0
 19 33  1  0
 19 36  2  0
 20 34  1  0
 20 37  2  0
 21 23  1  0
 22 35  1  0
 23 31  1  0
 23 35  1  0
 24 27  1  0
 25 28  1  0
 26 32  1  0
 27 29  1  0
 28 30  1  0
 29 34  1  0
 30 34  1  0
 31 32  1  0
 31 38  1  0
 32 33  1  0
  1 41  1  0
  2 42  1  0
  3 43  1  0
  4 44  1  0
  5 45  1  0
  6 46  1  0
  7 47  1  0
  8 48  1  0
  9 49  1  0
 10 50  1  0
 11 51  1  0
 21 52  1  0
 21 53  1  0
 22 54  1  0
 22 55  1  0
 23 56  1  1
 24 57  1  0
 24 58  1  0
 24 59  1  0
 25 60  1  0
 25 61  1  0
 25 62  1  0
 26 63  1  0
 26 64  1  0
 27 65  1  0
 27 66  1  0
 28 67  1  0
 28 68  1  0
 29 69  1  0
 29 70  1  0
 30 71  1  0
 30 72  1  0
 31 73  1  1
 32 74  1  6
 33 75  1  0
 35 76  1  0
 35 77  1  0
 38 78  1  0
M  CHG  1  35   1
M  END
>  <OMEGA_C>  (151) 
GCcLQUuMCEHYzo7BSGn8QFmrFEHI24fBa6gQQRLQMz/5Zm7BIuUJQRfX0j+grH3BO34HQetAFb9O
Gm7BnbMCQSDB7EBU7JPB/LvRQMeADkGc74XB0xvhQOD0vzzXGYbBkYLZQKtVlT92lKvBHrqhQKpf
0L5cK6bBdzTlQLZ9nb83ba3BknPzQAM7qD9ZUIbB0BrvQN5Sbr92IH3BR7XaQMZm4EBM/pHBUMfA
QL9k+EA87orBVouwQK5Saj9wPafBkw30QHBcvz0kgK7BXuK7QHEevb9AWqnB7CXlQPb9EkBHYI7B
EmfaQNx2EMA/C3zBydTHQDrgu0ADLZjBjcWUQEOi6EBdlYfBHYikQIiNpUDZf5HBsgAYQYeUhsBA
x4jBAFR4QE6sRsC6nY7Bm0qUQMyPA0C9yaPB6AkJQZCWgcDxepLBWemYQFRIi8CMOY/BQ4vxQMo6
OsAPwJDBCX+7QC3EisCHb4bBtzuNQK6RgkDZ7JfBrgmsQALGPkC05ZvBbFG8QGRyC0Bk0pLBkebW
QFJSR8Bw+4bBuSiEQFkMxkAufY7Barf9QNC2S0C+OJHBZrnKQNz8JMDjzmrBAWhwQAgNlkBB3KDB
UuENQaICrD55VLLBIFmtQBKjL8BDbqjBhY4bQQU0DUEpNZDBoaUEQTS4IkHK/oPB8d8cQdDIdj+z
62LBBBERQU5LKECH/H3BDaoMQWohp79MWWLB040MQWBU2kDaUpnBZvi9QMLbF0FrnIDBuD7IQOGr
b77BvIvBTGfkQMizC0CKpqzBY1CCQHQYGb9Q6KLBiX35QMqYA8DOua/BtNK5QEsVyEBipp/BHyjh
QGqfpED6D5rBUcWWQOuX3ECmqH7BWad8QCPcAUHQ5ofBiueyQFJcl0DeSorBwV0jQSTJoMAmRorB
6t4gQVczUcD0gofBsXYOQeXpjcAinYHBqNJHQKZ8ScD/+5TBk2RYQF6KRMA1x4bBhNmPQCbmDMAM
po/BLcqKQLHAKEBJ36rBIiZvQM5U0z923J/B97QSQd7adMDCnJnBvkwAQai9n8DxtpPBjPWEQHYB
qMApOo7Bx5yoQFovjMD/GJfBOowBQcsZ+7/F8I/BPE3cQGXlNsA7wZfBnrWrQKfMi8AsJn3BJ/LP
QN8pp8DJYofBFKxqQNQXZ0DiqpLBHfvGQHo3XUBTF6DBsZSoQPQSwD9yoI/B7ttYQOxHt0Dal4rB
CXJxQHI900CCMZXBlmlTQAq6gEDK4qTB+IAKQbseCUGSq47BCGT7QLtnFEExUYfBopYQQSmRPT+r
Lm7BatIJQW0f2D/5a33B34oHQYWRDL8MCm7BaB0CQfyC7kBAFJTBx/7QQOPUDUHfXYXBgn/hQFA2
cj3sHIbBY3vZQE5/jz++tavBUGmgQFu1zr7yPabB0PbiQOygpL/Fkq3BeaLzQDsfrT+9RIbBQ2bv
QIhJZb+tK33BiN/ZQCAy4UA2E5LBIRXAQJjR90C8s4rBEFWwQLCsZz+LW6fBoADzQPjLwzxAqK7B
uIy5QJiOv7/7bqnBrIPlQJELFUDwZo7Bea7aQKoiDsDbT3zBjD/HQMrovEAlY5jBMwCUQADM50DP
gYfBZzOlQEY+pUC9l5HBtud6QF58QsCpiY7BjDYYQexJiMDRo4jBOt+UQEFGBEDy/aPBpUqaQOz8
iMDOjI/Bq/AJQfD/gMDShJLB0vy8QLa5icBjzIbBTiL0QE+9N8D9tJDBMgiOQGBegkADDJjBBeqs
QMEZP0D4HpzBBDe9QNe0C0DMEpPByKfYQICDRcCsGIfBwQuEQCJMxEBKNo7B8dj9QH9kTkBtL5HB
bP7IQLxgIcBsemvBoPpwQJL2lUBH5KDBTnMNQdRJaj7dgLLB+9ypQKbwL8CMfqjB+MEaQZYtDkHT
J5DBaSMEQZUfIkG6KoPBzrYcQTVegD/jm2LB3twQQSsuK0A5lH3Bg7oMQWQmo78rVmLBaOILQe1M
3UCbwpnBtWW9QBuVFkEjgn/BXtPIQLeOTL4szIvBbE3lQOAkCEAcxazBYumAQFUyEb/H76LBEWr2
QLdJCMBx6q/B6i24QJuFyUA4sJ/Bwd7gQOhtpkB/lZrBnXuVQNqv3ECJVH7BW6N6QERNAUFFHojB
9qa0QLfLlkAdj4rBnjlKQKl+Q8DC5JTBdTBbQAXSQsB0robBnwyRQIpVCMD/T4/BPUwjQe7mosD1
NIrBp2ghQXkVVsCA9IbBDyAOQbsekMAjs4HBpuiLQKxwKUA2H6vB655vQCKM1z9uFaDBw2yGQN3k
pcADz47BJ+GpQKCmiMCOcJfBCSgUQdi3csDbbJnBcd8AQepvnsB9K5TByE+tQAKLi8BY3X3BrjjR
QBIlpsBg+IfBsS4DQVxG+L8joY/BzHHfQPbyMcAgypfBYdFsQJcDZkDqxZLBuLvHQMbaXUA6VKDB
o+CpQCqCvT9tEJDB/oRbQKZ4tEBiDYrBA6NtQDzX0EB/yZTBsB5UQDqkgEDk7qTBSEULQXL+CEG7
bpDBCSP+QOXZFEFLDInBAoATQelHID8tFnHB42gMQWyQyD9bJYDB0w8JQTPGHb87LW/B628CQTyG
7UABVJXBxiDUQOBuDkH5hIbBa3vhQGDtzDuYC4bBkQbWQOFejj8tt6vBfr6dQLL02b6+/KXBoYzf
QDMVpb+j3a3BAcz1QHoCoj8s7obBdTzvQIgabb8EonzBSenaQFyL4ECXwZLBxGPCQPM0+ECPUIvB
Zm+tQLbTYj8QEafBs0fvQNBVtjzf9K7BDKK2QEE7wb8af6nBykXmQIeAEEDG0o7BtUHWQNw8CsAu
OnnBHUzHQKF0u0D0lJjBdmqXQCwC6EDnVYfBCJulQHQJpUAzapHBiW6MQJAwTMDKq5HBIuEWQcfL
gcDIT5jB0jCSQFOYAkDpbqPBaeCMQNrmd8D/uIbBHL0CQV30WMDd2JPByTm6QNOGi8DNm4PBqoYC
QXrIZcCivYfB5yaNQPLigUBIfJfBoj+rQCVePUCfxJvBgL68QJWeCUCT3ZLBoeDaQArUUcBRRIPB
SaSFQPI4xUAs+Y3Bsiz+QGv+SUBpyZHBqfS7QAKoCsDysmrBJHRsQGEilUC1KaDBEjcLQfJkcT59
OLPB4/emQKLTMMCz2qjB3GUbQYTlDUG0VZLBz9MFQcrkIkHQUIXBy/IgQWaUWz9u42bB5lsUQR1t
IUBszoDBMGkOQXuUqr8yZ2PB0bcLQWh720B/DZvBtXjBQOqdF0Ef4YDBb0rHQJkZeL7oUYvBFJ3h
QPS/B0B5xqzBL1N9QCQ4Gb/FeKLBL+HyQIAvCMDRYbDBpbK3QP4Yx0D66Z/BqITgQEtppECqs5rB
0nCbQJYO3EBLPX7BDKSAQH1sAUEIV4fBLaC1QLD9lkDvaIrB6mZXQNojN8DUjpPBZeGhQLFhFMB1
hZHBz2eXQLCbecBCz5fBcmMXQW4te8B7C6HBgx8lQdf6ZcAdtJTBgJ0WQaAlpMAkZZbBYxWIQBLV
J0AEdqrBTpVrQKZJ0z/yRZ/BWKiBQDYWSsCGqIDBg11uQBuol8BT8obB+vACQW8pFMDMtpXB7t3o
QNd5dsDTZ5fBnHi4QCVbmsCIR3fBfIrEQHSNo8ATgInBTX8GQf5olMAT7oXBl4gOQZlvO8BnFYTB
bMtsQILcZUCn6JHBgJrFQI62W0AmM6DBRlypQGTovD8WfY/B+fJdQFxCtkBEvonB8CtxQOw60kBo
g5TBwPtNQAlff0CJ+KPB

>  <OMEGA_E>  (151) 
9FK5PtiNtj7qeQ8/

>  <OMEGA_NBR>  (151) 
      3975

$$$$
50162053
     RDKit          3D

 88 91  0  0  1  0  0  0  0  0999 V2000
    9.3867   11.0030  -16.3615 C   0  0  0  0  0  0  0  0  0  0  0  0
    9.1533    9.8513  -15.5819 C   0  0  0  0  0  0  0  0  0  0  0  0
    9.2011   10.9625  -17.7587 C   0  0  0  0  0  0  0  0  0  0  0  0
    8.7307    8.6584  -16.1983 C   0  0  0  0  0  0  0  0  0  0  0  0
    8.7817    9.7701  -18.3774 C   0  0  0  0  0  0  0  0  0  0  0  0
    7.0244    0.0203  -16.8791 C   0  0  0  0  0  0  0  0  0  0  0  0
    8.5780    1.6491  -15.9295 C   0  0  0  0  0  0  0  0  0  0  0  0
    8.3379   -0.5483  -14.9031 C   0  0  0  0  0  0  0  0  0  0  0  0
    6.8694    1.1318  -21.4626 C   0  0  0  0  0  0  0  0  0  0  0  0
    5.0601   -0.3644  -20.7838 C   0  0  0  0  0  0  0  0  0  0  0  0
    7.1565   -1.2832  -21.6230 C   0  0  0  0  0  0  0  0  0  0  0  0
    8.5456    8.6202  -17.5961 C   0  0  0  0  0  0  0  0  0  0  0  0
    7.6144    1.3056  -16.9031 C   0  0  0  0  0  0  0  0  0  0  0  0
    7.3986   -0.9134  -15.8887 C   0  0  0  0  0  0  0  0  0  0  0  0
    8.9188    0.7341  -14.9151 C   0  0  0  0  0  0  0  0  0  0  0  0
    5.5656    0.9377  -20.9534 C   0  0  0  0  0  0  0  0  0  0  0  0
    7.6694    0.0200  -21.7806 C   0  0  0  0  0  0  0  0  0  0  0  0
    5.8487   -1.4721  -21.1321 C   0  0  0  0  0  0  0  0  0  0  0  0
    8.0709    7.3945  -18.2367 C   0  0  0  0  0  0  0  0  0  0  0  0
    7.2051    2.2896  -17.9200 C   0  0  0  0  0  0  0  0  0  0  0  0
    6.7565   -2.2407  -15.8227 C   0  0  0  0  0  0  0  0  0  0  0  0
    5.6670    7.9914  -17.7157 C   0  0  0  0  0  0  0  0  0  0  0  0
    6.2017    5.9482  -19.0498 C   0  0  0  0  0  0  0  0  0  0  0  0
    4.6991    7.1701  -16.8545 C   0  0  0  0  0  0  0  0  0  0  0  0
    5.1784    5.1511  -18.1988 C   0  0  2  0  0  0  0  0  0  0  0  0
    9.9548    1.1056  -13.8780 C   0  0  0  0  0  0  0  0  0  0  0  0
    3.9063   -3.0654  -17.7838 C   0  0  0  0  0  0  0  0  0  0  0  0
    9.5096   -4.2330  -16.9587 C   0  0  0  0  0  0  0  0  0  0  0  0
    4.7040    2.1165  -20.5813 C   0  0  0  0  0  0  0  0  0  0  0  0
    4.7820   -4.3239  -17.9308 C   0  0  0  0  0  0  0  0  0  0  0  0
    8.6703   -4.0737  -18.2403 C   0  0  0  0  0  0  0  0  0  0  0  0
    5.8945   -4.3640  -16.8682 C   0  0  0  0  0  0  0  0  0  0  0  0
    7.6297   -2.9447  -18.0974 C   0  0  0  0  0  0  0  0  0  0  0  0
    4.4522    4.0893  -19.0385 C   0  0  2  0  0  0  0  0  0  0  0  0
    5.4271    3.0250  -19.5720 C   0  0  1  0  0  0  0  0  0  0  0  0
    6.7008    7.0875  -18.2727 N   0  0  0  0  0  0  0  0  0  0  0  0
    5.9254    2.2029  -18.4564 N   0  0  0  0  0  0  0  0  0  0  0  0
    6.7459   -3.1400  -16.9126 N   0  0  0  0  0  0  0  0  0  0  0  0
    4.1430    6.0581  -17.6476 N   0  0  0  0  0  0  0  0  0  0  0  0
    8.9014    6.6786  -18.7862 O   0  0  0  0  0  0  0  0  0  0  0  0
    7.9753    3.1833  -18.2554 O   0  0  0  0  0  0  0  0  0  0  0  0
    6.2179   -2.5436  -14.7634 O   0  0  0  0  0  0  0  0  0  0  0  0
    3.7810    4.7274  -20.1285 O   0  0  0  0  0  0  0  0  0  0  0  0
    8.9269    0.2040  -22.2420 F   0  0  0  0  0  0  0  0  0  0  0  0
    5.3448   -2.7176  -20.9992 F   0  0  0  0  0  0  0  0  0  0  0  0
    9.7083   11.9184  -15.8872 H   0  0  0  0  0  0  0  0  0  0  0  0
    9.2989    9.8844  -14.5122 H   0  0  0  0  0  0  0  0  0  0  0  0
    9.3807   11.8459  -18.3535 H   0  0  0  0  0  0  0  0  0  0  0  0
    8.5488    7.7758  -15.6031 H   0  0  0  0  0  0  0  0  0  0  0  0
    8.6411    9.7358  -19.4477 H   0  0  0  0  0  0  0  0  0  0  0  0
    6.2858   -0.2473  -17.6202 H   0  0  0  0  0  0  0  0  0  0  0  0
    9.0553    2.6173  -15.9632 H   0  0  0  0  0  0  0  0  0  0  0  0
    8.6133   -1.2557  -14.1350 H   0  0  0  0  0  0  0  0  0  0  0  0
    7.2506    2.1319  -21.6072 H   0  0  0  0  0  0  0  0  0  0  0  0
    4.0667   -0.5114  -20.3862 H   0  0  0  0  0  0  0  0  0  0  0  0
    7.7657   -2.1376  -21.8785 H   0  0  0  0  0  0  0  0  0  0  0  0
    5.1143    8.4706  -18.5372 H   0  0  0  0  0  0  0  0  0  0  0  0
    6.1469    8.7639  -17.0969 H   0  0  0  0  0  0  0  0  0  0  0  0
    7.0425    5.2929  -19.3212 H   0  0  0  0  0  0  0  0  0  0  0  0
    5.7121    6.3143  -19.9643 H   0  0  0  0  0  0  0  0  0  0  0  0
    5.2380    6.7647  -15.9855 H   0  0  0  0  0  0  0  0  0  0  0  0
    3.8796    7.8171  -16.5086 H   0  0  0  0  0  0  0  0  0  0  0  0
    5.7124    4.6535  -17.3758 H   0  0  0  0  0  0  0  0  0  0  0  0
    9.4580    1.5651  -13.0108 H   0  0  0  0  0  0  0  0  0  0  0  0
   10.4919    0.2012  -13.5561 H   0  0  0  0  0  0  0  0  0  0  0  0
   10.6687    1.8207  -14.3128 H   0  0  0  0  0  0  0  0  0  0  0  0
    3.1241   -3.0700  -18.5572 H   0  0  0  0  0  0  0  0  0  0  0  0
    3.4378   -3.0590  -16.7886 H   0  0  0  0  0  0  0  0  0  0  0  0
    4.5318   -2.1680  -17.9004 H   0  0  0  0  0  0  0  0  0  0  0  0
   10.2392   -5.0446  -17.0961 H   0  0  0  0  0  0  0  0  0  0  0  0
   10.0417   -3.2932  -16.7499 H   0  0  0  0  0  0  0  0  0  0  0  0
    8.8471   -4.4746  -16.1145 H   0  0  0  0  0  0  0  0  0  0  0  0
    4.4743    2.6957  -21.4878 H   0  0  0  0  0  0  0  0  0  0  0  0
    3.7683    1.7518  -20.1324 H   0  0  0  0  0  0  0  0  0  0  0  0
    4.1479   -5.2157  -17.8182 H   0  0  0  0  0  0  0  0  0  0  0  0
    5.2418   -4.3247  -18.9300 H   0  0  0  0  0  0  0  0  0  0  0  0
    9.3409   -3.8377  -19.0797 H   0  0  0  0  0  0  0  0  0  0  0  0
    8.1463   -5.0191  -18.4443 H   0  0  0  0  0  0  0  0  0  0  0  0
    5.4335   -4.4415  -15.8725 H   0  0  0  0  0  0  0  0  0  0  0  0
    6.5278   -5.2452  -17.0486 H   0  0  0  0  0  0  0  0  0  0  0  0
    8.1591   -1.9864  -17.9903 H   0  0  0  0  0  0  0  0  0  0  0  0
    7.0069   -2.9202  -19.0038 H   0  0  0  0  0  0  0  0  0  0  0  0
    3.7152    3.5871  -18.3946 H   0  0  0  0  0  0  0  0  0  0  0  0
    6.2672    3.5258  -20.0753 H   0  0  0  0  0  0  0  0  0  0  0  0
    5.2985    1.5345  -18.0560 H   0  0  0  0  0  0  0  0  0  0  0  0
    3.5339    5.5243  -17.0611 H   0  0  0  0  0  0  0  0  0  0  0  0
    3.6205    6.4422  -18.4089 H   0  0  0  0  0  0  0  0  0  0  0  0
    3.3307    4.0736  -20.6502 H   0  0  0  0  0  0  0  0  0  0  0  0
  1  2  2  0
  1  3  1  0
  2  4  1  0
  3  5  2  0
  4 12  2  0
  5 12  1  0
  6 13  2  0
  6 14  1  0
  7 13  1  0
  7 15  2  0
  8 14  2  0
  8 15  1  0
  9 16  2  0
  9 17  1  0
 10 16  1  0
 10 18  2  0
 11 17  2  0
 11 18  1  0
 12 19  1  0
 13 20  1  0
 14 21  1  0
 15 26  1  0
 16 29  1  0
 17 44  1  0
 18 45  1  0
 19 36  1  0
 19 40  2  0
 20 37  1  0
 20 41  2  0
 21 38  1  0
 21 42  2  0
 22 24  1  0
 22 36  1  0
 23 25  1  0
 23 36  1  0
 24 39  1  0
 25 34  1  0
 25 39  1  0
 27 30  1  0
 28 31  1  0
 29 35  1  0
 30 32  1  0
 31 33  1  0
 32 38  1  0
 33 38  1  0
 34 35  1  0
 34 43  1  0
 35 37  1  0
  1 46  1  0
  2 47  1  0
  3 48  1  0
  4 49  1  0
  5 50  1  0
  6 51  1  0
  7 52  1  0
  8 53  1  0
  9 54  1  0
 10 55  1  0
 11 56  1  0
 22 57  1  0
 22 58  1  0
 23 59  1  0
 23 60  1  0
 24 61  1  0
 24 62  1  0
 25 63  1  1
 26 64  1  0
 26 65  1  0
 26 66  1  0
 27 67  1  0
 27 68  1  0
 27 69  1  0
 28 70  1  0
 28 71  1  0
 28 72  1  0
 29 73  1  0
 29 74  1  0
 30 75  1  0
 30 76  1  0
 31 77  1  0
 31 78  1  0
 32 79  1  0
 32 80  1  0
 33 81  1  0
 33 82  1  0
 34 83  1  1
 35 84  1  6
 37 85  1  0
 39 86  1  0
 39 87  1  0
 43 88  1  0
M  CHG  1  39   1
M  END
>  <OMEGA_C>  (152) 
vi8WQTsMMEFh5ILBHXQSQceeHUFgT3nBrTcTQX1mL0G8EY7B8rALQf6ICkEYloHBx4EMQVZSHEH+
BJPBsMfgQKx5pjxiCIfBcz8JQSMU0z9P337BEGgFQRBbDL8fc27BLNLbQDzgkD9ps6vBFuyhQD2X
ur4wRabB2gHlQGo/pL/y+6zBsroIQVrsCUG3xIzBc6nzQCQepz+mOYfBP8HsQGDTab9FOH7Ba7MO
QZ3rOz9OpG7BohmyQJ8McD+DoKfBzGv1QOTpozzFPq7BuCi7QCVsvL+EDqnBVCIBQeqf7ECr5JHB
2I/mQKiIEkA8XI/BdjXYQINnD8DWKX3BGFi1QIi5/0DBuY3BpXTGQNtXvkD/ZZjB316WQFlx5UAZ
1obBerWlQLTVpEAel5HB/UYfQYWEjT9SDF7BSAF6QEIvRMBIRY7BJScYQXZ0h8B9q4fByIaWQO90
B0CNpqTB7gWZQJ1disA9co/BhrkKQcRbgsAl7JHBDaC8QDimi8Ac8obBiSb0QMF1PMCGx5DBq3iO
QDbbgkDrTpjBbKqtQPCYQUCOk5zByGzWQKTM4kCTLpLBkZy9QKv7DECvppPBB97XQJv1SMDtTIfB
G5OEQF3cwUBGLo3BIGwOQUO31UAsSpbBVjX/QHS6S0ACC5LBI/nGQGDKIsAKN2zBV/xxQDtHl0Az
B6HBgdQOQZzgUD6O77HB6girQI3tLcBV/qfBNFUbQbuxPkH0MX7BScgUQYwmHkEoMmjBNxcWQbqI
PUH105LBBMgIQQzT+EB7pnnBwUEKQeDFG0HglJvBFCXJQBtCfb4r9ozBcuIQQXOBJ0AmaX/BB9AJ
QUS8oL/UKGLBtwToQMNxCECN26zBkCKCQPrqAr/5FqPBqID4QOfNCMAtB6/BnaijQLWHB0E4TJTB
ULPEQBY5DEF8xojBS1zhQJpfqUDekZrBxcm2QLwOykDatp/Bmp2nQCt42EClxH/BkEp4QA4m+kCU
EYTBwcu2QNrplECdAYvBxVMXQc1TyD9RLFDB2t4nQQkPTj6f5VjB2bIqQU8N6T9KAWXBFPFHQFl6
RMAedZTBDgVcQJHGQ8AWT4bBRASRQCrBCsAQNI/Bs9MjQXJtocDgxIjB26ogQVXDUsDf/4XB2Y0N
QQ4wj8Br6oDBsy2PQNWGLEAb56vBiytxQDY84D8nD6HBcLuEQAXnpsC+i47BLb2nQFFkisC5cJfB
LnQVQYCcdcBHo5jBLFcCQaScoMDTjZPBod+tQKQgjsCu9X3BGeTQQGXYp8COY4jBy4sCQZpD/r81
7I/BSjjgQHrkOsC9B5jBxsVtQMCTZUAgKJPBLY3IQBKmYUBImqDBBI2pQJJqxD+6cpDBwipiQC7H
sEAPfYjBiLZnQOUmzkBYRZPB+SlVQKpagkCTM6XBlSAVQSDXMEFIQYLBjjIRQYRJHkHsSHjBMVQS
QcF6MEFyco3BmHoKQRdYC0G5N4HBarILQUWHHUEmi5LBshfjQCgctz3IJofB9rEJQbXL3T8wcn7B
TVkGQU3p+L6Pm27BocHfQBZSmD+blavBowWmQO+uqr5ni6bBDCrqQIETnL933qzBY88HQV78CkHx
aozBpDX1QEcmsT+oJ4fBqlTvQEaDWr+Qsn7BQi8PQbNaTz8uU27BrsW1QFkAej9KvqfBvBP6QMIC
uT2TAa7BRQbAQAa7tr9rP6nB250AQV3P7kD+sZHB1vHnQIuQF0AsRI/BvBjbQKXUC8BMI37Bzb2z
QHWeAEEgBY7BgX3GQC7/v0AYkJjBA+mUQHuL5kA2MIfBOtulQIEEpkDX1JHBkjQfQe+pmD95P13B
oAsXQeRnksBoU4nB5m1rQDYBWMBYxYrBGGiZQKUmCUBu6KTBBGcUQcbOSsB+KY7BKqSbQFV2gsBs
CpDBFub5QLz8NsDYD5HBGTTBQNPIiMA1PIjB+IiPQNGVg0ArmZjBJ42vQEcrREClwZzBCoPVQOrG
5EDdU5LBEWu/QDI4EEB+xJPBTVzcQLoWRMAC4ofBSQaEQAOKwkBfi43BLkIOQRzW10DuyZXBHh4A
QVmvUUBM1ZHBFRzIQBkBIMBHuG3B3jF0QP+Ml0CTY6HBHzkRQXAqlT7jibHBSzCwQLV0K8CknajB
cEsaQbddP0HMtHzBwVcTQZ6dHkFGJGfBukUVQd67PkGeGpLB7GAHQfZE+kCMGnnBbJcJQRkwHUEU
HpvBi8PLQE4QN754J43BvgwRQTBwLUCBrH7BtNYKQWC3mb/OdGLB3pnrQCWGDEBVqKzBuAWGQP8/
/r62jaPBCkr+QAUfBMBwxq7BsR2iQIcOCEH6qpTB2GvCQOMqDUFID4nB/NrhQLB3q0C0oprBdfu2
QDBay0Bi75/BLg6mQAj/2UAWLIDB02h0QE3X+kAbhYTBAOS2QJ91lkBVL4vBVb0WQeM/0D9+eE/B
IgooQcNfmD65FljBe34qQXhD9z9KxGPBXf0nQQf4l8AVZYfBwmcNQa3llMBa/YHBy58RQUyDqsAX
I4/BYYg3QIpwUMA2pJDBuoZUQK6SfsAJ/YPBjZR/QIKhGMD64YfBI0KSQF/YLUDKM6zB69N2QLPl
4T85b6HBgPoZQdY6G8BDTojBijIeQRR2RsD/c5XBCyCRQID7ocDX8ZLB9aamQNMFXsDI1pbBl673
QGvP579mrJPB4g3wQD5TYcDapZfBUYe0QPY1j8ApL4DBpJ7UQOklpMBk5YrBLgZwQLhAZkCtgZPB
dWHKQMomZUAHsKDBqpyrQHfvyD9zrJDBKEFhQCgysUBB44jBp7tmQNhuzkCfsZPBGoJYQBVXgkCG
l6XBXvQVQdBgL0Fg3YLBGMYSQerSLkGOB47BUIoSQavXHEFFU3nBLCgMQWi6G0EiAJPBte0LQW+7
CUHxnYHBo/fgQCj1CTz6DYfBHkUJQWU+0j878H7BKrYFQcZID78OoW7BubDbQPVrkD+2nqvBZgai
QMG9xL5cU6bBjm/lQJpGpL/QAq3BQ8cIQd0yCUE7yIzBDKDzQNMFpj/NO4fBET/tQPIcbb8PVn7B
MuEOQfrdOT9byG7Ba/GxQH8tbD8Wl6fBtZT1QPHjxTwhMa7ByY67QB4Avr9+JKnB3SkBQeck60D/
4ZHB3S3mQL8iEkDBUI/BVpXYQMIQEMCfJn3BLju1QG0iAEHDko7BhkHGQNz9vUC815jBTHKXQChz
5kDXQ4fBdg2mQAnXpEC3wpHBLF0fQQ8kjT8tH17BooF6QBg3RMBfUo7BFGcYQdFkh8Akx4fB3xCW
QNIHBkBmkqTBW/CYQEWtisACYI/B+KkKQTH6gsCg8ZHBR3W8QM7wi8BW2IbBxfHzQAHaPcBfzZDB
C0GOQKx4gkAHP5jBfjetQEB6QEARiZzBSk3WQPMX40Cl5ZLBMkS9QA8GDEB3nJPBi/DXQFbqScBG
Q4fBVDmFQOwSwkAwQ43B9JAOQfpU0kDSeJXB+Yf+QOHzS0Ac9ZHBJE7HQI/QIsAYK2zBqCVwQKZn
lkCd7aDB4uoOQZADYT751bHBvrirQIUEL8ASJqjBxAQbQUUJPkGAG37BeWkVQaMJPUE4w5LBjf8U
QaVPHUE3OmjBxKwJQd1DG0E8jJvB6EYJQUAM90Bkw3nBzUbJQNqXhb7x9ozBLdEQQSREJ0A4dX/B
gkIKQU9sor+samLBJq7nQKNvCEC2uKzBiDWCQPtqCr87MaPBXSn5QHhyCMA7Eq/BorSiQOQeB0HJ
MJXBs5XEQBwCDUEE9onB7S/hQLAFqUBm/prBiRO2QMLsyEAZKqDBlrSpQNpU2kDhYIDBtsR6QGIu
+0AaaoTBxra3QIlFlUD+N4vBwlAXQWr/xj+tPVDBNBEoQSqSTj49AFnBfLQqQden6T/LAWXBnZNI
QGyURMCAhpTBgFpcQJrkQsAbX4bB/4aRQBI3C8BWUI/BPBkkQTpUocDG34jBpuYgQYNSUsBlRobB
owUOQZDWjsBn64DB412OQA38KkB9z6vBpaRwQEJa3D9r7qDB82KEQM3+psCYao7BsrynQAkoi8DU
W5fBNC0VQYFrd8CBw5jBMEwCQQ9jocCDaJPBFZ2tQFsTjsB6xH3BfI7QQFVPqMB/OIjBqmgCQepf
AMBSCJDB5M3fQLLUPMCxBJjBajduQC1YZUDR65LBFRfIQM1QYEDZl6DBSVWpQDjzwT9xapDBHPBk
QPVKsUA+UojBRFFnQFqjzUDQSpPBcKhSQBVAgUAU9KTBv44VQTeOLkGzBYHB3DYSQWxoG0E/lnbB
smgSQYIXL0FmMIzB1KoLQXTJCEEpuYDB4eMLQQ58HEGeopHBR0DjQIg22j0+wIbBNYIMQWNW2z/m
0YDBKsUIQYrF2L5aN2/BivbYQNVckj9kCq3B/FukQBpV0L6MmKXBUPXlQPQpob/kra3BCYUIQTJZ
CUFf5YvBX4H3QC9crj8F4ofBPRTwQE2bRr9BI33BxSYTQVz9UD8Qi3HBy3axQLQ/aT9w4afBiULz
QKBVcD3u4K/B+oW+QOu8vr8piqjBl/8AQc9t7EBbhJHBlNnoQCzyE0BLJpDBsJvWQOWt/L9q0HjB
yfO0QFAA/0AeYI3Bwj3GQPqWvkD5bpjBNL+WQGXP40BdgYbBtQumQPMtpEBuqZHBFSMkQVoQnT8M
oWHBgY5gQJgph8AZzorBeJ8XQZQGcsCw3ZfBeH+VQE6bBEB7m6TBQH2cQFhLZsCZ74vBPMsCQZIp
U8Cl0ZLBbQG7QGJ8hMC0LYPBfgIEQcgRX8ChpIbBCauOQKlfgkDOc5jBfZqtQOilQED14ZzB2yLW
QDXI4kCRDpLBEjS/QNxiDUAsA5TB1q/eQFKgTMBYf4HBdeiEQGebwEDo/IzBfmAOQaLx1UCA+pXB
zowAQTLiS0AvZ5PBkNO2QMpF67/IhG3BNvdxQJAal0CPF6HBAJ8MQYqvkD47u7TB6OWxQC4tMMAb
YabBZ4oaQSLXPEH5sXnBwawUQcQGG0G7fGXBMv8UQenEPUHFj5DBBRAJQXs79EAGsnjBtnkJQYvc
HEE5MJrBCubJQAVmNb6XKozBmkIUQWEiK0Cdl4HB76gNQS9djb9YumLBG/niQADQCUB3zq7BH0WG
QDWpFb8tl6HBZgD6QBbsBcAv76/BS7eiQMBFB0Fd0pPB5T/EQMjKC0H8XojBp0PhQGIWqkDiyJrB
XyG2QEi7ykAUpZ/BiZeoQKRm1kDmZn/BWv54QNf590Azg4PB8p+3QGvsk0AVNovBvJEcQetC3j8A
/VPBhassQXjLqj7C61vBFIovQf559D/mZWnBBRU2QB4QdcCKEpHBPqplQCIdqsCZoYvB7A5GQPOc
fsBw5ILBD9MWQfacacACmKDBphIlQd6XTMA+p5TBnwAaQZkSm8Bi/ZXB1SKMQHrGKEAFyavBvltx
QAjm1z9vmqDB9pWpQH0EdsA73ZPBTciZQCxnIMASIIvBNGcAQScID8Bxr5TBWarqQHuVeMCUBZbB
Li+pQCNbiMCkTXfB6tnHQACoo8B0tYXB+I8IQfLNkMB044TBCDIQQZ1rM8A2ZYPBg1xuQKZHZEA0
TpPBe6nHQIWoYECFPaHBvNGrQLalxT+hhJDBnJFjQH/6rkDTU4jBKpVnQKlIzUBQ9ZLBZApVQNFS
gkCKTKXB

>  <OMEGA_E>  (152) 
QCXQPKBOxT2AS5c82Gm0Pg==

>  <OMEGA_NBR>  (152) 
      9660

$$$$
50162005
     RDKit          3D

 93 96  0  0  1  0  0  0  0  0999 V2000
    5.6589   10.6787  -20.7056 C   0  0  0  0  0  0  0  0  0  0  0  0
    5.6927   10.0961  -21.9860 C   0  0  0  0  0  0  0  0  0  0  0  0
    6.3516   10.0756  -19.6433 C   0  0  0  0  0  0  0  0  0  0  0  0
    7.0006    0.0462  -16.8603 C   0  0  0  0  0  0  0  0  0  0  0  0
    8.6254    1.6810  -16.0487 C   0  0  0  0  0  0  0  0  0  0  0  0
    8.4469   -0.4971  -14.9708 C   0  0  0  0  0  0  0  0  0  0  0  0
    6.7136    1.1198  -21.4536 C   0  0  0  0  0  0  0  0  0  0  0  0
    4.9788   -0.4180  -20.6803 C   0  0  0  0  0  0  0  0  0  0  0  0
    7.1226    8.3121  -21.1427 C   0  0  0  0  0  0  0  0  0  0  0  0
    7.0563   -1.2890  -21.6144 C   0  0  0  0  0  0  0  0  0  0  0  0
    7.5938    1.3283  -16.9468 C   0  0  0  0  0  0  0  0  0  0  0  0
    7.4424   -0.8761  -15.8852 C   0  0  0  0  0  0  0  0  0  0  0  0
    9.0308    0.7819  -15.0438 C   0  0  0  0  0  0  0  0  0  0  0  0
    5.4420    0.8977  -20.8821 C   0  0  0  0  0  0  0  0  0  0  0  0
    6.4321    8.9018  -22.2098 C   0  0  0  0  0  0  0  0  0  0  0  0
    7.5236    0.0265  -21.8090 C   0  0  0  0  0  0  0  0  0  0  0  0
    5.7809   -1.5092  -21.0561 C   0  0  0  0  0  0  0  0  0  0  0  0
    7.0817    8.8895  -19.8639 C   0  0  0  0  0  0  0  0  0  0  0  0
    7.1326    2.2963  -17.9593 C   0  0  0  0  0  0  0  0  0  0  0  0
    6.7974   -2.1984  -15.7453 C   0  0  0  0  0  0  0  0  0  0  0  0
    5.3163    7.8714  -17.2909 C   0  0  0  0  0  0  0  0  0  0  0  0
    5.9717    5.9587  -18.7919 C   0  0  0  0  0  0  0  0  0  0  0  0
    4.2876    6.9643  -16.6190 C   0  0  0  0  0  0  0  0  0  0  0  0
    4.9076    5.0937  -18.0768 C   0  0  2  0  0  0  0  0  0  0  0  0
   10.1345    1.1657  -14.0830 C   0  0  0  0  0  0  0  0  0  0  0  0
    9.6194   -3.9560  -16.9733 C   0  0  0  0  0  0  0  0  0  0  0  0
    3.8467   -3.0063  -17.7108 C   0  0  0  0  0  0  0  0  0  0  0  0
    5.7447    8.8136  -24.5145 C   0  0  0  0  0  0  0  0  0  0  0  0
    4.5614    2.0641  -20.5048 C   0  0  0  0  0  0  0  0  0  0  0  0
    8.6079   -4.0853  -18.1236 C   0  0  0  0  0  0  0  0  0  0  0  0
    4.6728   -4.3060  -17.7543 C   0  0  0  0  0  0  0  0  0  0  0  0
    7.5183   -2.9950  -18.0439 C   0  0  0  0  0  0  0  0  0  0  0  0
    5.7899   -4.3047  -16.6915 C   0  0  0  0  0  0  0  0  0  0  0  0
    4.2603    4.0535  -19.0037 C   0  0  2  0  0  0  0  0  0  0  0  0
    5.2746    3.0213  -19.5269 C   0  0  1  0  0  0  0  0  0  0  0  0
    6.4152    7.0661  -17.9018 N   0  0  0  0  0  0  0  0  0  0  0  0
    5.8155    2.2350  -18.4027 N   0  0  0  0  0  0  0  0  0  0  0  0
    6.6799   -3.1133  -16.8166 N   0  0  0  0  0  0  0  0  0  0  0  0
    3.8191    5.9552  -17.5758 N   0  0  0  0  0  0  0  0  0  0  0  0
    7.9067    3.1446  -18.3897 O   0  0  0  0  0  0  0  0  0  0  0  0
    6.3417   -2.4771  -14.6413 O   0  0  0  0  0  0  0  0  0  0  0  0
    8.1173    8.9505  -17.4364 O   0  0  0  0  0  0  0  0  0  0  0  0
    8.7580    7.0358  -18.9941 O   0  0  0  0  0  0  0  0  0  0  0  0
    3.6343    4.7207  -20.1020 O   0  0  0  0  0  0  0  0  0  0  0  0
    6.5079    8.2522  -23.4291 O   0  0  0  0  0  0  0  0  0  0  0  0
    8.7454    0.2411  -22.3463 F   0  0  0  0  0  0  0  0  0  0  0  0
    5.3212   -2.7686  -20.8886 F   0  0  0  0  0  0  0  0  0  0  0  0
    7.7542    7.9772  -18.4750 S   0  0  0  0  0  0  0  0  0  0  0  0
    5.1009   11.5884  -20.5400 H   0  0  0  0  0  0  0  0  0  0  0  0
    5.1555   10.5574  -22.8015 H   0  0  0  0  0  0  0  0  0  0  0  0
    6.3253   10.5195  -18.6591 H   0  0  0  0  0  0  0  0  0  0  0  0
    6.2084   -0.2280  -17.5412 H   0  0  0  0  0  0  0  0  0  0  0  0
    9.1055    2.6448  -16.1333 H   0  0  0  0  0  0  0  0  0  0  0  0
    8.7702   -1.1921  -14.2099 H   0  0  0  0  0  0  0  0  0  0  0  0
    7.0639    2.1281  -21.6178 H   0  0  0  0  0  0  0  0  0  0  0  0
    4.0086   -0.5875  -20.2374 H   0  0  0  0  0  0  0  0  0  0  0  0
    7.6899    7.4075  -21.3051 H   0  0  0  0  0  0  0  0  0  0  0  0
    7.6757   -2.1286  -21.8932 H   0  0  0  0  0  0  0  0  0  0  0  0
    4.8198    8.4589  -18.0772 H   0  0  0  0  0  0  0  0  0  0  0  0
    5.7429    8.5516  -16.5390 H   0  0  0  0  0  0  0  0  0  0  0  0
    6.8373    5.3307  -19.0497 H   0  0  0  0  0  0  0  0  0  0  0  0
    5.5390    6.3817  -19.7105 H   0  0  0  0  0  0  0  0  0  0  0  0
    4.7502    6.4631  -15.7559 H   0  0  0  0  0  0  0  0  0  0  0  0
    3.4343    7.5689  -16.2778 H   0  0  0  0  0  0  0  0  0  0  0  0
    5.3844    4.5717  -17.2342 H   0  0  0  0  0  0  0  0  0  0  0  0
    9.6974    1.6418  -13.1929 H   0  0  0  0  0  0  0  0  0  0  0  0
   10.6883    0.2642  -13.7819 H   0  0  0  0  0  0  0  0  0  0  0  0
   10.8208    1.8702  -14.5757 H   0  0  0  0  0  0  0  0  0  0  0  0
   10.3790   -4.7467  -17.0616 H   0  0  0  0  0  0  0  0  0  0  0  0
   10.1076   -2.9715  -17.0233 H   0  0  0  0  0  0  0  0  0  0  0  0
    9.0955   -4.0570  -16.0113 H   0  0  0  0  0  0  0  0  0  0  0  0
    3.0621   -3.0440  -18.4808 H   0  0  0  0  0  0  0  0  0  0  0  0
    3.3824   -2.9002  -16.7193 H   0  0  0  0  0  0  0  0  0  0  0  0
    4.5059   -2.1465  -17.9010 H   0  0  0  0  0  0  0  0  0  0  0  0
    5.8920    8.2062  -25.4197 H   0  0  0  0  0  0  0  0  0  0  0  0
    4.6776    8.8203  -24.2473 H   0  0  0  0  0  0  0  0  0  0  0  0
    6.0814    9.8433  -24.7052 H   0  0  0  0  0  0  0  0  0  0  0  0
    4.2940    2.6190  -21.4162 H   0  0  0  0  0  0  0  0  0  0  0  0
    3.6474    1.6815  -20.0271 H   0  0  0  0  0  0  0  0  0  0  0  0
    9.1410   -3.9886  -19.0809 H   0  0  0  0  0  0  0  0  0  0  0  0
    8.1289   -5.0740  -18.0689 H   0  0  0  0  0  0  0  0  0  0  0  0
    4.0047   -5.1600  -17.5689 H   0  0  0  0  0  0  0  0  0  0  0  0
    5.1282   -4.4063  -18.7506 H   0  0  0  0  0  0  0  0  0  0  0  0
    8.0055   -2.0088  -18.0443 H   0  0  0  0  0  0  0  0  0  0  0  0
    6.8667   -3.0824  -18.9258 H   0  0  0  0  0  0  0  0  0  0  0  0
    5.3295   -4.3006  -15.6925 H   0  0  0  0  0  0  0  0  0  0  0  0
    6.3959   -5.2148  -16.8122 H   0  0  0  0  0  0  0  0  0  0  0  0
    3.4973    3.5130  -18.4243 H   0  0  0  0  0  0  0  0  0  0  0  0
    6.0874    3.5422  -20.0542 H   0  0  0  0  0  0  0  0  0  0  0  0
    5.1923    1.6149  -17.9261 H   0  0  0  0  0  0  0  0  0  0  0  0
    3.1376    5.3791  -17.1246 H   0  0  0  0  0  0  0  0  0  0  0  0
    3.3983    6.4229  -18.3531 H   0  0  0  0  0  0  0  0  0  0  0  0
    3.2335    4.0787  -20.6762 H   0  0  0  0  0  0  0  0  0  0  0  0
  1  2  2  0
  1  3  1  0
  2 15  1  0
  3 18  2  0
  4 11  2  0
  4 12  1  0
  5 11  1  0
  5 13  2  0
  6 12  2  0
  6 13  1  0
  7 14  2  0
  7 16  1  0
  8 14  1  0
  8 17  2  0
  9 15  2  0
  9 18  1  0
 10 16  2  0
 10 17  1  0
 11 19  1  0
 12 20  1  0
 13 25  1  0
 14 29  1  0
 15 45  1  0
 16 46  1  0
 17 47  1  0
 18 48  1  0
 19 37  1  0
 19 40  2  0
 20 38  1  0
 20 41  2  0
 21 23  1  0
 21 36  1  0
 22 24  1  0
 22 36  1  0
 23 39  1  0
 24 34  1  0
 24 39  1  0
 26 30  1  0
 27 31  1  0
 28 45  1  0
 29 35  1  0
 30 32  1  0
 31 33  1  0
 32 38  1  0
 33 38  1  0
 34 35  1  0
 34 44  1  0
 35 37  1  0
 36 48  1  0
 42 48  2  0
 43 48  2  0
  1 49  1  0
  2 50  1  0
  3 51  1  0
  4 52  1  0
  5 53  1  0
  6 54  1  0
  7 55  1  0
  8 56  1  0
  9 57  1  0
 10 58  1  0
 21 59  1  0
 21 60  1  0
 22 61  1  0
 22 62  1  0
 23 63  1  0
 23 64  1  0
 24 65  1  1
 25 66  1  0
 25 67  1  0
 25 68  1  0
 26 69  1  0
 26 70  1  0
 26 71  1  0
 27 72  1  0
 27 73  1  0
 27 74  1  0
 28 75  1  0
 28 76  1  0
 28 77  1  0
 29 78  1  0
 29 79  1  0
 30 80  1  0
 30 81  1  0
 31 82  1  0
 31 83  1  0
 32 84  1  0
 32 85  1  0
 33 86  1  0
 33 87  1  0
 34 88  1  1
 35 89  1  6
 37 90  1  0
 39 91  1  0
 39 92  1  0
 44 93  1  0
M  CHG  1  39   1
M  END
>  <OMEGA_C>  (153) 
kxW1QMfbKkEHpaXBvyq2QMuJIUFC46/BbkDLQMY1IUGDJZ3BOgXgQIALPT3f4YbBwQEKQe0r1z/Q
Y4DBYSYHQZSC/r5AiG/BatXWQJ5Vjz8RoavBtVKfQBAA1r5LcaXBHezjQEX+BEFSJKnB4czhQKX9
pL9L6qzBPgDzQJcEqj8ik4fBvCfuQCpKYL+iKX7B+30QQT8pSD9fs3DB4SSuQGrSZT91DqfBI9TN
QJ5tDkG/rbHBAsHwQABd2TzaeK7BJv24QCcuwb/5cqjB+JziQF47DkEw6Z7BPj7kQCr2EkCdrI/B
h4TZQFCyDMDZ7HvBCx+qQE7i+0C2U4rBehi/QICtvkDEVZbBMDSJQLvb3kCj84TBwwqdQNr/okBR
nZDB/SYiQSg2lT8QVGHBHukZQYQvfcA8yYfBMjB2QPxnQMC7r43BMdS3QIwEDUHAHcTB2vaRQKYa
BEDqCaTB6bkJQf+6gsAU/ZDBxoeVQOTKicDnCI7BjpXwQMCtP8DYWZDBJEe5QGrAicAciIXBbFSI
QKG2gUCDB5jBPMmoQLJdQUAqN5zBeUnNQGgd4kDiNo/BeBi6QAwLD0C+OJPBb8HVQBZBR8BTiIbB
umx0QB6RvkBGm4zBCgT9QEBBSUARHpPBbu/KQBaIHsClQmrBjOABQVo1D0HCfYvBoCAMQXsl4UAE
9JfB6pdoQOgPl0DS0KDBdEDQQNMIBEGzbrvBA+0LQRbfdj5GxbLB9EaqQOQwMcDkG6fBUyL4QOlE
/0DkzJPBOzqjQABqOUHyUaTB0PmkQBLrKEFnabbB72jKQPJPKEHZRZXBmavGQEhsab53VIzBErAR
Qe5DKUDoEIHBjFIMQcSWmL/uW2PBKwviQEEzCEBR8azBHkaAQAZmFr8i5qHBVxP2QHkK7UDrcKrB
jJ/1QPk6CMA8Ja/BLzyaQM1XB0EenpDBqcW3QFXTCEHdT4TB58raQO6UqkDLZZjBsD+xQLw2zEAQ
r53B4QGYQO/RzkBdGHzB7stbQFU08kD3OILBSk2sQCJLkkCW34nBsCgbQVEl0j8VFlPBUQMrQUVK
hz7MglzBBiItQYNh7z8yNmnBchAmQR3ll8A7fojBmbghQdYtPsDRL4jB/oYRQbfSgcA8F4DBvPhD
QITRQsC62JPB83hYQAydOcAOwYXB7y+QQB1gCcAoNY/BiYu8QLNMA0GTW8vBCa+VQAQgDUGM+sHB
l5rCQCh+HUFEpMXBa2iJQB6dJ0B5VKvBFW9pQBY81z91N6DBdEESQXJFf8CrpZjB2Q8CQYVeosAV
jZDBwSaAQKsepcAxjYzBNxqkQDMAjcBLAZbBnxYAQQKQAMDBWpDB/bvbQIlGRcAQaJfBVIuqQOWe
icBWFHvBXqvMQKDfpsBYf4bBCdNfQLLVYEAPZZPB2cvCQMGzYkACb6DBoCemQLq1zj+3aI/BJM5I
QKkhrEA0/4jBtn1ZQJ6IzUAd05LB9vBOQOeEgkDRaKXBdnu1QFKpK0EWLqXBYfS0QOW3IkE4ga/B
BgHMQDhoIUHk7ZzBmDDgQMDzPj1s9YbBaGcJQdIy2T+DDoDBtloGQfzk974R/W7BrA3YQC5glD/n
vavB9NmgQKofy74BraXBysThQMFIBUGlVKnBkfrjQJB/n7+D8azBpb/yQKj2qj8YeYfBs4TtQPLd
Xr+xE37BYPAPQb60ST/ONHDBRT6vQJyHbD9PRqfBtErLQOlZD0G5obHBXovyQGAGmD2id67BUQq7
QFVhvb/FmKjBlCLiQM8zDkEaBJ/B90HkQCiHE0Blk4/BI+jYQDZyDMAXIHzByVurQBOy+0CbN4rB
aM2+QPxyvkDMWpbB4veJQHkS30Au2ITB8hydQLzpokDDfpDBy00gQdSAmj/8sF/Bdp93QK7cQMAy
TY7B/TEaQTRcfcBaQYfBXsG1QO/hD0HQHsTBe7WSQDc3BUAEN6TB7uiWQOiVicBbp47B6I8KQSR9
gsCes5DBHLW5QK6eicCJ6IXBKUjyQAwKP8AiRpDBCFaIQDtOgUA705fBWxGpQBqrQUA+NpzBNOXN
QDyb4UAVTY/Bznm6QMxHDkACV5PB6zzWQFjlRsAyq4bBTBN1QBbFvkAUdozBVcf8QF41S0CzxpLB
3TXJQGRNHsDXs2rBuOICQUl0DkHR3ovBgNcLQXP630ARrpjB0FdmQGFslkByeaDBs9TLQBtJBUGu
fbvBLPIMQasemj5ulLLBYcCsQNiXL8AyRKfB1pP4QOZW/kBdKpTBKpSkQF5mOkF0mqPBGYWjQISW
KkG417XB5GDMQPk4KEF//ZTBEMXHQHZXcr4Oo4zB7a4QQR0xK0D3fIDB0fgKQWN0lb9DbmLBv+ri
QPzxCkCJEK3BNrmBQKabE792NaLBFeTyQM4w7UAN4KrBXTL4QDQRBcB9G6/BHpmbQAOWB0EAZpDB
9q25QAhrCEH6KITBCinaQHsxqkA+mJjBl2WwQMA3zEDXm53B2oOYQBz2zkBp1XvBLshdQCLP8kD0
JYLB8KmsQJ13kkBuwYnBrx8YQXgH1j+9/1HBuDwpQdGSpT6YNVrB8nUrQRsa9z+z2mbBMc9GQNMe
Q8DnopTB+hZYQImsO8DfdYbB8aKQQO/+CMDVjY/BtVkmQT0JmMAy0ofB7REiQYZtPsAjfYfBAVoR
QQsOgsA+Y3/B65+4QLdEBkHXdMvBJsGTQGi5EUGYCcLB8QjEQFa/H0Gic8XBhnCKQFmBKUB8d6vB
yaZqQKwf2D8rh6DBhs2BQHBVpcCicI3B+mSmQKP+i8CXiJbBOo0TQbSBfsBKOZjBTtUCQSMYosDG
bZDBAxiqQB2kicD5CnzByD3NQP+ypsDsxIbB+fkAQakDAMCEHJDBsUveQMguRMBCfZfB50lhQBYP
X0D3EZPBofnCQOYzZEBHUaDBI9OmQIdByT+sxI/BvlxJQACIrECezojBaBJaQLHBzUDvq5LBiZpM
QDa6gUBuBKXB

>  <OMEGA_E>  (153) 
YDIfPgC1GD4=

>  <OMEGA_NBR>  (153) 
      3203

$$$$
50162051
     RDKit          3D

 89 92  0  0  1  0  0  0  0  0999 V2000
    5.7377   10.1264  -22.2943 C   0  0  0  0  0  0  0  0  0  0  0  0
    5.6301   10.7028  -21.0130 C   0  0  0  0  0  0  0  0  0  0  0  0
    6.4501    8.9229  -22.4691 C   0  0  0  0  0  0  0  0  0  0  0  0
    6.2409   10.0805  -19.9077 C   0  0  0  0  0  0  0  0  0  0  0  0
    7.0572    8.2962  -21.3633 C   0  0  0  0  0  0  0  0  0  0  0  0
    6.9767   -0.0085  -16.8264 C   0  0  0  0  0  0  0  0  0  0  0  0
    8.5437    1.6106  -15.8817 C   0  0  0  0  0  0  0  0  0  0  0  0
    8.3280   -0.6027  -14.8837 C   0  0  0  0  0  0  0  0  0  0  0  0
    6.8471    1.2226  -21.4059 C   0  0  0  0  0  0  0  0  0  0  0  0
    5.1009   -0.3527  -20.7419 C   0  0  0  0  0  0  0  0  0  0  0  0
    7.2192   -1.1775  -21.6249 C   0  0  0  0  0  0  0  0  0  0  0  0
    7.5629    1.2793  -16.8422 C   0  0  0  0  0  0  0  0  0  0  0  0
    7.3736   -0.9582  -15.8594 C   0  0  0  0  0  0  0  0  0  0  0  0
    8.9040    0.6822  -14.8860 C   0  0  0  0  0  0  0  0  0  0  0  0
    5.5578    0.9724  -20.8862 C   0  0  0  0  0  0  0  0  0  0  0  0
    7.6807    0.1471  -21.7633 C   0  0  0  0  0  0  0  0  0  0  0  0
    5.9262   -1.4250  -21.1213 C   0  0  0  0  0  0  0  0  0  0  0  0
    6.9631    8.8796  -20.0801 C   0  0  0  0  0  0  0  0  0  0  0  0
    7.1376    2.2765  -17.8414 C   0  0  0  0  0  0  0  0  0  0  0  0
    6.7258   -2.2848  -15.7928 C   0  0  0  0  0  0  0  0  0  0  0  0
    5.3456    7.9059  -17.2703 C   0  0  0  0  0  0  0  0  0  0  0  0
    5.9856    5.9653  -18.7522 C   0  0  0  0  0  0  0  0  0  0  0  0
    4.3641    6.9824  -16.5409 C   0  0  0  0  0  0  0  0  0  0  0  0
    4.9559    5.0981  -17.9906 C   0  0  2  0  0  0  0  0  0  0  0  0
    9.9495    1.0441  -13.8546 C   0  0  0  0  0  0  0  0  0  0  0  0
    9.5858   -4.0155  -16.9448 C   0  0  0  0  0  0  0  0  0  0  0  0
    3.8346   -3.0617  -17.9202 C   0  0  0  0  0  0  0  0  0  0  0  0
    4.6553    2.1178  -20.4914 C   0  0  0  0  0  0  0  0  0  0  0  0
    8.6302   -4.0975  -18.1464 C   0  0  0  0  0  0  0  0  0  0  0  0
    4.6955   -4.3380  -17.9735 C   0  0  0  0  0  0  0  0  0  0  0  0
    7.5429   -3.0029  -18.0833 C   0  0  0  0  0  0  0  0  0  0  0  0
    5.7545   -4.3533  -16.8531 C   0  0  0  0  0  0  0  0  0  0  0  0
    4.3031    4.0439  -18.9009 C   0  0  2  0  0  0  0  0  0  0  0  0
    5.3314    3.0363  -19.4527 C   0  0  1  0  0  0  0  0  0  0  0  0
    6.4287    7.1237  -17.9390 N   0  0  0  0  0  0  0  0  0  0  0  0
    5.8450    2.2075  -18.3486 N   0  0  0  0  0  0  0  0  0  0  0  0
    6.6440   -3.1557  -16.9032 N   0  0  0  0  0  0  0  0  0  0  0  0
    3.8737    5.9510  -17.4634 N   0  0  0  0  0  0  0  0  0  0  0  0
    7.9146    3.1545  -18.2017 O   0  0  0  0  0  0  0  0  0  0  0  0
    6.2317   -2.6060  -14.7172 O   0  0  0  0  0  0  0  0  0  0  0  0
    8.0691    9.0937  -17.6704 O   0  0  0  0  0  0  0  0  0  0  0  0
    8.7179    7.1155  -19.1336 O   0  0  0  0  0  0  0  0  0  0  0  0
    3.6319    4.7015  -19.9787 O   0  0  0  0  0  0  0  0  0  0  0  0
    8.9212    0.3871  -22.2447 F   0  0  0  0  0  0  0  0  0  0  0  0
    5.4726   -2.6925  -21.0076 F   0  0  0  0  0  0  0  0  0  0  0  0
    7.6985    8.0527  -18.6388 S   0  0  0  0  0  0  0  0  0  0  0  0
    5.2741   10.6072  -23.1430 H   0  0  0  0  0  0  0  0  0  0  0  0
    5.0790   11.6219  -20.8789 H   0  0  0  0  0  0  0  0  0  0  0  0
    6.5304    8.4810  -23.4513 H   0  0  0  0  0  0  0  0  0  0  0  0
    6.1569   10.5226  -18.9259 H   0  0  0  0  0  0  0  0  0  0  0  0
    7.5951    7.3692  -21.4966 H   0  0  0  0  0  0  0  0  0  0  0  0
    6.2233   -0.2660  -17.5561 H   0  0  0  0  0  0  0  0  0  0  0  0
    9.0194    2.5798  -15.9108 H   0  0  0  0  0  0  0  0  0  0  0  0
    8.6187   -1.3201  -14.1305 H   0  0  0  0  0  0  0  0  0  0  0  0
    7.1926    2.2385  -21.5288 H   0  0  0  0  0  0  0  0  0  0  0  0
    4.1169   -0.5442  -20.3399 H   0  0  0  0  0  0  0  0  0  0  0  0
    7.8566   -2.0032  -21.9049 H   0  0  0  0  0  0  0  0  0  0  0  0
    4.7982    8.4828  -18.0303 H   0  0  0  0  0  0  0  0  0  0  0  0
    5.7981    8.5952  -16.5423 H   0  0  0  0  0  0  0  0  0  0  0  0
    6.8607    5.3464  -18.9993 H   0  0  0  0  0  0  0  0  0  0  0  0
    5.5245    6.3353  -19.6798 H   0  0  0  0  0  0  0  0  0  0  0  0
    4.8754    6.5017  -15.6939 H   0  0  0  0  0  0  0  0  0  0  0  0
    3.5143    7.5734  -16.1687 H   0  0  0  0  0  0  0  0  0  0  0  0
    5.4660    4.5873  -17.1605 H   0  0  0  0  0  0  0  0  0  0  0  0
    9.4596    1.4880  -12.9754 H   0  0  0  0  0  0  0  0  0  0  0  0
   10.4948    0.1381  -13.5519 H   0  0  0  0  0  0  0  0  0  0  0  0
   10.6547    1.7695  -14.2865 H   0  0  0  0  0  0  0  0  0  0  0  0
   10.3442   -4.8083  -17.0241 H   0  0  0  0  0  0  0  0  0  0  0  0
   10.0814   -3.0335  -16.9371 H   0  0  0  0  0  0  0  0  0  0  0  0
    9.0154   -4.1456  -16.0133 H   0  0  0  0  0  0  0  0  0  0  0  0
    3.0924   -3.0852  -18.7316 H   0  0  0  0  0  0  0  0  0  0  0  0
    3.3168   -3.0090  -16.9511 H   0  0  0  0  0  0  0  0  0  0  0  0
    4.4801   -2.1790  -18.0394 H   0  0  0  0  0  0  0  0  0  0  0  0
    4.4139    2.7083  -21.3876 H   0  0  0  0  0  0  0  0  0  0  0  0
    3.7289    1.7109  -20.0599 H   0  0  0  0  0  0  0  0  0  0  0  0
    9.2098   -3.9720  -19.0728 H   0  0  0  0  0  0  0  0  0  0  0  0
    8.1438   -5.0841  -18.1490 H   0  0  0  0  0  0  0  0  0  0  0  0
    4.0415   -5.2151  -17.8590 H   0  0  0  0  0  0  0  0  0  0  0  0
    5.2049   -4.3850  -18.9473 H   0  0  0  0  0  0  0  0  0  0  0  0
    8.0347   -2.0206  -18.0269 H   0  0  0  0  0  0  0  0  0  0  0  0
    6.9352   -3.0567  -18.9986 H   0  0  0  0  0  0  0  0  0  0  0  0
    5.2412   -4.3732  -15.8804 H   0  0  0  0  0  0  0  0  0  0  0  0
    6.3713   -5.2577  -16.9607 H   0  0  0  0  0  0  0  0  0  0  0  0
    3.5697    3.4849  -18.3010 H   0  0  0  0  0  0  0  0  0  0  0  0
    6.1557    3.5838  -19.9332 H   0  0  0  0  0  0  0  0  0  0  0  0
    5.2186    1.5475  -17.9338 H   0  0  0  0  0  0  0  0  0  0  0  0
    3.2183    5.3726  -16.9775 H   0  0  0  0  0  0  0  0  0  0  0  0
    3.4168    6.3996  -18.2315 H   0  0  0  0  0  0  0  0  0  0  0  0
    3.2274    4.0531  -20.5431 H   0  0  0  0  0  0  0  0  0  0  0  0
  1  2  2  0
  1  3  1  0
  2  4  1  0
  3  5  2  0
  4 18  2  0
  5 18  1  0
  6 12  2  0
  6 13  1  0
  7 12  1  0
  7 14  2  0
  8 13  2  0
  8 14  1  0
  9 15  2  0
  9 16  1  0
 10 15  1  0
 10 17  2  0
 11 16  2  0
 11 17  1  0
 12 19  1  0
 13 20  1  0
 14 25  1  0
 15 28  1  0
 16 44  1  0
 17 45  1  0
 18 46  1  0
 19 36  1  0
 19 39  2  0
 20 37  1  0
 20 40  2  0
 21 23  1  0
 21 35  1  0
 22 24  1  0
 22 35  1  0
 23 38  1  0
 24 33  1  0
 24 38  1  0
 26 29  1  0
 27 30  1  0
 28 34  1  0
 29 31  1  0
 30 32  1  0
 31 37  1  0
 32 37  1  0
 33 34  1  0
 33 43  1  0
 34 36  1  0
 35 46  1  0
 41 46  2  0
 42 46  2  0
  1 47  1  0
  2 48  1  0
  3 49  1  0
  4 50  1  0
  5 51  1  0
  6 52  1  0
  7 53  1  0
  8 54  1  0
  9 55  1  0
 10 56  1  0
 11 57  1  0
 21 58  1  0
 21 59  1  0
 22 60  1  0
 22 61  1  0
 23 62  1  0
 23 63  1  0
 24 64  1  1
 25 65  1  0
 25 66  1  0
 25 67  1  0
 26 68  1  0
 26 69  1  0
 26 70  1  0
 27 71  1  0
 27 72  1  0
 27 73  1  0
 28 74  1  0
 28 75  1  0
 29 76  1  0
 29 77  1  0
 30 78  1  0
 30 79  1  0
 31 80  1  0
 31 81  1  0
 32 82  1  0
 32 83  1  0
 33 84  1  1
 34 85  1  6
 36 86  1  0
 38 87  1  0
 38 88  1  0
 43 89  1  0
M  CHG  1  38   1
M  END
>  <OMEGA_C>  (154) 
i5u3QKgFIkGuWrLBbym0QJI+K0GlGqjB32bOQDnEDkHGwLPBj7XHQK1JIUHzQp/B9tThQFS9BEEh
6KrBB0HfQBjjC7xsnIbBErMIQX8nzj9cG37Bgj8FQYFKGr+oI27BPRvbQD1/nD9XP6vBQTqjQBCV
tL5g76XBkQPnQKO5lr/Q/6zBUQPyQHnAoz/kvIbBkPTrQLdOdb/3v33Bo3YOQeeiLj8hLW7BG9mx
QO/weD8DF6fBBMj1QGipFj5UG67BiqO9QNZmtr9c+KjBntHeQPsSDkEEpKDBgGfkQLOxEUAgu47B
DTrXQMo6EsBtr3zBZQ+rQBX9/ECYKYrBoom/QFbjvkCUBJbBfqaLQNZv30DSU4TBGJeeQLQjo0Cp
7I/B8zAfQVimhT9orF3BXl8ZQaB+gMD/jofBlWp1QC/yQ8B5XI/BmfiUQC6KB0Bz7qPBKRUKQbIe
g8C/K5HBXkGWQNjQisCtyY/BgF/xQKsvQMCPqpDB1yS4QHxOi8Ac04bBoLKJQIFngUACNZfBN5uq
QGhSQkAan5vB+7fNQEf140Aqg4/Bcgq7QLJHDUDZyZLBopvUQML2ScDMOYfBCOp3QFNuvkDxtIvB
U0T9QOziSUAcnZHBdmrHQDXJJsDJeWvBIhsBQa1/EUH8XI3BrnwLQdux40CjEZnBFnFoQHhylkBj
1J/BMr0OQbouxj4t9bHBnh+vQIhRLMCJD6jBRFr2QL3XAEFZHJXBP8WoQPm2KUHIJLnB8YaiQCLz
OUHyB6fBA/nQQDSyB0FFnLvBXQXFQKRcKEFLaJfB8wrzQHfQ60D++KvBaiXHQBs0iL7zcozBYk8Q
Qa0aJUC1kn7BS+YJQar3qL+iFmLBFyrmQNJCD0D3OqzByb2DQAtPC78cuKLBK2n7QLk0AMApPa/B
5oqZQIS5B0H2PZDBa4q5QACGCUGJVoTBQovbQL8Vq0Ci/pfBbMiwQMK6ykBUcJ3BmwOcQPYN0EBF
GnvBmOpgQKtZ8kBqWYHBKOmuQAXLkkDGSInBkFoXQdZ2vj8Wm0/B0uonQVdkDT6h1FjBhnkqQTF/
4j9VlWTB2oElQTPdmcBDMYjBm00hQbYkQsAof4fBHD8QQfuohMA/G4DBPOlFQF90RcBc2pXB1kVU
QDiUQMDfm4fB71yPQPNzC8CXUJDB+T6NQDFULUDEGavBDqduQOX/2j+ieqDBbVsTQfY0fsAMlZjB
70wCQRuxosAiMZHBSlSBQOHhpsBU347BTo6mQL9RjMAMlJfB8o0AQelQAcAKN5DByOzdQAyhQ8AO
/ZfB7LenQA7xi8AQFn7BwuHLQHA/qMCAr4fBu3ZkQEkJX0B6aJLBGPvEQGtdZUAqd5/B8P6mQMMU
xj9qeI/BWvlNQEjsq0Du0YfBkq1aQObJzEAN2pHBzI1OQDizgUA/WKTBQUW3QM+yIUGHZbLBie6z
QBwqK0H9MqjBDhvOQKRtDkEfs7PBb5fHQM5sIUHrT5/BpqrhQAigBEGQz6rBU1zfQEiTtLv2hIbB
4+8IQTRnzj89PH7BF2gFQRa0F79w+23BqcLbQNgUnT/d/arBULajQHektL4C46XBh7nnQP3hlb8V
3azBIU3yQI+zoz+ovobBYRjsQKYyc7+tfH3B760OQS3fMD+MMm7BFFyyQFAleT8u76bBOIf2QL4Z
Hj5E3K3B9Dq+QPQEtr/17ajBPrTeQFovDkGsmKDBtarkQGZlEUDlw47BtJLXQLbYEcDJcHzBucOq
QMJL/UDHH4rBBLK/QO8Vv0DA75XB3RqLQCK530DWY4TBD1WeQPB4o0AZ7o/BnWofQQPHhz/twF3B
MjV3QN9xQsBG/I7Bw3cZQVdxg8CZ94fBiEGVQDRhB0Ag1KPBZHeXQNXBicDfx4/BXioKQZ7sgsAc
mZHBOoe5QAFKi8BW3IbBr53yQFM5PsC7h5DB5KGJQPGpgUA+O5fBR6WqQCWnQkAPipvB55XNQDVc
5ECDb4/BJwG7QJsZDkC4pZLBCRnWQF4TSsBSEYfBbjx3QEz0vkDB2YvBmrv9QF/DSECcyJHB3O/G
QE7+JcDxZGvBCscAQQfxEUG0SI3BbIwLQTeC5EDT4ZjBeSlpQMidlkCd7p/BhCMPQQyLyz7TqbHB
s7WvQBQuLMBVHqjB/yb2QKUnAUFWAZXBiFGoQG43KUEXOLnB8EqiQMLjOUGFM6fBApvQQCItB0Fe
hLvBM/3EQAuvKEGcf5fB6fDyQPyU60DNzavBGhfHQPWTh75bT4zBn6MQQQkGJUDj3n7BthQKQbk3
p7/V4mHBDtrmQMCbD0Dx46vBYB+EQLkiDL9Cv6LBjC/8QB1O/7+FHa/BNXqZQETzB0GtN5DBZRS5
QA2cCUEXPoTBb8rbQOkzq0Cdx5fBTmWxQNTDykDIbZ3BvTObQAkn0ECkM3vBw7ZfQKSi8kCCcYHB
xUOuQKUvk0DaOInBd5cXQZqwwT/Av0/B5x8oQT2FID4hyFjBrLYqQXgA5D9NxWTBtolHQPqRQsAG
dpXBc0BWQFJ0QcDQNYfBQQWQQOhkCcDyto/BhT8lQTtHncBK+4jBgdQhQVMVScCOcIfBrUUQQcPe
iMBploDB832NQK/ZLEByBavBzE1vQElB2j8kYaDBbMKCQIQWpsAXF4/Bc6enQM8OisA5mJfBTn4T
QZtLe8Bn8ZjBeu8BQef5ocBDF5LBcUGpQNKijMAmIX7BVyTNQNE0qMDi7IfBD6UBQRaNAMDYu4/B
jsveQA+RPcBQzZfB499jQFHLX0CveZLBOxLFQEiOZUCcYZ/BRLmmQPxmyj8iKY/BGHxMQNuSrEDE
EIjBiBBbQC99zUALDJLBqIVPQAfUgUAcdaTBenexQOqJI0GbqrHBNkyvQBJTLEG5TKfBPwfJQFOp
EEG1frPBdr3EQIVDIkETxJ7BLGzeQByMBkHZ9arBXqbdQKB+JTszqoXBwHAKQfNUxT9P2n7BO0wF
QWboGL8n2GzB3ancQGhkpD+GKqzBtiOpQIORtb5YgaXBFUjsQIjejL+AeK3BO1LzQBmrnj84nIbB
EznpQH1daL8jEnvB9VAQQRGLHz+IyW7Bvf60QAzOfD9jTafBE074QKfmdT56N6/BB7LEQJrGsr+J
n6jBfnbcQKJfD0E6kaDBIyPmQAyJDkDtxY7BvTvPQB/PBsCibHfB5pmrQBsB/UB8E4rBG5DAQA1J
v0DKEpbBnTONQFfC3kAmJoTBBC6gQPMBo0BV6o/BEiAhQTZlfz93eV7BqNFlQOe+j8CV34/BxWsW
QSoOccAsfJbBBjCXQDidBkCA8qPBD0qUQPquX8CO5YvBeLIAQTVxVcBDEJLBLIGyQEbuhcDW1IPB
300AQeJyZsCJ/IXBnVaLQNn8gEBmKJfB3GWsQAJ7QUCKkJvBQ1rOQMvI5ED2no/BjIe8QCEYDECL
tpLBTZLWQL7OUsAyUYHB9el6QDjTvUCQi4vBVn7/QAU6RUBv1pHBNDWwQPVeAMCKiWvBsR0BQWcz
EkEsjI3BhywLQUdo5kBCwZnBIANrQNfLlUC7wp/BzCsPQR4uBj8H2LPBNSu5QO2nK8By86bBbdr1
QMnLAUEcYZXB2BChQCFGK0H0NrjBmDCdQCTGOkFl5qXB8q7KQNLxCUHccbvBhQrDQHwCKUGn0pbB
FlXwQEUT8EAaXazBnTnEQO4se77HK4vBJNESQT3iHkCrGIDBEqoJQaDmpb/raWDBucnlQATyE0Bg
i63Bn+iKQGEbFb9cvKHBUbYAQeBh87+S2a/BAUyZQLahB0FFDJDBJxO6QAqaCUG8SITBu9jcQB3r
q0DEEpjBjHGxQPDFykCwe53BlmCeQD9ez0B6AHvBV+1jQNAZ8UDP+oDBAAmxQK/GkkBlV4nBMn4Z
QRXEwT9771DBdiQpQYoSsz0CsljB2PssQRoD1T8O62XBhPM6QKO3f8AenZXBQxKDQJC9qsC50ZPB
XD5AQJilm8BlDYnB4uoWQaMuZcDLJ5/BSyojQe0sTMCQiZLB0dIYQTTZmsB48ZTBJreOQAvZLEC9
BqvBsQl0QBow1T/Qe6DBUQmnQN/kR8C1uZLBOxaEQO+0KcBh9YfB2IP8QFHIEMDxk5PB5NTnQMxN
esDY+5XBe8egQOk7jcDu5njBmsS+QN/Mo8DjVYfBNAAEQVAolcBMjYTBzHwMQbQ8PsDbGoLBliZo
QDIdXkDKTpLBXenGQIemZEBxVJ/BKROoQB9Xxj+QS4/BwbVRQJH+qkDgoYfB99BcQBo5zEBsnpHB
EDhRQCTqgEDOPqTB

>  <OMEGA_E>  (154) 
ACqFPIDsUjzYi68+

>  <OMEGA_NBR>  (154) 
      7613

$$$$
50161998
     RDKit          3D

 89 92  0  0  1  0  0  0  0  0999 V2000
    8.7201    9.3245  -16.6924 C   0  0  0  0  0  0  0  0  0  0  0  0
    8.0520    9.3709  -19.0480 C   0  0  0  0  0  0  0  0  0  0  0  0
    8.6516   10.7270  -16.6584 C   0  0  0  0  0  0  0  0  0  0  0  0
    7.9412   10.7651  -18.9996 C   0  0  0  0  0  0  0  0  0  0  0  0
    7.0117    0.0684  -16.8635 C   0  0  0  0  0  0  0  0  0  0  0  0
    8.6440    1.6435  -15.9594 C   0  0  0  0  0  0  0  0  0  0  0  0
    8.3687   -0.5563  -14.9386 C   0  0  0  0  0  0  0  0  0  0  0  0
    6.8630    1.4219  -21.5623 C   0  0  0  0  0  0  0  0  0  0  0  0
    5.2715   -0.2708  -20.8033 C   0  0  0  0  0  0  0  0  0  0  0  0
    7.3945   -0.9470  -21.7907 C   0  0  0  0  0  0  0  0  0  0  0  0
    7.6314    1.3385  -16.8971 C   0  0  0  0  0  0  0  0  0  0  0  0
    7.3831   -0.8786  -15.8905 C   0  0  0  0  0  0  0  0  0  0  0  0
    9.0173    0.6927  -14.9860 C   0  0  0  0  0  0  0  0  0  0  0  0
    5.6227    1.0794  -20.9771 C   0  0  0  0  0  0  0  0  0  0  0  0
    7.7518    0.4063  -21.9610 C   0  0  0  0  0  0  0  0  0  0  0  0
    6.1499   -1.2820  -21.2194 C   0  0  0  0  0  0  0  0  0  0  0  0
    8.4163    8.6510  -17.8888 C   0  0  0  0  0  0  0  0  0  0  0  0
    8.2516   11.4435  -17.8064 C   0  0  0  0  0  0  0  0  0  0  0  0
    7.1810    2.3400  -17.8809 C   0  0  0  0  0  0  0  0  0  0  0  0
    6.6819   -2.1694  -15.8098 C   0  0  0  0  0  0  0  0  0  0  0  0
    5.4116    7.9467  -17.5383 C   0  0  0  0  0  0  0  0  0  0  0  0
    5.7383    6.0431  -19.1226 C   0  0  0  0  0  0  0  0  0  0  0  0
    4.5858    7.0515  -16.6112 C   0  0  0  0  0  0  0  0  0  0  0  0
    4.9945    5.1405  -18.1203 C   0  0  2  0  0  0  0  0  0  0  0  0
   10.0496    1.0424  -13.9381 C   0  0  0  0  0  0  0  0  0  0  0  0
    3.8903   -3.0280  -18.0241 C   0  0  0  0  0  0  0  0  0  0  0  0
    9.5672   -4.0322  -16.7843 C   0  0  0  0  0  0  0  0  0  0  0  0
    4.6656    2.1475  -20.5196 C   0  0  0  0  0  0  0  0  0  0  0  0
    4.7685   -4.2926  -18.0121 C   0  0  0  0  0  0  0  0  0  0  0  0
    8.6792   -4.0885  -18.0381 C   0  0  0  0  0  0  0  0  0  0  0  0
    5.7673   -4.2776  -16.8379 C   0  0  0  0  0  0  0  0  0  0  0  0
    7.6160   -2.9697  -18.0284 C   0  0  0  0  0  0  0  0  0  0  0  0
    4.2876    4.0078  -18.8524 C   0  0  2  0  0  0  0  0  0  0  0  0
    5.3253    3.0437  -19.4644 C   0  0  1  0  0  0  0  0  0  0  0  0
    6.3349    7.1079  -18.3599 N   0  0  0  0  0  0  0  0  0  0  0  0
    5.8925    2.2176  -18.3913 N   0  0  0  0  0  0  0  0  0  0  0  0
    6.6660   -3.0889  -16.8821 N   0  0  0  0  0  0  0  0  0  0  0  0
    3.9852    5.9502  -17.3923 N   0  0  0  0  0  0  0  0  0  0  0  0
    7.9216    3.2558  -18.2252 O   0  0  0  0  0  0  0  0  0  0  0  0
    6.0787   -2.4081  -14.7692 O   0  0  0  0  0  0  0  0  0  0  0  0
    7.9672    6.4554  -16.4817 O   0  0  0  0  0  0  0  0  0  0  0  0
    8.7241    6.2797  -18.9292 O   0  0  0  0  0  0  0  0  0  0  0  0
    3.4410    4.5642  -19.8606 O   0  0  0  0  0  0  0  0  0  0  0  0
    8.9432    0.7295  -22.5135 F   0  0  0  0  0  0  0  0  0  0  0  0
    5.7892   -2.5752  -21.0764 F   0  0  0  0  0  0  0  0  0  0  0  0
    7.9596    6.9498  -17.8662 S   0  0  0  0  0  0  0  0  0  0  0  0
    8.1667   13.1811  -17.7559 Cl  0  0  0  0  0  0  0  0  0  0  0  0
    9.0029    8.7698  -15.8099 H   0  0  0  0  0  0  0  0  0  0  0  0
    7.8591    8.8455  -19.9716 H   0  0  0  0  0  0  0  0  0  0  0  0
    8.9053   11.2577  -15.7526 H   0  0  0  0  0  0  0  0  0  0  0  0
    7.6199   11.3161  -19.8711 H   0  0  0  0  0  0  0  0  0  0  0  0
    6.2493   -0.1767  -17.5881 H   0  0  0  0  0  0  0  0  0  0  0  0
    9.1329    2.6061  -15.9880 H   0  0  0  0  0  0  0  0  0  0  0  0
    8.6281   -1.2689  -14.1696 H   0  0  0  0  0  0  0  0  0  0  0  0
    7.1276    2.4595  -21.7029 H   0  0  0  0  0  0  0  0  0  0  0  0
    4.3261   -0.5292  -20.3496 H   0  0  0  0  0  0  0  0  0  0  0  0
    8.0747   -1.7275  -22.0981 H   0  0  0  0  0  0  0  0  0  0  0  0
    4.7365    8.5054  -18.2033 H   0  0  0  0  0  0  0  0  0  0  0  0
    5.9998    8.6537  -16.9349 H   0  0  0  0  0  0  0  0  0  0  0  0
    6.5176    5.4680  -19.6440 H   0  0  0  0  0  0  0  0  0  0  0  0
    5.0317    6.4543  -19.8586 H   0  0  0  0  0  0  0  0  0  0  0  0
    5.2374    6.6334  -15.8299 H   0  0  0  0  0  0  0  0  0  0  0  0
    3.7875    7.6463  -16.1433 H   0  0  0  0  0  0  0  0  0  0  0  0
    5.7193    4.7184  -17.4086 H   0  0  0  0  0  0  0  0  0  0  0  0
    9.5523    1.5047  -13.0727 H   0  0  0  0  0  0  0  0  0  0  0  0
   10.5698    0.1280  -13.6166 H   0  0  0  0  0  0  0  0  0  0  0  0
   10.7782    1.7487  -14.3627 H   0  0  0  0  0  0  0  0  0  0  0  0
    3.1922   -3.0738  -18.8730 H   0  0  0  0  0  0  0  0  0  0  0  0
    3.3213   -2.9680  -17.0846 H   0  0  0  0  0  0  0  0  0  0  0  0
    4.5298   -2.1385  -18.1230 H   0  0  0  0  0  0  0  0  0  0  0  0
   10.3112   -4.8414  -16.8246 H   0  0  0  0  0  0  0  0  0  0  0  0
   10.0832   -3.0616  -16.7439 H   0  0  0  0  0  0  0  0  0  0  0  0
    8.9425   -4.1529  -15.8870 H   0  0  0  0  0  0  0  0  0  0  0  0
    4.3695    2.7621  -21.3825 H   0  0  0  0  0  0  0  0  0  0  0  0
    3.7739    1.6724  -20.0846 H   0  0  0  0  0  0  0  0  0  0  0  0
    4.1206   -5.1765  -17.9186 H   0  0  0  0  0  0  0  0  0  0  0  0
    5.3290   -4.3471  -18.9570 H   0  0  0  0  0  0  0  0  0  0  0  0
    9.3123   -3.9724  -18.9301 H   0  0  0  0  0  0  0  0  0  0  0  0
    8.1716   -5.0638  -18.0732 H   0  0  0  0  0  0  0  0  0  0  0  0
    5.2040   -4.2616  -15.8932 H   0  0  0  0  0  0  0  0  0  0  0  0
    6.3817   -5.1889  -16.8830 H   0  0  0  0  0  0  0  0  0  0  0  0
    8.1277   -1.9983  -17.9621 H   0  0  0  0  0  0  0  0  0  0  0  0
    7.0438   -3.0195  -18.9665 H   0  0  0  0  0  0  0  0  0  0  0  0
    3.6818    3.4464  -18.1258 H   0  0  0  0  0  0  0  0  0  0  0  0
    6.1210    3.6339  -19.9425 H   0  0  0  0  0  0  0  0  0  0  0  0
    5.3060    1.5107  -17.9958 H   0  0  0  0  0  0  0  0  0  0  0  0
    3.4861    5.3506  -16.7667 H   0  0  0  0  0  0  0  0  0  0  0  0
    3.3494    6.3410  -18.0579 H   0  0  0  0  0  0  0  0  0  0  0  0
    2.9956    3.8638  -20.3228 H   0  0  0  0  0  0  0  0  0  0  0  0
  1  3  2  0
  1 17  1  0
  2  4  1  0
  2 17  2  0
  3 18  1  0
  4 18  2  0
  5 11  2  0
  5 12  1  0
  6 11  1  0
  6 13  2  0
  7 12  2  0
  7 13  1  0
  8 14  2  0
  8 15  1  0
  9 14  1  0
  9 16  2  0
 10 15  2  0
 10 16  1  0
 11 19  1  0
 12 20  1  0
 13 25  1  0
 14 28  1  0
 15 44  1  0
 16 45  1  0
 17 46  1  0
 18 47  1  0
 19 36  1  0
 19 39  2  0
 20 37  1  0
 20 40  2  0
 21 23  1  0
 21 35  1  0
 22 24  1  0
 22 35  1  0
 23 38  1  0
 24 33  1  0
 24 38  1  0
 26 29  1  0
 27 30  1  0
 28 34  1  0
 29 31  1  0
 30 32  1  0
 31 37  1  0
 32 37  1  0
 33 34  1  0
 33 43  1  0
 34 36  1  0
 35 46  1  0
 41 46  2  0
 42 46  2  0
  1 48  1  0
  2 49  1  0
  3 50  1  0
  4 51  1  0
  5 52  1  0
  6 53  1  0
  7 54  1  0
  8 55  1  0
  9 56  1  0
 10 57  1  0
 21 58  1  0
 21 59  1  0
 22 60  1  0
 22 61  1  0
 23 62  1  0
 23 63  1  0
 24 64  1  1
 25 65  1  0
 25 66  1  0
 25 67  1  0
 26 68  1  0
 26 69  1  0
 26 70  1  0
 27 71  1  0
 27 72  1  0
 27 73  1  0
 28 74  1  0
 28 75  1  0
 29 76  1  0
 29 77  1  0
 30 78  1  0
 30 79  1  0
 31 80  1  0
 31 81  1  0
 32 82  1  0
 32 83  1  0
 33 84  1  1
 34 85  1  6
 36 86  1  0
 38 87  1  0
 38 88  1  0
 43 89  1  0
M  CHG  1  38   1
M  END
>  <OMEGA_C>  (155) 
poULQSQxFUHziYXBLdUAQUTvFUFJYpjB4GwKQfuhK0FZRIXBQR7+QN89LEEr/5fBsl/gQGwEjD1j
6IbBuE0KQbBd0j+kWX/BEuYFQbZmDr9UBG/BlJ3bQI7/tT+Wf6zBU7CoQFClir4SbabBgJ/sQKtw
cr9bU67BZzT0QJhUqz8rLYfBlELsQIvqYL+WP37B9kYQQSxXMT/Xxm/B/uyzQCgrij8k0afB6w74
QHsL0D44sK/B88vEQBoZpL8+wanBQKkGQXZqCkEwHI/BpgYEQZAYN0Foc47B7MrlQCTDFUD9C4/B
G9LVQD3YCsAQ9XzBbyutQBlL/kCETozBEqC3QLpgwUAN+5jBk76SQAGm4UDN44TBANOfQEl/pEBW
9pDBScsgQQNshT+jAl/B6fl4QDTLQcBiMZDBLxMZQaEHgcAvRobBRkyVQM1wCUASKKTBvJeYQLZc
icDWGJDB3d0KQT/VgsADTpDBe424QD/iiMD2s4bBYLbzQOIPPsAiOpDB4DOJQLM/gECr0ZbBN2mq
QEbMQkAFt5vBp7fKQJdz40D94JLBTI+8QC3tDUBIIZPBO1DVQJWwRcCBDofB+Q1/QCtovkCEI4vB
o339QDdfUEBDzZHBfYTCQMUdGsCpTmzBL/P+QMmSzkB12oPB+ZULQX/zyEASb5fBzzhcQN4NkkCY
4p7BdRcPQdS+Oj+RG7TBBEG5QKnQJMBwnKjBN7X+QCll3kAU7o7B7aoCQbflUkEeDI7B0AsQQUJR
DEEw9XzBfn37QE2HDUHtxZ/BB3wOQX4fNEGVCnzBfNbzQMUONUEX+J7BD/rHQMnwNL5qtIzBMCAS
QeLJJkC8zn/BkAwKQd9por+itmLBfhXkQKZnHUCUn63BTG+KQMl3B78FzKLB3DEBQVgg3b/7yLDB
b5GXQPAVCEFcoJHB+f2/QHx1CkGoeofBjJDQQMX5rkD3Jp3BDgShQE6JzkBl3p7BBZmnQKdE1EA5
R33BLWZyQNSu9ECIJYHBaQS3QD79lkDLRIvBaNYYQeKZwD/gKVHB5R0pQWUQAz7M3VnBo3MsQavU
3z+mzWXBYE1MQD25RMD2+5bBc5BUQH/zPcA9rYjB5/OQQGHdCMDg+5DBiPokQersmsC3mIbBwlQh
QZzwQ8CA84XBdhQPQe3khMDzMH7Bq9KLQKPFMEBbD6vBuodxQOwP1j9FraDBvduDQEmmpcBhWY/B
a4eqQDobi8AEqJfBCv8UQcQ7fsDecJfBv74CQYEKosDXlZDBM4emQEdfiMBlSn7B9jbMQGwLpsB3
EIfBMQsCQbHG/79pso/BJGfhQJ4/QcB7u5fBQqNrQF2SXECPAZHBXt/DQJ6RaEA5ip/BBcupQPlf
wT9Q94/BzBxfQCI4q0BNIobBJVxWQCzpykCjdpDBD7g/QPJHd0AGlaLB

>  <OMEGA_E>  (155) 
JvUXPw==

>  <OMEGA_NBR>  (155) 
      9385

$$$$
50162054
     RDKit          3D

 93 96  0  0  1  0  0  0  0  0999 V2000
    6.9968    0.0302  -16.8863 C   0  0  0  0  0  0  0  0  0  0  0  0
    8.5563    1.6688  -15.9630 C   0  0  0  0  0  0  0  0  0  0  0  0
    8.3513   -0.5326  -14.9375 C   0  0  0  0  0  0  0  0  0  0  0  0
    6.7970    1.2861  -21.4418 C   0  0  0  0  0  0  0  0  0  0  0  0
    5.0765   -0.3102  -20.7610 C   0  0  0  0  0  0  0  0  0  0  0  0
    7.1981   -1.1095  -21.6583 C   0  0  0  0  0  0  0  0  0  0  0  0
    7.3484    7.8092  -21.3759 C   0  0  0  0  0  0  0  0  0  0  0  0
    7.5757    1.3204  -16.9167 C   0  0  0  0  0  0  0  0  0  0  0  0
    7.4009   -0.9062  -15.9099 C   0  0  0  0  0  0  0  0  0  0  0  0
    8.9199    0.7555  -14.9555 C   0  0  0  0  0  0  0  0  0  0  0  0
    5.5143    1.0198  -20.9128 C   0  0  0  0  0  0  0  0  0  0  0  0
    7.6421    0.2206  -21.8020 C   0  0  0  0  0  0  0  0  0  0  0  0
    5.9123   -1.3722  -21.1442 C   0  0  0  0  0  0  0  0  0  0  0  0
    7.1923    8.4875  -20.1889 C   0  0  0  0  0  0  0  0  0  0  0  0
    6.1052    9.5960  -21.8711 C   0  0  0  0  0  0  0  0  0  0  0  0
    7.1341    2.3061  -17.9162 C   0  0  0  0  0  0  0  0  0  0  0  0
    6.7617   -2.2355  -15.8275 C   0  0  0  0  0  0  0  0  0  0  0  0
    5.3228    7.9089  -17.2957 C   0  0  0  0  0  0  0  0  0  0  0  0
    5.9468    5.9401  -18.7164 C   0  0  0  0  0  0  0  0  0  0  0  0
    4.3208    7.0205  -16.5502 C   0  0  0  0  0  0  0  0  0  0  0  0
    4.8957    5.0963  -17.9661 C   0  0  2  0  0  0  0  0  0  0  0  0
    9.9615    1.1384  -13.9285 C   0  0  0  0  0  0  0  0  0  0  0  0
    5.2637   10.6090  -22.6052 C   0  0  0  0  0  0  0  0  0  0  0  0
    3.8759   -2.9619  -17.8784 C   0  0  0  0  0  0  0  0  0  0  0  0
    9.6467   -3.9056  -16.9987 C   0  0  0  0  0  0  0  0  0  0  0  0
    6.0105   10.6510  -19.5948 C   0  0  0  0  0  0  0  0  0  0  0  0
    4.6015    2.1517  -20.5059 C   0  0  0  0  0  0  0  0  0  0  0  0
    4.6964   -4.2634  -17.9568 C   0  0  0  0  0  0  0  0  0  0  0  0
    8.6750   -4.0345  -18.1825 C   0  0  0  0  0  0  0  0  0  0  0  0
    5.7914   -4.3128  -16.8719 C   0  0  0  0  0  0  0  0  0  0  0  0
    7.5651   -2.9647  -18.1217 C   0  0  0  0  0  0  0  0  0  0  0  0
    4.2441    4.0563  -18.8925 C   0  0  2  0  0  0  0  0  0  0  0  0
    5.2785    3.0688  -19.4698 C   0  0  1  0  0  0  0  0  0  0  0  0
    6.4086    9.5656  -20.5294 N   0  0  0  0  0  0  0  0  0  0  0  0
    6.6860    8.5330  -22.3771 N   0  0  0  0  0  0  0  0  0  0  0  0
    6.4059    7.0804  -17.8987 N   0  0  0  0  0  0  0  0  0  0  0  0
    5.8251    2.2424  -18.3809 N   0  0  0  0  0  0  0  0  0  0  0  0
    6.6866   -3.1206  -16.9272 N   0  0  0  0  0  0  0  0  0  0  0  0
    3.8214    5.9710  -17.4513 N   0  0  0  0  0  0  0  0  0  0  0  0
    7.9079    3.1759  -18.3021 O   0  0  0  0  0  0  0  0  0  0  0  0
    6.2618   -2.5425  -14.7504 O   0  0  0  0  0  0  0  0  0  0  0  0
    8.0107    9.1047  -17.7306 O   0  0  0  0  0  0  0  0  0  0  0  0
    8.8167    6.9378  -18.7950 O   0  0  0  0  0  0  0  0  0  0  0  0
    3.5685    4.7296  -19.9579 O   0  0  0  0  0  0  0  0  0  0  0  0
    8.8763    0.4750  -22.2921 F   0  0  0  0  0  0  0  0  0  0  0  0
    5.4741   -2.6444  -21.0256 F   0  0  0  0  0  0  0  0  0  0  0  0
    7.7510    7.9235  -18.5644 S   0  0  0  0  0  0  0  0  0  0  0  0
    6.2437   -0.2394  -17.6119 H   0  0  0  0  0  0  0  0  0  0  0  0
    9.0290    2.6389  -16.0065 H   0  0  0  0  0  0  0  0  0  0  0  0
    8.6447   -1.2384  -14.1745 H   0  0  0  0  0  0  0  0  0  0  0  0
    7.1283    2.3061  -21.5694 H   0  0  0  0  0  0  0  0  0  0  0  0
    4.0986   -0.5134  -20.3501 H   0  0  0  0  0  0  0  0  0  0  0  0
    7.8434   -1.9277  -21.9422 H   0  0  0  0  0  0  0  0  0  0  0  0
    7.8864    6.8827  -21.5122 H   0  0  0  0  0  0  0  0  0  0  0  0
    4.7986    8.4558  -18.0932 H   0  0  0  0  0  0  0  0  0  0  0  0
    5.7662    8.6263  -16.5895 H   0  0  0  0  0  0  0  0  0  0  0  0
    6.8101    5.3031  -18.9590 H   0  0  0  0  0  0  0  0  0  0  0  0
    5.5008    6.3230  -19.6462 H   0  0  0  0  0  0  0  0  0  0  0  0
    4.8175    6.5546  -15.6864 H   0  0  0  0  0  0  0  0  0  0  0  0
    3.4773    7.6343  -16.2011 H   0  0  0  0  0  0  0  0  0  0  0  0
    5.3856    4.5754  -17.1303 H   0  0  0  0  0  0  0  0  0  0  0  0
    9.4678    1.5912  -13.0560 H   0  0  0  0  0  0  0  0  0  0  0  0
   10.5124    0.2402  -13.6127 H   0  0  0  0  0  0  0  0  0  0  0  0
   10.6625    1.8622  -14.3697 H   0  0  0  0  0  0  0  0  0  0  0  0
    5.9062   11.4222  -22.9738 H   0  0  0  0  0  0  0  0  0  0  0  0
    4.7636   10.1228  -23.4558 H   0  0  0  0  0  0  0  0  0  0  0  0
    4.5068   11.0211  -21.9217 H   0  0  0  0  0  0  0  0  0  0  0  0
    3.1077   -2.9642  -18.6657 H   0  0  0  0  0  0  0  0  0  0  0  0
    3.3912   -2.8929  -16.8934 H   0  0  0  0  0  0  0  0  0  0  0  0
    4.5432   -2.0988  -18.0199 H   0  0  0  0  0  0  0  0  0  0  0  0
   10.4225   -4.6819  -17.0743 H   0  0  0  0  0  0  0  0  0  0  0  0
   10.1190   -2.9123  -17.0186 H   0  0  0  0  0  0  0  0  0  0  0  0
    9.0943   -4.0301  -16.0557 H   0  0  0  0  0  0  0  0  0  0  0  0
    5.3859   11.3834  -20.1272 H   0  0  0  0  0  0  0  0  0  0  0  0
    5.4400   10.2227  -18.7574 H   0  0  0  0  0  0  0  0  0  0  0  0
    6.9111   11.1500  -19.2076 H   0  0  0  0  0  0  0  0  0  0  0  0
    4.3458    2.7442  -21.3967 H   0  0  0  0  0  0  0  0  0  0  0  0
    3.6834    1.7325  -20.0684 H   0  0  0  0  0  0  0  0  0  0  0  0
    4.0201   -5.1200  -17.8201 H   0  0  0  0  0  0  0  0  0  0  0  0
    5.1721   -4.3260  -18.9466 H   0  0  0  0  0  0  0  0  0  0  0  0
    9.2365   -3.9141  -19.1207 H   0  0  0  0  0  0  0  0  0  0  0  0
    8.2118   -5.0319  -18.1578 H   0  0  0  0  0  0  0  0  0  0  0  0
    5.3105   -4.3503  -15.8833 H   0  0  0  0  0  0  0  0  0  0  0  0
    6.3971   -5.2190  -17.0196 H   0  0  0  0  0  0  0  0  0  0  0  0
    8.0349   -1.9707  -18.0868 H   0  0  0  0  0  0  0  0  0  0  0  0
    6.9465   -3.0463  -19.0277 H   0  0  0  0  0  0  0  0  0  0  0  0
    3.5164    3.4807  -18.3016 H   0  0  0  0  0  0  0  0  0  0  0  0
    6.0855    3.6343  -19.9586 H   0  0  0  0  0  0  0  0  0  0  0  0
    6.6596    8.2753  -23.3430 H   0  0  0  0  0  0  0  0  0  0  0  0
    5.2096    1.5870  -17.9431 H   0  0  0  0  0  0  0  0  0  0  0  0
    3.1634    5.4078  -16.9515 H   0  0  0  0  0  0  0  0  0  0  0  0
    3.3654    6.4069  -18.2272 H   0  0  0  0  0  0  0  0  0  0  0  0
    3.1648    4.0894  -20.5321 H   0  0  0  0  0  0  0  0  0  0  0  0
  1  8  2  0
  1  9  1  0
  2  8  1  0
  2 10  2  0
  3  9  2  0
  3 10  1  0
  4 11  2  0
  4 12  1  0
  5 11  1  0
  5 13  2  0
  6 12  2  0
  6 13  1  0
  7 14  2  0
  7 35  1  0
  8 16  1  0
  9 17  1  0
 10 22  1  0
 11 27  1  0
 12 45  1  0
 13 46  1  0
 14 34  1  0
 14 47  1  0
 15 23  1  0
 15 34  1  0
 15 35  2  0
 16 37  1  0
 16 40  2  0
 17 38  1  0
 17 41  2  0
 18 20  1  0
 18 36  1  0
 19 21  1  0
 19 36  1  0
 20 39  1  0
 21 32  1  0
 21 39  1  0
 24 28  1  0
 25 29  1  0
 26 34  1  0
 27 33  1  0
 28 30  1  0
 29 31  1  0
 30 38  1  0
 31 38  1  0
 32 33  1  0
 32 44  1  0
 33 37  1  0
 36 47  1  0
 42 47  2  0
 43 47  2  0
  1 48  1  0
  2 49  1  0
  3 50  1  0
  4 51  1  0
  5 52  1  0
  6 53  1  0
  7 54  1  0
 18 55  1  0
 18 56  1  0
 19 57  1  0
 19 58  1  0
 20 59  1  0
 20 60  1  0
 21 61  1  1
 22 62  1  0
 22 63  1  0
 22 64  1  0
 23 65  1  0
 23 66  1  0
 23 67  1  0
 24 68  1  0
 24 69  1  0
 24 70  1  0
 25 71  1  0
 25 72  1  0
 25 73  1  0
 26 74  1  0
 26 75  1  0
 26 76  1  0
 27 77  1  0
 27 78  1  0
 28 79  1  0
 28 80  1  0
 29 81  1  0
 29 82  1  0
 30 83  1  0
 30 84  1  0
 31 85  1  0
 31 86  1  0
 32 87  1  1
 33 88  1  6
 35 89  1  0
 37 90  1  0
 39 91  1  0
 39 92  1  0
 44 93  1  0
M  CHG  2  35   1  39   1
M  END
>  <OMEGA_C>  (156) 
I+bfQBZF9zwoF4fBuOYIQZea1T+KaH/B4J4FQW5XCL/o/27B2YDZQDSfpD/EiKvBT3KiQFXQnr5x
FqbB+lbmQPQEjr8hRK3BfSbrQBbl+UDxAavBSWzyQPcBqT9eVYfBVtTsQJT/Z7/4jn7BBbgOQdZo
QT/BSW/BiXWwQJeJgj92TafBLIz0QCrbYT6Jaq7BgzG9QESkr788J6nBQSfmQN3MB0HQgqHBiV3D
QC+JGUEK+K7B9ErkQIiWE0B1VI/BM2DYQL4SD8BIPX3BglSqQJ0V/UCSXYrB80u+QBIVvkApu5XB
BkSKQCmo4EDaZoTBqamcQDwVo0CUuo/BTmIfQVe2kT8n217B/2+oQIO+KUF617TBPg94QBKPPcD1
Bo/BFVkaQbb1ecBZ/YfB6lXAQHpqKkENwpzBoT+TQOq0CUAoDKTBGEmWQGNtiMBwp4/BncwKQXIa
gcC6dZHB41K5QFgCisCh+YbBjBXyQDO+PcBT+ZDBos+HQOXMgUDcI5fBRumoQP5mREAvwpvB8RLN
QMUMGUFJPKTBx/PVQA+HCEFlBLPBhv3MQH+S4kB0MI/BaWe6QL6DD0ACDJPBRPjVQLK4R8DpaofB
R5F0QB4Sv0BFnIvBOg39QCdBS0C8apLBhWDIQPu3IsCNAWzBzCsAQdysEUE+2I3BGxENQRUC3kA/
XJbB+GFkQJhYl0C4qZ/BbwUOQbMz8z4oVrLBtCuvQAU+KcBmNKjBUgj4QPeM/UDLg5TBj8zHQLcj
db495YzBzXYQQVnjKEBUDYDBylAKQUiDnr+5ymLBrRrkQPiWE0AwjqzBXieDQKlwA78CzaLBdP36
QOm99r+Pia/Byl38QEE/3ED+GKzB7I2ZQNhKB0H1vpDBYIS4QFUFCkE1t4TBeuzZQNOyqUAXrJfB
8gawQF9WykBYK53BDimaQK6/0UBf+3rB4oxeQDRM9EDqm4HBGFesQJBpkkDWConBJXwXQaOsyz99
5VDBwjIoQVzsdT6tzVnBk5kqQQZe7j8n6mXB7/+8QELBNkFYyrfBqG+YQNr2IUGDpbvBXzeQQJJW
MEGSX6/BHORGQMm0PcBDU5XBzwhZQIYlOcCnJYfBi2GRQIVTBsDBKJDBc8ImQcbRlcAemIjBW+ch
QdxjOsAUJojBGYIRQdz2gMAUcoDBgVmsQGgiNkGEBKHBZBSuQE+QI0EzD5bB6yfdQEVmMkEtqZnB
1BCLQHShL0B3LKvBP71rQATD3T8hjKDBqaSAQF7Xo8CQj47BzIGlQF1uisCqkpfBpsgTQcCAesAi
95jBZGMDQU4FocAhQ5HBW++pQMw1i8D1IX7BKrXMQCkCp8AsKIjBzI4AQWw//L/OsZDBI0reQGX3
QsCoOJjB4QxhQBvDXkC1aZLBK7zCQJqYaEBGq5/BDhvVQHJnBEF5vrrBXrWmQN4jyz9vi4/BY3RK
QGcMrUCgnIfBHGNXQEEFzUBk0ZHBo4tKQGLcgkCxQaTBKGTfQMARzz3H/YXBaocJQeEF3D8cQn7B
OlsFQaQL5L5uvGzBC6DcQPKekT+k8arBPTKlQMTl2b6SIqXBninpQO34ob/y+qvB6njHQFD8JEHB
XZ3BehzzQFyKrz/lnobBiKfrQCr/UL8p93vBxBAPQVHvUj/NvW3BCnezQMC+ZT9ks6bBMY33QGBp
Zz0Zfq3BS++/QOOWwL9Z16fB+vDcQNYaEkFIHZ/BQCi/QJj9HUE+wq7BXbflQKItFUB27o7BWQrX
QJAfCcDAhnrBd+qoQOxJ/UDIwYrBk7++QCgOwEDDupbBaiaJQBVv30DjMIXBYwWeQDa1o0CUvJDB
Nx8gQVKsmT/ZrV3Bi1+xQOBJH0ESTbrBGXQXQRmDlsD/morB9Wt6QHBJQsCvL43BcAPpQNIH90Af
ma/BCUqWQGpUA0CY86PBqwgTQaiATMDD14rBHruaQN9OiMAPX47BKOf3QEhmOcDCmI7BCce9QDBm
icDXsIXBfiKKQK85gUBM9ZfBXpirQMamQUBu+5vBYerWQFE/DkGC1qnB0GW2QOrNK0FeJ6fB5UDM
QOmm5EC474/Bvym8QJQxEEAs25LB+nfYQO4JRMBVzoXBwD11QF9yvkAlt4zBPbz+QKThS0AkKZLB
8fPFQGhrHMBPiWnBzbcBQR0AEEGKUozBeSQKQR6N5kBjI5rBBbBqQJE/lUDh0qDBl40PQd6Lkz6J
dbHBaeSxQGpVMcDBi6bByGL1QHaiAUGf7pTBXNDGQHFALL6uq4vBpYYRQWIYK0DRdX/BntQJQcuP
kb9bPmDBYG3nQGunCUBWO6zBgMOFQJotHL9b3KHBLr/9QC8eBsCv/q3BHVPEQA0gLUEYyZXBuuiX
QHTsB0F76JDB76u2QHueCUFtzITBw/vaQCS1rECEyJjB7/qvQHlezEC/GZ7BzdiYQBwS0EDooHzB
g+xaQOEQ8kCdZILB3kKuQEj/k0A0/YnB66IYQaLM2D+U10/BIIUoQdRjlj40UljBIKArQf6u8T9m
MGXBPUGSQJ1LF0HxRbvBZXquQJgsMEHFrLzBwFbJQKBYF0GzYL/BqPYnQSIznMCY6IfB9zsMQaYc
psAfD4XBCVQVQT3ao8DqrZLBT5hJQEdjQ8A2hpPBB+5aQOggRMC2UYXBSkiQQKxdB8C/3Y3BeILf
QARa+ECcELjBeBAGQdam90AFAq/B/M3cQKtZ2UC9+6vBAGOOQARNJkA+VKvBnYlxQIUJ1D/cWaDB
A0UVQQ9IMsC7wILBFV0eQTzDLcCHX5DBXE2HQKqMpcDRu43Box6qQAwrh8DbR5bBaV72QPcx7r/F
h5HBvZ7vQP+TZcC8IJXBu3KuQCFijMDMm3vB44XSQAlFpcBOGofBhaRkQMg1X0B6NJPBMMTFQI76
Y0ByAqDBoNKlQDlUOUHrM6jBywKoQH7yzz8UNI/B5/NKQIOXq0DU/ojB2PVYQCbHzEAE75LBYBJS
QLbvf0ByS6XBVCHgQCB67TzzoobB+doJQZFZ0z9ef3/Bd2EGQZqQCL/SiG7BEBHZQBGCjT+Hb6vB
FhGhQNy3274Ne6XBs9XjQLfopr8mwqzBvALJQOB2JEEd/JzBYWHzQOSLpz/FKIfBvUDtQO6NZr+S
kX3BwOAPQR7vPT/9XW/BTiiwQPjCYj8V/KbBFAfzQAAgLzwdN67B1766QIHOwr9ycqjBaVTeQIKb
EUHF4p7BSJLAQDYMHkEQbK7BJF3lQAI0EkB5TI/BaxnYQIbeDcAioXvBTS+qQCNb/EAYkorBQfm+
QHBPv0AptpbBeGCKQMSt3kDG+ITBoFyeQIIOo0ATqpDB6D0hQUYSjj9gk1/BrrSxQPiWH0Hg3rnB
qtJ1QJLFQsDAc47BwBEZQejogMA9PYfBqiLpQBFV9kDeeK/BqQWUQK5yA0B+/aPBkK+VQNnHisDz
ao7B6FEJQc7eg8CJqJDBwQK4QCYSisBhj4XBs2TwQBSzQMAaGpDBzcSJQE/0gEDr25fBqo+qQI6A
QEDxE5zBLgnYQHsGDkGGn6nBhCC4QKGsK0EAt6bBixzNQAl240AS2Y/BpJG7QLLbDUCpFZPB4avU
QL4HSMDXbobBoaZ2QFTzvUDzf4zBhkH+QK4OSUDZjJLBd8jIQLi5H8AwH2rBtH0CQcIDD0H2JYzB
CogKQbTQ5EAlFprBvBlpQO9xlUBWmaDBTDoNQfREZD7QU7LBjtSrQPDyMcASMafBmIr2QArbAEHN
zZTByVLHQAFnc77cQozBbqARQTJFJ0DDRIDBPzELQckMnr9RTmLBuWrkQNI+B0B+tKzBMc2BQOXJ
GL9VDaLB4a/3QLZBCcBV8q7BF9fFQIFVLEFyVZXBhSKZQCmVB0GhqpDBp1a4QNYKCUG2noTBiOza
QKvQq0CE6pjBq+evQHESzEAX/53Bri2aQAsRz0BmSnzBseBdQPF88UBVGILB+s2uQMoPk0BX/YnB
DgAaQU6hyj/WblHB9uEpQRLHTj5krFrBnnosQe/85z/RImfBtWSSQNS3F0FysLrBS9GuQFqGMEG7
J7zBTRHJQJGnF0F7H7/B9alFQKUaRsCA25TBt4JVQAKHO8C7r4bBJAiQQJ2MC8C51Y/BYgMlQb2h
msAP5IfB0DEhQTdjQ8CAa4fBrUQQQZVGhMCIVH/BGZ/fQPsw+ECO7rfBDyEGQQ4I9kAP5a7BTTDc
QLrZ2EC06qvBfMyLQNw2J0ApSavBSzBtQG4C1j9RQKDB9EmAQOQ1psBlE43BvZClQLE4jsBkOZbB
OkMSQXelgMDcMZjBFlYBQXE6o8CgcJDB1vinQLBcicATdXvB0IjLQD5Ap8AtMYbBfEoAQSszAsCn
8I/BnRXcQAjnRMA1RZfBkyhkQMToXkAvCpPB0J7EQPhXYkCmNqDBd9+nQGpTOUFyqafBIpCnQGOx
yj+Ybo/B6XZMQDslq0AAv4jBKP1ZQM+CzEA+qJLBQpBPQNJpgEALEKXB

>  <OMEGA_E>  (156) 
kJ5uPmALhD5wwVA+

>  <OMEGA_NBR>  (156) 
     13958

$$$$
50162021
     RDKit          3D

 92 95  0  0  1  0  0  0  0  0999 V2000
    5.7012   10.5202  -20.9107 C   0  0  0  0  0  0  0  0  0  0  0  0
    6.5541    8.7347  -22.3466 C   0  0  0  0  0  0  0  0  0  0  0  0
    6.3468    9.9410  -19.8084 C   0  0  0  0  0  0  0  0  0  0  0  0
    7.1933    8.1496  -21.2417 C   0  0  0  0  0  0  0  0  0  0  0  0
    6.9812    0.0423  -16.8553 C   0  0  0  0  0  0  0  0  0  0  0  0
    8.5491    1.6962  -15.9721 C   0  0  0  0  0  0  0  0  0  0  0  0
    8.3706   -0.4946  -14.9224 C   0  0  0  0  0  0  0  0  0  0  0  0
    6.7741    1.2130  -21.4342 C   0  0  0  0  0  0  0  0  0  0  0  0
    5.0448   -0.3611  -20.7252 C   0  0  0  0  0  0  0  0  0  0  0  0
    7.1552   -1.1884  -21.6240 C   0  0  0  0  0  0  0  0  0  0  0  0
    7.5567    1.3349  -16.9089 C   0  0  0  0  0  0  0  0  0  0  0  0
    7.4069   -0.8842  -15.8753 C   0  0  0  0  0  0  0  0  0  0  0  0
    5.8170    9.9263  -22.1840 C   0  0  0  0  0  0  0  0  0  0  0  0
    8.9319    0.7949  -14.9614 C   0  0  0  0  0  0  0  0  0  0  0  0
    5.4925    0.9642  -20.8945 C   0  0  0  0  0  0  0  0  0  0  0  0
    7.6090    0.1362  -21.7855 C   0  0  0  0  0  0  0  0  0  0  0  0
    5.8700   -1.4347  -21.1011 C   0  0  0  0  0  0  0  0  0  0  0  0
    7.0950    8.7578  -19.9727 C   0  0  0  0  0  0  0  0  0  0  0  0
    7.1144    2.3076  -17.9236 C   0  0  0  0  0  0  0  0  0  0  0  0
    6.7973   -2.2286  -15.7753 C   0  0  0  0  0  0  0  0  0  0  0  0
    5.3548    7.8846  -17.2486 C   0  0  0  0  0  0  0  0  0  0  0  0
    5.9471    5.9551  -18.7525 C   0  0  0  0  0  0  0  0  0  0  0  0
    4.3012    6.9982  -16.5765 C   0  0  0  0  0  0  0  0  0  0  0  0
    4.8831    5.1080  -18.0254 C   0  0  2  0  0  0  0  0  0  0  0  0
    5.0785   10.5181  -23.3571 C   0  0  0  0  0  0  0  0  0  0  0  0
    9.9921    1.1873  -13.9575 C   0  0  0  0  0  0  0  0  0  0  0  0
    9.6091   -3.8996  -16.9514 C   0  0  0  0  0  0  0  0  0  0  0  0
    3.8439   -2.9830  -17.8602 C   0  0  0  0  0  0  0  0  0  0  0  0
    4.5862    2.1103  -20.5082 C   0  0  0  0  0  0  0  0  0  0  0  0
    8.6324   -4.0366  -18.1311 C   0  0  0  0  0  0  0  0  0  0  0  0
    4.6775   -4.2783  -17.8920 C   0  0  0  0  0  0  0  0  0  0  0  0
    7.5268   -2.9595  -18.0857 C   0  0  0  0  0  0  0  0  0  0  0  0
    5.7604   -4.2810  -16.7948 C   0  0  0  0  0  0  0  0  0  0  0  0
    4.2374    4.0632  -18.9515 C   0  0  2  0  0  0  0  0  0  0  0  0
    5.2678    3.0525  -19.4958 C   0  0  1  0  0  0  0  0  0  0  0  0
    6.4257    7.0586  -17.8856 N   0  0  0  0  0  0  0  0  0  0  0  0
    5.8034    2.2486  -18.3831 N   0  0  0  0  0  0  0  0  0  0  0  0
    6.6532   -3.0892  -16.8851 N   0  0  0  0  0  0  0  0  0  0  0  0
    3.8100    5.9910  -17.5281 N   0  0  0  0  0  0  0  0  0  0  0  0
    7.8943    3.1610  -18.3334 O   0  0  0  0  0  0  0  0  0  0  0  0
    6.4170   -2.5882  -14.6659 O   0  0  0  0  0  0  0  0  0  0  0  0
    8.1263    8.9727  -17.5505 O   0  0  0  0  0  0  0  0  0  0  0  0
    8.7645    6.9600  -18.9799 O   0  0  0  0  0  0  0  0  0  0  0  0
    3.5849    4.7276  -20.0357 O   0  0  0  0  0  0  0  0  0  0  0  0
    8.8424    0.3742  -22.2857 F   0  0  0  0  0  0  0  0  0  0  0  0
    5.4225   -2.7024  -20.9677 F   0  0  0  0  0  0  0  0  0  0  0  0
    7.7613    7.9330  -18.5223 S   0  0  0  0  0  0  0  0  0  0  0  0
    5.1165   11.4194  -20.7842 H   0  0  0  0  0  0  0  0  0  0  0  0
    6.6268    8.2727  -23.3202 H   0  0  0  0  0  0  0  0  0  0  0  0
    6.2706   10.4013  -18.8344 H   0  0  0  0  0  0  0  0  0  0  0  0
    7.7582    7.2371  -21.3630 H   0  0  0  0  0  0  0  0  0  0  0  0
    6.2157   -0.2367  -17.5642 H   0  0  0  0  0  0  0  0  0  0  0  0
    9.0163    2.6681  -16.0313 H   0  0  0  0  0  0  0  0  0  0  0  0
    8.6800   -1.1911  -14.1571 H   0  0  0  0  0  0  0  0  0  0  0  0
    7.1127    2.2286  -21.5770 H   0  0  0  0  0  0  0  0  0  0  0  0
    4.0676   -0.5517  -20.3065 H   0  0  0  0  0  0  0  0  0  0  0  0
    7.7928   -2.0149  -21.9011 H   0  0  0  0  0  0  0  0  0  0  0  0
    4.8680    8.4990  -18.0204 H   0  0  0  0  0  0  0  0  0  0  0  0
    5.8093    8.5399  -16.4910 H   0  0  0  0  0  0  0  0  0  0  0  0
    6.7985    5.3120  -19.0203 H   0  0  0  0  0  0  0  0  0  0  0  0
    5.5067    6.3799  -19.6665 H   0  0  0  0  0  0  0  0  0  0  0  0
    4.7508    6.4916  -15.7097 H   0  0  0  0  0  0  0  0  0  0  0  0
    3.4603    7.6227  -16.2407 H   0  0  0  0  0  0  0  0  0  0  0  0
    5.3587    4.5893  -17.1800 H   0  0  0  0  0  0  0  0  0  0  0  0
    5.7270   11.2422  -23.8719 H   0  0  0  0  0  0  0  0  0  0  0  0
    4.7976    9.7162  -24.0557 H   0  0  0  0  0  0  0  0  0  0  0  0
    4.1714   11.0276  -22.9999 H   0  0  0  0  0  0  0  0  0  0  0  0
    9.5143    1.6464  -13.0794 H   0  0  0  0  0  0  0  0  0  0  0  0
   10.5502    0.2924  -13.6451 H   0  0  0  0  0  0  0  0  0  0  0  0
   10.6834    1.9087  -14.4176 H   0  0  0  0  0  0  0  0  0  0  0  0
   10.3792   -4.6822  -17.0195 H   0  0  0  0  0  0  0  0  0  0  0  0
   10.0883   -2.9100  -16.9853 H   0  0  0  0  0  0  0  0  0  0  0  0
    9.0587   -4.0082  -16.0053 H   0  0  0  0  0  0  0  0  0  0  0  0
    3.0835   -3.0161  -18.6543 H   0  0  0  0  0  0  0  0  0  0  0  0
    3.3488   -2.8896  -16.8823 H   0  0  0  0  0  0  0  0  0  0  0  0
    4.5043   -2.1181  -18.0209 H   0  0  0  0  0  0  0  0  0  0  0  0
    4.3285    2.6824  -21.4116 H   0  0  0  0  0  0  0  0  0  0  0  0
    3.6688    1.7042  -20.0572 H   0  0  0  0  0  0  0  0  0  0  0  0
    9.1929   -3.9326  -19.0718 H   0  0  0  0  0  0  0  0  0  0  0  0
    8.1633   -5.0308  -18.0918 H   0  0  0  0  0  0  0  0  0  0  0  0
    4.0086   -5.1376  -17.7360 H   0  0  0  0  0  0  0  0  0  0  0  0
    5.1641   -4.3661  -18.8746 H   0  0  0  0  0  0  0  0  0  0  0  0
    8.0012   -1.9672  -18.0712 H   0  0  0  0  0  0  0  0  0  0  0  0
    6.9039   -3.0550  -18.9872 H   0  0  0  0  0  0  0  0  0  0  0  0
    5.2685   -4.2820  -15.8109 H   0  0  0  0  0  0  0  0  0  0  0  0
    6.3704   -5.1902  -16.9006 H   0  0  0  0  0  0  0  0  0  0  0  0
    3.4931    3.5045  -18.3651 H   0  0  0  0  0  0  0  0  0  0  0  0
    6.0812    3.5974  -19.9971 H   0  0  0  0  0  0  0  0  0  0  0  0
    5.1792    1.6152  -17.9256 H   0  0  0  0  0  0  0  0  0  0  0  0
    3.1192    5.4298  -17.0722 H   0  0  0  0  0  0  0  0  0  0  0  0
    3.3959    6.4617  -18.3072 H   0  0  0  0  0  0  0  0  0  0  0  0
    3.1857    4.0832  -20.6084 H   0  0  0  0  0  0  0  0  0  0  0  0
  1  3  2  0
  1 13  1  0
  2  4  1  0
  2 13  2  0
  3 18  1  0
  4 18  2  0
  5 11  2  0
  5 12  1  0
  6 11  1  0
  6 14  2  0
  7 12  2  0
  7 14  1  0
  8 15  2  0
  8 16  1  0
  9 15  1  0
  9 17  2  0
 10 16  2  0
 10 17  1  0
 11 19  1  0
 12 20  1  0
 13 25  1  0
 14 26  1  0
 15 29  1  0
 16 45  1  0
 17 46  1  0
 18 47  1  0
 19 37  1  0
 19 40  2  0
 20 38  1  0
 20 41  2  0
 21 23  1  0
 21 36  1  0
 22 24  1  0
 22 36  1  0
 23 39  1  0
 24 34  1  0
 24 39  1  0
 27 30  1  0
 28 31  1  0
 29 35  1  0
 30 32  1  0
 31 33  1  0
 32 38  1  0
 33 38  1  0
 34 35  1  0
 34 44  1  0
 35 37  1  0
 36 47  1  0
 42 47  2  0
 43 47  2  0
  1 48  1  0
  2 49  1  0
  3 50  1  0
  4 51  1  0
  5 52  1  0
  6 53  1  0
  7 54  1  0
  8 55  1  0
  9 56  1  0
 10 57  1  0
 21 58  1  0
 21 59  1  0
 22 60  1  0
 22 61  1  0
 23 62  1  0
 23 63  1  0
 24 64  1  1
 25 65  1  0
 25 66  1  0
 25 67  1  0
 26 68  1  0
 26 69  1  0
 26 70  1  0
 27 71  1  0
 27 72  1  0
 27 73  1  0
 28 74  1  0
 28 75  1  0
 28 76  1  0
 29 77  1  0
 29 78  1  0
 30 79  1  0
 30 80  1  0
 31 81  1  0
 31 82  1  0
 32 83  1  0
 32 84  1  0
 33 85  1  0
 33 86  1  0
 34 87  1  1
 35 88  1  6
 37 89  1  0
 39 90  1  0
 39 91  1  0
 44 92  1  0
M  CHG  1  39   1
M  END
>  <OMEGA_C>  (157) 
OXC2QMFSKEERSafBXrvRQDHBC0HuxbLBuhjLQEEOH0G0d57Bhy/mQI9kAkH57qnBVWbfQAhALT2d
14bB9sgIQZ4c2T+2jX/B8u0FQeo4/b4Swm7BNcXYQCxFmz9FeavB2W6hQLTbuL4ozaXBtvfkQJwc
mL8J/qzBVtDxQJ7fqj9rRYfBgwXtQHZZYr8YAX7BBiW6QC7SHkHCeLHB/+gOQeZ+Sz/SYW/BeMKv
QF/Wdj8JKKfB2nzzQBx2Cz7ISK7BqNa7QFCjt78Qz6jBYQrjQPEfDEH9x5/B1ajjQO6uE0CNY4/B
LoPZQEmhDsCXZ3zBKlqrQOhO/EAr/YnB406+QDSQvkAKBZbBpaOJQBLx30CvnITBK0KcQPx0o0AM
NJDB24KiQClKKEFJ27rBh98fQej6lz/oUV/BFL8ZQb+SecCQnIfBFgJ2QIDpPsCm4Y7BXsKSQHAO
B0DTEKTBaR4KQdArgcB1DJHBva2VQD7oiMDEIo/BV9vwQMdoPcBrr5DB4FS4QNb9iMCzW4bBn5iH
QOAFgkCcnJfB1pGoQANcQ0BX95vBFJ/NQNLf4UCrFY/BMrW5QIDoD0CAEJPBC+fUQLS1RcC7FIfB
htZzQEi2v0CgOYzBcZ78QARNSkDgqpLBD1jNQL+kJcB1p2rBYwUCQReQD0GCZ4zBPzsMQRy43kDH
1pfBjm9lQHRIl0A0SaDBiXoNQaeQvz4uSbLBCYWtQCn0LMDevafBqlz4QLra/UC8LZTBnLqjQOS1
NkEPRqbByw7UQCBdBEGyj7rBsqjIQKtrJkHprJbB40L4QBWW50Be56rBTefGQFtacr5+g4zB20IQ
Qa7BKkAjQIDBSeEKQVl0mL+pg2LBDJvjQIahDkCunazBMCqCQOU7Db/Cc6LBQl75QH70AMCMNa/B
xcabQOn7B0HCKZDBceW5QJ6jCEGO7YPB7YzZQDn8qUB/KZjBETewQHgozEAXVZ3BKwaYQCK7z0AP
W3vBP3VdQEDt80Dx7IHBRXqrQHbbkkCncInB1EO3QDbgM0GS+b7B4YWZQKV1G0EWcsDBAXyFQDdx
MEHP/7fBrzoYQTy90j9JRVHB0c0oQRS6lT5tUlrBZO8qQRZP9D+GrmbBChEmQWXUlcDoJ4jBp2kh
QXA9OsD74YfBd/AQQXdDgMDXCoDBaldFQPgHQcAQPJXB51JWQJfvOMADD4fBEiOQQBqPB8DJKpDB
soKKQMSsK0ALS6vBn81qQO0i2j8XdaDBNhYTQeyue8Aek5jBBp0CQTX8oMD7u5DBrUaAQFlnpMBW
443BS0ClQBu3i8Ac/5bBEgUAQZTN+7/ikZDBk+zcQNeFQ8Dj5ZfBfpeoQA8GicBV+XzBq9rLQMMV
psCFNIfBjY5fQFhJYEC+65LBk5nCQEM8ZkAb+p/BVLylQEW+zj+VZ4/BM6BHQDnBrUDkk4jBvVZZ
QJPGzkAvdZLBTeNLQKqpgkD63aTB

>  <OMEGA_E>  (157) 
gNWIPQ==

>  <OMEGA_NBR>  (157) 
     15777

$$$$
50162073
     RDKit          3D

 88 91  0  0  1  0  0  0  0  0999 V2000
    6.2080   10.0845  -19.9436 C   0  0  0  0  0  0  0  0  0  0  0  0
    7.0716    8.3492  -21.3916 C   0  0  0  0  0  0  0  0  0  0  0  0
    6.9678   -0.0386  -16.8431 C   0  0  0  0  0  0  0  0  0  0  0  0
    8.5360    1.5737  -15.8897 C   0  0  0  0  0  0  0  0  0  0  0  0
    8.3130   -0.6420  -14.8987 C   0  0  0  0  0  0  0  0  0  0  0  0
    6.8620    1.2233  -21.3962 C   0  0  0  0  0  0  0  0  0  0  0  0
    5.1052   -0.3506  -20.7576 C   0  0  0  0  0  0  0  0  0  0  0  0
    7.2338   -1.1764  -21.6152 C   0  0  0  0  0  0  0  0  0  0  0  0
    5.6297   10.6931  -21.0764 C   0  0  0  0  0  0  0  0  0  0  0  0
    6.4682    9.0104  -22.4820 C   0  0  0  0  0  0  0  0  0  0  0  0
    7.5557    1.2484  -16.8520 C   0  0  0  0  0  0  0  0  0  0  0  0
    7.3606   -0.9924  -15.8785 C   0  0  0  0  0  0  0  0  0  0  0  0
    8.8924    0.6420  -14.8968 C   0  0  0  0  0  0  0  0  0  0  0  0
    5.5660    0.9741  -20.8927 C   0  0  0  0  0  0  0  0  0  0  0  0
    7.6985    0.1476  -21.7455 C   0  0  0  0  0  0  0  0  0  0  0  0
    5.9342   -1.4230  -21.1292 C   0  0  0  0  0  0  0  0  0  0  0  0
    6.9482    8.8981  -20.1006 C   0  0  0  0  0  0  0  0  0  0  0  0
    7.1322    2.2536  -17.8427 C   0  0  0  0  0  0  0  0  0  0  0  0
    6.7096   -2.3178  -15.8224 C   0  0  0  0  0  0  0  0  0  0  0  0
    5.3504    7.8989  -17.2633 C   0  0  0  0  0  0  0  0  0  0  0  0
    5.9991    5.9617  -18.7504 C   0  0  0  0  0  0  0  0  0  0  0  0
    4.3844    6.9654  -16.5267 C   0  0  0  0  0  0  0  0  0  0  0  0
    4.9732    5.0889  -17.9857 C   0  0  2  0  0  0  0  0  0  0  0  0
    9.9399    1.0003  -13.8662 C   0  0  0  0  0  0  0  0  0  0  0  0
    9.6357   -3.9765  -16.9299 C   0  0  0  0  0  0  0  0  0  0  0  0
    3.8051   -3.0296  -17.8865 C   0  0  0  0  0  0  0  0  0  0  0  0
    4.6632    2.1204  -20.5006 C   0  0  0  0  0  0  0  0  0  0  0  0
    8.6775   -4.1171  -18.1235 C   0  0  0  0  0  0  0  0  0  0  0  0
    4.6664   -4.2993  -18.0175 C   0  0  0  0  0  0  0  0  0  0  0  0
    7.5731   -3.0377  -18.0966 C   0  0  0  0  0  0  0  0  0  0  0  0
    5.7433   -4.3734  -16.9158 C   0  0  0  0  0  0  0  0  0  0  0  0
    4.3135    4.0389  -18.8969 C   0  0  2  0  0  0  0  0  0  0  0  0
    5.3366    3.0297  -19.4526 C   0  0  1  0  0  0  0  0  0  0  0  0
    5.7667   10.1584  -22.3143 N   0  0  0  0  0  0  0  0  0  0  0  0
    6.4339    7.1298  -17.9452 N   0  0  0  0  0  0  0  0  0  0  0  0
    5.8419    2.1897  -18.3540 N   0  0  0  0  0  0  0  0  0  0  0  0
    6.6516   -3.1894  -16.9341 N   0  0  0  0  0  0  0  0  0  0  0  0
    3.8917    5.9360  -17.4488 N   0  0  0  0  0  0  0  0  0  0  0  0
    7.9044    3.1439  -18.1823 O   0  0  0  0  0  0  0  0  0  0  0  0
    6.1761   -2.6286  -14.7627 O   0  0  0  0  0  0  0  0  0  0  0  0
    8.0483    9.1209  -17.6877 O   0  0  0  0  0  0  0  0  0  0  0  0
    8.7184    7.1479  -19.1476 O   0  0  0  0  0  0  0  0  0  0  0  0
    3.6449    4.7024  -19.9724 O   0  0  0  0  0  0  0  0  0  0  0  0
    8.9433    0.3867  -22.2158 F   0  0  0  0  0  0  0  0  0  0  0  0
    5.4766   -2.6897  -21.0297 F   0  0  0  0  0  0  0  0  0  0  0  0
    7.6887    8.0744  -18.6545 S   0  0  0  0  0  0  0  0  0  0  0  0
    6.0840   10.5246  -18.9652 H   0  0  0  0  0  0  0  0  0  0  0  0
    7.6219    7.4327  -21.5452 H   0  0  0  0  0  0  0  0  0  0  0  0
    6.2164   -0.2924  -17.5762 H   0  0  0  0  0  0  0  0  0  0  0  0
    9.0144    2.5416  -15.9154 H   0  0  0  0  0  0  0  0  0  0  0  0
    8.5993   -1.3618  -14.1461 H   0  0  0  0  0  0  0  0  0  0  0  0
    7.2104    2.2389  -21.5130 H   0  0  0  0  0  0  0  0  0  0  0  0
    4.1158   -0.5418  -20.3689 H   0  0  0  0  0  0  0  0  0  0  0  0
    7.8738   -2.0024  -21.8879 H   0  0  0  0  0  0  0  0  0  0  0  0
    5.0651   11.6057  -20.9550 H   0  0  0  0  0  0  0  0  0  0  0  0
    6.5673    8.5926  -23.4729 H   0  0  0  0  0  0  0  0  0  0  0  0
    4.7901    8.4728  -18.0161 H   0  0  0  0  0  0  0  0  0  0  0  0
    5.8038    8.5903  -16.5378 H   0  0  0  0  0  0  0  0  0  0  0  0
    6.8793    5.3478  -18.9922 H   0  0  0  0  0  0  0  0  0  0  0  0
    5.5367    6.3224  -19.6810 H   0  0  0  0  0  0  0  0  0  0  0  0
    4.9090    6.4843  -15.6880 H   0  0  0  0  0  0  0  0  0  0  0  0
    3.5347    7.5484  -16.1418 H   0  0  0  0  0  0  0  0  0  0  0  0
    5.4886    4.5742  -17.1614 H   0  0  0  0  0  0  0  0  0  0  0  0
    9.4520    1.4439  -12.9857 H   0  0  0  0  0  0  0  0  0  0  0  0
   10.4837    0.0926  -13.5655 H   0  0  0  0  0  0  0  0  0  0  0  0
   10.6461    1.7248  -14.2979 H   0  0  0  0  0  0  0  0  0  0  0  0
   10.4060   -4.7599  -16.9832 H   0  0  0  0  0  0  0  0  0  0  0  0
   10.1161   -2.9874  -16.9600 H   0  0  0  0  0  0  0  0  0  0  0  0
    9.0706   -4.0813  -15.9920 H   0  0  0  0  0  0  0  0  0  0  0  0
    3.0512   -3.0131  -18.6873 H   0  0  0  0  0  0  0  0  0  0  0  0
    3.3012   -3.0278  -16.9086 H   0  0  0  0  0  0  0  0  0  0  0  0
    4.4476   -2.1407  -17.9695 H   0  0  0  0  0  0  0  0  0  0  0  0
    4.4308    2.7161  -21.3957 H   0  0  0  0  0  0  0  0  0  0  0  0
    3.7320    1.7150  -20.0780 H   0  0  0  0  0  0  0  0  0  0  0  0
    9.2520   -4.0167  -19.0562 H   0  0  0  0  0  0  0  0  0  0  0  0
    8.2066   -5.1105  -18.0881 H   0  0  0  0  0  0  0  0  0  0  0  0
    4.0147   -5.1820  -17.9392 H   0  0  0  0  0  0  0  0  0  0  0  0
    5.1610   -4.2948  -19.0000 H   0  0  0  0  0  0  0  0  0  0  0  0
    8.0493   -2.0476  -18.0418 H   0  0  0  0  0  0  0  0  0  0  0  0
    6.9858   -3.1113  -19.0237 H   0  0  0  0  0  0  0  0  0  0  0  0
    5.2452   -4.4225  -15.9363 H   0  0  0  0  0  0  0  0  0  0  0  0
    6.3436   -5.2826  -17.0678 H   0  0  0  0  0  0  0  0  0  0  0  0
    3.5786    3.4820  -18.2972 H   0  0  0  0  0  0  0  0  0  0  0  0
    6.1658    3.5762  -19.9256 H   0  0  0  0  0  0  0  0  0  0  0  0
    5.2127    1.5272  -17.9476 H   0  0  0  0  0  0  0  0  0  0  0  0
    3.2416    5.3537  -16.9606 H   0  0  0  0  0  0  0  0  0  0  0  0
    3.4283    6.3856  -18.2124 H   0  0  0  0  0  0  0  0  0  0  0  0
    3.2360    4.0575  -20.5376 H   0  0  0  0  0  0  0  0  0  0  0  0
  1  9  2  0
  1 17  1  0
  2 10  1  0
  2 17  2  0
  3 11  2  0
  3 12  1  0
  4 11  1  0
  4 13  2  0
  5 12  2  0
  5 13  1  0
  6 14  2  0
  6 15  1  0
  7 14  1  0
  7 16  2  0
  8 15  2  0
  8 16  1  0
  9 34  1  0
 10 34  2  0
 11 18  1  0
 12 19  1  0
 13 24  1  0
 14 27  1  0
 15 44  1  0
 16 45  1  0
 17 46  1  0
 18 36  1  0
 18 39  2  0
 19 37  1  0
 19 40  2  0
 20 22  1  0
 20 35  1  0
 21 23  1  0
 21 35  1  0
 22 38  1  0
 23 32  1  0
 23 38  1  0
 25 28  1  0
 26 29  1  0
 27 33  1  0
 28 30  1  0
 29 31  1  0
 30 37  1  0
 31 37  1  0
 32 33  1  0
 32 43  1  0
 33 36  1  0
 35 46  1  0
 41 46  2  0
 42 46  2  0
  1 47  1  0
  2 48  1  0
  3 49  1  0
  4 50  1  0
  5 51  1  0
  6 52  1  0
  7 53  1  0
  8 54  1  0
  9 55  1  0
 10 56  1  0
 20 57  1  0
 20 58  1  0
 21 59  1  0
 21 60  1  0
 22 61  1  0
 22 62  1  0
 23 63  1  1
 24 64  1  0
 24 65  1  0
 24 66  1  0
 25 67  1  0
 25 68  1  0
 25 69  1  0
 26 70  1  0
 26 71  1  0
 26 72  1  0
 27 73  1  0
 27 74  1  0
 28 75  1  0
 28 76  1  0
 29 77  1  0
 29 78  1  0
 30 79  1  0
 30 80  1  0
 31 81  1  0
 31 82  1  0
 32 83  1  1
 33 84  1  6
 36 85  1  0
 38 86  1  0
 38 87  1  0
 43 88  1  0
M  CHG  1  38   1
M  END
>  <OMEGA_C>  (158) 
jqfGQD9aIUGRjJ/BwUriQHOWBUH1IavB4/feQINBHr2vvobBTJMIQZVvyT8GPH7B6AEFQdpYJL/s
YG7Bo5XbQKOWnD98K6vBk12jQGiGs76LD6bBI3vnQPeTlr/v66zBtya0QOQWK0F0nKjBT/vOQLIq
EEEf27PBB8jxQCjLnz/O0IbB3InrQEAOfr83Dn7Bd0cOQR9YJD8XWW7BnByyQHBbeT8sJKfBPFr2
QIEnFz659q3BsOS9QMkjtr+YCKnBzFfeQHBeDkHyzaDBFDvkQCY7EEDTvY7B2bTWQCNWFMCeKH3B
fjarQLLD/EBOG4rBU/i/QPPFvkDQAJbB+0yMQLfk3kC1NoTBRCSfQOfXokC84o/BpAkfQWoIgD/x
213BqysaQep+fsBqcIfBmIZzQIrlQcB8F4/BrjiVQNO0B0AyAaTB/NYKQQW/g8D4/JDBCFOVQLqT
icDnI5DByFbyQHVpQsDExZDBdcm3QP7yi8CFU4fBPAiKQOQ+gUDaLJfBRcWqQKzmQUD6npvBzYi4
QMaIIkG3g7LBsuLNQHwn5EDcj4/BvfC6QJwkDEAJ1ZLB6NnUQNgeTMAjeYfBQRF5QGPzvUAWl4vB
OfH8QBU2SUBMdZHB/aLFQHo6KMDaM2zBzMUAQTLvEUF9gI3BjX4LQbm75EBELpnBgkVpQOV5lkCE
x5/B0hcPQXADxj75ubHBG0CvQBUkLMDaPKjBmAn2QOYwAUFSPJXBBrDCQLhkKEGvuJfBlebzQMDY
7UCAXKzBpuzGQLywlb4cnIzBATsQQdepIkCTpX7BzJYJQRlOrr+AVmLBa7vmQJxKD0CnGqzBC7WD
QCexCr9u86LBivb7QMgnAMB7Gq/B6BSiQNSwOUHVo6fBQCfSQB17CUGRyLvBgUiZQL+QB0H0IJDB
4ri5QOpxCUF8TYTB2yLcQIIhq0AW8JfBmSyxQP1QykDEcp3BLhadQF1/z0A/AnvB+jhiQH2M8UBO
IoHBiKKvQPJfkkCLSonBejsXQZbRuD+YxU/BRb0nQYW1vT0oDFnBP1YqQffE3D83xGTB/X4mQSpR
mMCK3YfBZNshQZgxP8AZrofBLCERQbqZgsAJ33/BZEZDQGXWQMCXf5XBrkdTQBDIQcDmRIfB1FKO
QKEACcCQwY/BRcmNQAbULUBeKqvBv9huQPiF2z/Qn6DBQggUQYiIgMAJc5jBCk4DQXeJo8B0tJDB
SXiAQLjSpcBig4/BRSelQABvicANAJjB/skAQVcMA8CiVZDBdYvfQGsfR8CaMJjBcNinQO+EjcAD
+37Bd/7KQAkLqcDpiojBHgdlQNfYXkCdYJLBRU7FQJzgZECqZ5/BKs6mQMB7wz/DlI/BwHVPQLlR
q0A6r4fBBWlbQLdWzED3spHBXRtPQMzWgUAOTaTBsLPFQNeNIUFhl5/BYzTiQIL0BUGZJKvBsOne
QLOFFb0aqYbBpp8IQWwXyT8rBn7Bu8sEQYHxI78QF27BbO7bQC3cmz+rH6vBF7+jQDpStL5p6aXB
9YDnQI9vl7+r8qzBNeOyQLcYK0GMqqjByKLOQPVbEEGl4bPBufzxQJ7Cnz/svobBLUDrQEaVfb9u
0X3BKScOQVjkIz85D27B7pCyQNu4eD8JBafBO3v2QOg9Dz4B/63BZQy+QEOgtr9A9ajBFO/dQMy7
DkHN0qDBtNvkQFQnEEDeu47BHZHWQJdsFMDg3XzBzNGqQFY4/UCuIorBGhrAQDJEv0C/ApbBFTSM
QJ0g30DFOITBgWGfQEw2o0CJ5o/BldkeQeORfj9Tfl3B9Z11QIkhQ8DVI4/B5lcZQZW6gcDugYfB
2b+VQIK3B0DE56PBLcWVQHy3isCx44/B4UIKQYYBhMC6NJHBbRm4QFh5jMCGCofBia3xQGcgQsBs
r5DBNnOKQA9/gUBWL5fBilKrQItwQkBvlJvB5Za3QFmLIkG1j7LB2a3NQE7Y5EAvlY/BiGi7QAUw
DUASvJLBR8TUQOCTTMAESofB9j15QCUavkALmYvBNw7+QEjUR0AWmZHBXFHGQNH6KMAQwmvBS3oA
Qe1wEkFOgY3BmGgLQXrM5UBwKJnBfehpQJeAlkBiz5/BKBkPQe2wwD672LHBTlKvQBxTLMDLHqjB
S7H1QOWmAUG1PJXBSI/BQKqdKEEoxpfBKEL0QG7X7kCfWqzBTuDGQLdbk762iIzBj14QQWRPIkAj
cX7BFkQJQfX1rb+Y/WHBJCvnQBHeDkBNDqzBfTKEQIZyCr9MuaLBZc37QJGrAMAANK/BflCgQBuL
OUEYtqfB6hfSQEuvCUHLzbvBKLaYQCGwB0EAKpDB+ye5QOzCCUHaWITBEW3cQFvJq0BN55fBuVax
QN6cykCRep3BtSydQPfWz0BfDXvBV9FhQHqS8UD5HoHBMPKvQHfRkkBATonBKQIXQduluD+Adk/B
CXEnQYmXrD0wm1jB1kAqQbxk2z9jXGTBfnBFQFvPQsB1jpXBMlBVQKPAQMCmU4fBusuPQEMIC8C9
/4/BhIQlQWQFm8D8JIjBJz0hQZyORMD9UYfBnRAQQXw/hsCWHYDBTziOQBt8LUDaFqvBAf9vQMPP
2z/Ge6DBnYOAQJCUpsD/EI/BPqelQGG4i8AXvZfBf64TQRxDf8DxjpjB9YECQbyZo8CLWpHB1hSo
QDjajcDbbH7BqJbLQIhwqcA4KojBS6wAQcA5A8DzKJDBzl7eQO05RcB5CJjB6vJlQClKX0CAYZLB
UtbFQD9PZUBQY5/BhAWnQETHxz+wXI/BZ+FPQO9Wq0DGsIfBnWFbQFdozEAOtJHBewJQQFi8gUCQ
UaTBRunFQGYLIkEoM57BwRbgQHo0B0FEhKrBMQHfQPb2BT4+i4XBl/oKQeTZ2T/FW3/BA7gFQRRt
yr5QHWzBmO/ZQCyTlz/zOKzBXRmmQAJlz74x+KTBETLoQHILm7+PGq3BBSqyQElsLEHV6KbBU6TL
QEtsEkHw3rLBAo70QLZ2rj850YbB5FXqQCi8PL/9SHrBInYQQbrXVD/pcW7B+IWyQHKabD9UHqfB
SM/0QPRd7z20Ka/B1dbAQEZOvL+2A6jBXHbdQLsyD0FqAaDBZAjnQII/E0CmSo/BrP3QQBGW+L/c
dHbBEFCrQDhi+0BYvYnBPOS/QFawvkC3EZbBBw6MQHQP3UDcGoTBDTyfQPEvokCbHJDBqi8iQVLd
mD/CD1/Bb4ZjQHZKjsB0Lo3B/ZUWQfo5fMAB0ZXBWYWVQJdDBEDy8aPBcTSWQAzxXcAtCovBqFcB
QR0pWcAZpZHBYoe1QE5AgsCuzYLBI5MBQUHJW8AgX4XB/6mKQEDQgED4jpfB7bOrQLNLQUCa9pvB
bky1QCqjJEGY/7DB+vfNQCw840BCWo/Bgyy9QLqKDkAVDZPBBcjYQOcSSMBP2IDBL+t4QFXYvECT
t4vBSQ8AQejoSECIv5LBr/uxQOar7L/biGrB4SwBQX8MEUF61ozBWjILQVbZ5EAWSJnBiUtrQNQq
lkCxM6DBMFkNQSNBvD6g+rPBCa+0QEKwL8BJGKbBu/71QDcFAUHx3JTBaP7CQMF+KEG4N5bBHozx
QBtS8UDzKazBDszFQHbcFL6qBovBq5ETQZtWKEDqs4DBkTEKQR13ib8kcF/BcnbjQJzoDEDH3q3B
UheIQFeyGr+o/aDBb7X8QCfzAcCaba/BUyOgQCPmOkEmg6XBddbNQMNcDEGA8brBE56ZQO9MB0FF
o4/BQN65QCpYCEH8wIPBOfvbQCNAq0BdMZjBifCwQJwly0DdZp3BAIScQBP6zEB95HrBH5thQCeE
70Ae/IDBrMSvQKlxkUAmkYnBc3QbQa153z9FZ1HBq/spQcaRjT5qSVnB2gcuQauF6T/0S2fB8SI3
QNpZgMBLDpPBr8t9QPhhrMB9WpDBBhRBQC29lMCWrYXBiZkWQQ6mesA9nZ7BN88jQdGvVMBzxJLB
g6UYQVlMn8CNEZPBQKmMQDF9KECGKKvBYv9wQFAX1D8lMqDBzV6nQPcQUcBQjZLB+QKJQGHHIcBo
4IfB7ID+QIu+FsCZXpTBhC3oQLVTgMCzq5TBW3ikQP1siMBDhnbBdY7CQOp2oMBC7oXBR2gGQX4V
jsDOwYLBpDENQVJ9LMB3aoLBVttlQHSIXUCy4ZLBH3fFQNg3ZEAWE6DB6mmpQM3tyj/laY/BxhdP
QLHUqUBX94fBu5xbQIvVy0ADw5HBtt5RQCuWgUAIzqTB

>  <OMEGA_E>  (158) 
YJydPXD0mj0wg8U+

>  <OMEGA_NBR>  (158) 
     20147

$$$$
50162074
     RDKit          3D

 88 91  0  0  1  0  0  0  0  0999 V2000
    6.9059   -0.0092  -16.6624 C   0  0  0  0  0  0  0  0  0  0  0  0
    8.4939    1.5751  -15.6947 C   0  0  0  0  0  0  0  0  0  0  0  0
    8.1451   -0.5995  -14.6466 C   0  0  0  0  0  0  0  0  0  0  0  0
    7.0008    1.0961  -21.2169 C   0  0  0  0  0  0  0  0  0  0  0  0
    5.2167   -0.4554  -20.5998 C   0  0  0  0  0  0  0  0  0  0  0  0
    7.3616   -1.3093  -21.3868 C   0  0  0  0  0  0  0  0  0  0  0  0
    6.0347   10.5040  -19.6764 C   0  0  0  0  0  0  0  0  0  0  0  0
    7.5370    1.2574  -16.6832 C   0  0  0  0  0  0  0  0  0  0  0  0
    7.2081   -0.9378  -15.6443 C   0  0  0  0  0  0  0  0  0  0  0  0
    8.8061    0.6439  -14.6844 C   0  0  0  0  0  0  0  0  0  0  0  0
    5.6899    0.8647  -20.7457 C   0  0  0  0  0  0  0  0  0  0  0  0
    7.8367    0.0095  -21.5307 C   0  0  0  0  0  0  0  0  0  0  0  0
    6.0516   -1.5403  -20.9220 C   0  0  0  0  0  0  0  0  0  0  0  0
    6.7419    9.2714  -20.0366 C   0  0  0  0  0  0  0  0  0  0  0  0
    6.6290    9.1448  -21.4037 C   0  0  0  0  0  0  0  0  0  0  0  0
    7.1675    2.2487  -17.7103 C   0  0  0  0  0  0  0  0  0  0  0  0
    6.4875   -2.2248  -15.5682 C   0  0  0  0  0  0  0  0  0  0  0  0
    5.3158    7.9322  -17.3585 C   0  0  0  0  0  0  0  0  0  0  0  0
    6.0186    5.9910  -18.8407 C   0  0  0  0  0  0  0  0  0  0  0  0
    4.3879    6.9734  -16.6085 C   0  0  0  0  0  0  0  0  0  0  0  0
    5.0184    5.1083  -18.0473 C   0  0  2  0  0  0  0  0  0  0  0  0
    9.7849    1.0132  -13.5924 C   0  0  0  0  0  0  0  0  0  0  0  0
    7.1404    8.0500  -22.3103 C   0  0  0  0  0  0  0  0  0  0  0  0
    3.7617   -3.0875  -17.8934 C   0  0  0  0  0  0  0  0  0  0  0  0
    9.7776   -4.3962  -17.8602 C   0  0  0  0  0  0  0  0  0  0  0  0
    4.7786    2.0259  -20.4204 C   0  0  0  0  0  0  0  0  0  0  0  0
    4.6344   -4.3543  -17.8359 C   0  0  0  0  0  0  0  0  0  0  0  0
    8.7971   -3.8001  -16.8551 C   0  0  0  0  0  0  0  0  0  0  0  0
    5.5786   -4.3221  -16.6210 C   0  0  0  0  0  0  0  0  0  0  0  0
    7.5972   -3.1637  -17.5862 C   0  0  0  0  0  0  0  0  0  0  0  0
    4.3824    4.0132  -18.9185 C   0  0  2  0  0  0  0  0  0  0  0  0
    5.4236    2.9860  -19.3979 C   0  0  1  0  0  0  0  0  0  0  0  0
    5.5809   11.0565  -20.7726 N   0  0  0  0  0  0  0  0  0  0  0  0
    6.4083    7.2062  -18.0756 N   0  0  0  0  0  0  0  0  0  0  0  0
    5.8867    2.1982  -18.2457 N   0  0  0  0  0  0  0  0  0  0  0  0
    6.4613   -3.1248  -16.6494 N   0  0  0  0  0  0  0  0  0  0  0  0
    3.9173    5.9356  -17.5282 N   0  0  0  0  0  0  0  0  0  0  0  0
    7.9723    3.1034  -18.0667 O   0  0  0  0  0  0  0  0  0  0  0  0
    5.9536   -2.5176  -14.5042 O   0  0  0  0  0  0  0  0  0  0  0  0
    8.1090    9.1033  -17.7603 O   0  0  0  0  0  0  0  0  0  0  0  0
    8.5444    7.3413  -19.5320 O   0  0  0  0  0  0  0  0  0  0  0  0
    5.9466   10.2343  -21.8581 O   0  0  0  0  0  0  0  0  0  0  0  0
    3.7283    4.6169  -20.0367 O   0  0  0  0  0  0  0  0  0  0  0  0
    9.0921    0.2334  -21.9796 F   0  0  0  0  0  0  0  0  0  0  0  0
    5.5937   -2.8040  -20.7896 F   0  0  0  0  0  0  0  0  0  0  0  0
    7.6040    8.2113  -18.8120 S   0  0  0  0  0  0  0  0  0  0  0  0
    6.1900   -0.2659  -17.4292 H   0  0  0  0  0  0  0  0  0  0  0  0
    8.9883    2.5351  -15.7130 H   0  0  0  0  0  0  0  0  0  0  0  0
    8.3571   -1.2969  -13.8497 H   0  0  0  0  0  0  0  0  0  0  0  0
    7.3613    2.1072  -21.3363 H   0  0  0  0  0  0  0  0  0  0  0  0
    4.2138   -0.6333  -20.2408 H   0  0  0  0  0  0  0  0  0  0  0  0
    8.0018   -2.1435  -21.6330 H   0  0  0  0  0  0  0  0  0  0  0  0
    5.9095   10.8907  -18.6758 H   0  0  0  0  0  0  0  0  0  0  0  0
    4.7236    8.4982  -18.0928 H   0  0  0  0  0  0  0  0  0  0  0  0
    5.7665    8.6285  -16.6360 H   0  0  0  0  0  0  0  0  0  0  0  0
    6.9215    5.4008  -19.0561 H   0  0  0  0  0  0  0  0  0  0  0  0
    5.5486    6.3005  -19.7859 H   0  0  0  0  0  0  0  0  0  0  0  0
    4.9365    6.5063  -15.7774 H   0  0  0  0  0  0  0  0  0  0  0  0
    3.5265    7.5308  -16.2120 H   0  0  0  0  0  0  0  0  0  0  0  0
    5.5530    4.6332  -17.2115 H   0  0  0  0  0  0  0  0  0  0  0  0
    9.2462    1.4983  -12.7651 H   0  0  0  0  0  0  0  0  0  0  0  0
   10.2820    0.1041  -13.2230 H   0  0  0  0  0  0  0  0  0  0  0  0
   10.5389    1.7056  -13.9949 H   0  0  0  0  0  0  0  0  0  0  0  0
    6.8744    8.2819  -23.3522 H   0  0  0  0  0  0  0  0  0  0  0  0
    8.2343    7.9792  -22.2185 H   0  0  0  0  0  0  0  0  0  0  0  0
    6.6852    7.0915  -22.0204 H   0  0  0  0  0  0  0  0  0  0  0  0
    3.0985   -3.1379  -18.7695 H   0  0  0  0  0  0  0  0  0  0  0  0
    3.1554   -3.0182  -16.9782 H   0  0  0  0  0  0  0  0  0  0  0  0
    4.4077   -2.2007  -17.9732 H   0  0  0  0  0  0  0  0  0  0  0  0
   10.6261   -4.8453  -17.3233 H   0  0  0  0  0  0  0  0  0  0  0  0
    9.2687   -5.1698  -18.4541 H   0  0  0  0  0  0  0  0  0  0  0  0
   10.1448   -3.6034  -18.5284 H   0  0  0  0  0  0  0  0  0  0  0  0
    4.5642    2.5812  -21.3454 H   0  0  0  0  0  0  0  0  0  0  0  0
    3.8396    1.6359  -20.0008 H   0  0  0  0  0  0  0  0  0  0  0  0
    3.9820   -5.2368  -17.7606 H   0  0  0  0  0  0  0  0  0  0  0  0
    5.2344   -4.4193  -18.7556 H   0  0  0  0  0  0  0  0  0  0  0  0
    8.4343   -4.5955  -16.1874 H   0  0  0  0  0  0  0  0  0  0  0  0
    9.3104   -3.0291  -16.2617 H   0  0  0  0  0  0  0  0  0  0  0  0
    4.9765   -4.3009  -15.7007 H   0  0  0  0  0  0  0  0  0  0  0  0
    6.2034   -5.2274  -16.6296 H   0  0  0  0  0  0  0  0  0  0  0  0
    7.8532   -2.1425  -17.9049 H   0  0  0  0  0  0  0  0  0  0  0  0
    7.3339   -3.7676  -18.4671 H   0  0  0  0  0  0  0  0  0  0  0  0
    3.6398    3.4814  -18.3056 H   0  0  0  0  0  0  0  0  0  0  0  0
    6.2676    3.5107  -19.8695 H   0  0  0  0  0  0  0  0  0  0  0  0
    5.2299    1.5793  -17.8150 H   0  0  0  0  0  0  0  0  0  0  0  0
    3.2721    5.3449  -17.0436 H   0  0  0  0  0  0  0  0  0  0  0  0
    3.4540    6.3742  -18.2982 H   0  0  0  0  0  0  0  0  0  0  0  0
    3.3346    3.9415  -20.5764 H   0  0  0  0  0  0  0  0  0  0  0  0
  1  8  2  0
  1  9  1  0
  2  8  1  0
  2 10  2  0
  3  9  2  0
  3 10  1  0
  4 11  2  0
  4 12  1  0
  5 11  1  0
  5 13  2  0
  6 12  2  0
  6 13  1  0
  7 14  1  0
  7 33  2  0
  8 16  1  0
  9 17  1  0
 10 22  1  0
 11 26  1  0
 12 44  1  0
 13 45  1  0
 14 15  2  0
 14 46  1  0
 15 23  1  0
 15 42  1  0
 16 35  1  0
 16 38  2  0
 17 36  1  0
 17 39  2  0
 18 20  1  0
 18 34  1  0
 19 21  1  0
 19 34  1  0
 20 37  1  0
 21 31  1  0
 21 37  1  0
 24 27  1  0
 25 28  1  0
 26 32  1  0
 27 29  1  0
 28 30  1  0
 29 36  1  0
 30 36  1  0
 31 32  1  0
 31 43  1  0
 32 35  1  0
 33 42  1  0
 34 46  1  0
 40 46  2  0
 41 46  2  0
  1 47  1  0
  2 48  1  0
  3 49  1  0
  4 50  1  0
  5 51  1  0
  6 52  1  0
  7 53  1  0
 18 54  1  0
 18 55  1  0
 19 56  1  0
 19 57  1  0
 20 58  1  0
 20 59  1  0
 21 60  1  1
 22 61  1  0
 22 62  1  0
 22 63  1  0
 23 64  1  0
 23 65  1  0
 23 66  1  0
 24 67  1  0
 24 68  1  0
 24 69  1  0
 25 70  1  0
 25 71  1  0
 25 72  1  0
 26 73  1  0
 26 74  1  0
 27 75  1  0
 27 76  1  0
 28 77  1  0
 28 78  1  0
 29 79  1  0
 29 80  1  0
 30 81  1  0
 30 82  1  0
 31 83  1  1
 32 84  1  6
 35 85  1  0
 37 86  1  0
 37 87  1  0
 43 88  1  0
M  CHG  1  37   1
M  END
>  <OMEGA_C>  (159) 
If3cQACEFryuTIXBN+cHQXqcyT9LHXvBfVICQa55Gb99WGrBnQbgQA5OjD87vKnBQO+mQHcl6b5c
zKTBAJLrQAKYp79BGKvBhxzBQEwQKEE6aZ3BIi/xQN/yoD8gd4XB4ajmQG4TcL80T3rBouUMQc3W
JD9g82rBlBO2QKRaXT8v96XBUMb6QMBkGzztPqzBmKbBQAMoxb9ZYKfBSb3XQJVXFEH8SqDBciDU
QC1REkGyOqvBjFzlQHzqD0C6ro3BWZnPQNxiDsB8F3nBqhqqQNvU/UBG3orBKpjAQFG2v0C4uZbB
b2mMQMgl30BN3oTB3ZagQJh3o0DgYJDB+44cQR2vgT+YelnBSn7kQPPMAEGXe7LB8r9wQCWZRcCq
JY/B7XAcQcGtjMCv4Y7BkOqYQAWoAUAHXaPBykyUQNRWi8Dsr47B8MAMQZY1c8Az14bBwYOyQP5O
isDf94TBChzzQFJ6SsCSsIzByTyMQIFsgEAUWZfB+Y2tQOUaP0DTLpvBzpayQErnMEE5LqbBbBDN
QDaZ5kDdmpDB/V+8QFevDEAg95HB+sLOQF79R8DvMYXBMLV6QCHwvUDMOYzB9hz/QFydRkCviJDB
soO+QKogIcAFEWjBcb4BQRanEUEjFY7BsLUIQQLs6kCcQZzBKEq+QJa/I0Fq3a7BxJxuQOG9k0As
S6DBG3kRQeQBbz4f1q/B0P+yQEB1M8AtUabBnlPzQE5hA0EAf5bBPxTGQGQjiL4Kb4vBIdAPQXM/
IkCLaHvB4rYFQUEBpr9MmF3BHZDrQKfbBkCpsKrBTNeGQBkgIr8g7aHBiAcAQX8vCcBMEK3Bixq9
QCpALkEDaJXBIiiXQIr4B0ECvpDBzYa4QF8OCkGBFoXB03zdQGrTrEDxcpjBbI6xQIedyUB3SZ7B
ovedQHsz0EAScHzBf7FhQDD88EAssoHB/7GxQHhDlEA4sYnBi/ATQebHvz/dPUzBJoMkQV4n1T2F
kVPBbp8oQapR2j/+6l/BvPrbQK2CBEFM0brBnL8DQW9V/0Bqv7HBkO3VQKLt4kDcKbDBDE5GQA/T
SMAAKJbBpfFJQHIqQcBg04fB+AuNQLTYDMAkyY/BrQQqQQ0Nm8A4lorBuUwUQadupcD6oZPBLVEi
QWKdZsAwOpTB2g2SQMUyJUBpw6rBa7t1QDVm0T+gAaDBWdl+QAiUp8CnFY7B0n+nQClrjcBrC5bB
w/IGQUoOk8DVf4HBN/cUQafcQcALGILB4T+fQN2gicDdNXvBdILGQOZGp8B7CYXBlk37QMgeCcBB
PY/BLa/qQOQfccC3vJPBn/JoQLLPXkDGcZLB6I/IQBevYECq9J7BHVunQEkmyj8LhY7Bl2pRQD0J
q0BWWYjBLg5dQKb5y0DGYpLB3GlVQA5BfEBlnKTBO+DdQMCs8Ds+J4bBVYoIQShbyj9m73zBQQwE
QYfYIb/QIm3BJJPdQHRPpD8AtarBQdWlQIy7n76vtKXB3TDqQDQijr/3oKzBPofqQL6M+0AuDq3B
Hb3xQCyXoz8gOobB7HzpQNvXdL9L3nzB5cMNQTmbIz88A23BxSO0QORogj8WuabBu6v4QDj/Xz7l
kK3Bvr7AQF/Xr79luajB/mDgQF9XCkFbfKPBeyLIQFBuG0F246bBVQ/lQOFUEkB3N47BuWvUQLvj
EcA5gXzBbQeoQKTo/0C0uYrB5/a/QKZwwEC/1JXBHryLQCxX4UDiP4TBo6ufQAZapEDWho/Bdn8e
QdC5eD92YFzB7ru0QExXLUGLY6DBXX12QKO0RMBzIo/B2OcWQZTHmcB3n47BGdWWQET8CUBSl6PB
RsGYQKJ5icDucpDBoKwRQV+rVsA3q4vBUcm6QN7gi8Bzh4fB8Tn2QP8sPcA3oY/BCc6KQMArgkBg
tpbBBuqrQA6UREBTKZvB64zZQF1NB0EDXLXBl6HLQBQ46EA+BZDBvta7QKQPD0DPWJLBO6bVQNNT
ScD9JofBcRh5QHzCvkC+NYvBeU3+QPZFSkBZ+JDB6fnCQNkSKMBS1GvB5Xj3QB87F0Hb24/BzDAM
QQqf6kCjaJfBsBzEQLfHGUH9t7HBiGRpQFTAlkAtT5/BlT0QQSJI8j7ERrHBmbSyQLJgKcA/66fB
LhHzQFVYA0EKB5bBtbHFQKslaL4ACYzB2YwQQc1oIkDVRH3BfFcIQQQ5rr89IWHBO3PoQNZoE0De
jqvBcTuGQJwMBL9ynKLBgN7+QIC+9r96567B9+T8QCZI3kDyOa3BZG+UQFjaB0Gk4JDB2pC1QFAY
DEHPU4XB7jbdQMqvrUCOPZfBnImxQGQ+yUDijJ3BlGmeQKmz00AgO3vBBE1gQJT78kAWBYHBfKuw
QARZlEDo8IjB57sWQadftj8+WE7BEtMmQe8xUj01hFfBKB4qQf0a1z84KmPBon+jQPVaOEFJu6XB
CU2eQB+gJkFDf5rB1kXOQKMWNkExM5zBhh9HQN3UQ8DZpJXBNTZVQHCTSMAYZYfB3X2OQJDOCcBp
bI/BMwInQW3mocBxtYvBEhoLQepCr8Cl6YrBJVsWQbmDncBxXpfB01OPQLoSMEAOwKrBgjhyQNy9
3j8fQKDBcSqFQDm0psCqM5DBNA2pQMlRh8D7OpjBZ1MSQVahT8BC64LBepQdQfUiLMAOYI/B6Iqq
QDbAj8CWkH/BAozPQF6up8BYAonBqpj2QD3k8r9NB5LBNMLtQI4YZcDpj5bB5IxnQBc9YEAs0pHB
k23GQAUPaEB94Z7Bl3inQFZbyj/ZFI/BE+RRQGHrq0Cw/YbBd/ZYQAOqy0CRVJHB1JVPQAC+gUBb
waPBD5PeQKhpmr1cfYbBCTgIQWT8wz8ITX3BTfMDQb6sLL8nQ23BBIfdQLgxlj+d9KrB9bGkQKT4
wr7i4qXBLLnoQLuQnb+Zm6zB34DBQKQlKUHsMJzB7MfxQER+mj+eh4bBKR/qQIk4g7/2QX3B8GAN
QSy2Gj/zJm3B0N+zQNlfcD8B/6bBdw74QEp1tD2Jpq3BC/W+QBtHu783x6jB9V/WQLJUFUFEqZ/B
WA3QQDrvE0Gvi6rBNDnlQIGHDUDVlI7BWAXVQMozFsCBYHzBXPiqQHJt/UCaf4rBNnTAQMMHwEBo
sJbBCPeNQBJe3kC0aYTBsfygQGxSo0C9SpDBCLQdQXrTdj/WPlzB64zeQBveAkFhS7LBoTAZQfls
gsAkpobB0KV1QDEyRMA+ao/BbzeXQMkvBkBzAKTBp10KQSqchcDjbZDBynSVQDqIi8Am6o/B0M7x
QKxhRcC/OZDBsPK2QMFjjcCa3YbByNWLQC36gEDAV5fBVZisQNatQEDHnJvBFLGwQAlvMkFClKTB
x3DNQFWN5kAmf5DBAfa7QFsnC0AutJLB3PjTQMjyTsDr/YbBiFx8QLl4vUCbxYvB0Zj+QNM9RUAg
VpHBf4PDQMWSKcANfmvB/HUCQcQhEUGN+I3BNPsHQevV60AvyJzBFXy5QPuVJUHela3B/BlsQDlS
lUBTBaDBeBQQQXGWoD4GSbHBO/KvQMtrLsAP66fBFSfzQG6PA0G2eJbBzwjHQGk4qL6Je4zBqQUQ
QUemH0DYon3BYyUIQVkEsr9QB2HB+QDpQMLXC0De6avBHOiEQGh6D7/e0KLBI/z8QCgbBMB5vq7B
DjfAQPgUL0FEFZTBLWuXQHvcB0HuNZDBYNu5QCnBCUFzvoTBvTTdQApHrUD/opjBNsewQNdiykB9
IZ7BrjugQI4fz0D62nvBk2plQGT870CSAYHBt7OyQFJ2k0CWzYnBuI0VQauUtT+zcU7BmikmQVgI
Yz2rEVfBXkYpQUgO1z8c7WLBuhPUQJ4XB0EPbbrBlNQAQQesAUFPGrLB4nrQQFfO5kA//6/B62Ql
QdO7m8ClEIfB5A8hQVfjRcDslYbBnbgPQZBPhsACl37Bo7dGQBHfQ8Bv+ZXB1OFTQDb3QMAstIfB
BSiQQLeODMApNZDBhUKQQOP3K0B3OKvB5FJyQGnu2T+graDBiPoTQUHegcC5vZfBQaMCQSY8pcBP
c5DB2bB/QFonp8B/KY/Bhw+mQBvzjMB7qpfBSbIAQa1lBsCks4/B6DnfQN8/ScATr5fBjjGmQDt2
jsAZQ37BQUfKQGOMqsCu1ofBiwdpQMccX0AWZZLBvH3HQAP0YkBGVp/B3TqnQLh2xD8mZI/BjytU
QJ1GqkBEzofBOB9dQNDIy0B+xJHBUd1RQG03gEASZqTB

>  <OMEGA_E>  (159) 
+B6QPhhBkj4IMVI+

>  <OMEGA_NBR>  (159) 
     24517

$$$$
50162079
     RDKit          3D

 86 89  0  0  1  0  0  0  0  0999 V2000
    5.7126   10.3391  -21.4025 C   0  0  0  0  0  0  0  0  0  0  0  0
    6.2309    9.9720  -20.0759 C   0  0  0  0  0  0  0  0  0  0  0  0
    6.9842   -0.0056  -16.8497 C   0  0  0  0  0  0  0  0  0  0  0  0
    8.5339    1.6199  -15.8868 C   0  0  0  0  0  0  0  0  0  0  0  0
    8.3116   -0.5930  -14.8893 C   0  0  0  0  0  0  0  0  0  0  0  0
    6.8519    1.2475  -21.3723 C   0  0  0  0  0  0  0  0  0  0  0  0
    5.1090   -0.3457  -20.7437 C   0  0  0  0  0  0  0  0  0  0  0  0
    7.2411   -1.1471  -21.6157 C   0  0  0  0  0  0  0  0  0  0  0  0
    6.0927    9.4506  -22.3799 C   0  0  0  0  0  0  0  0  0  0  0  0
    7.5626    1.2857  -16.8552 C   0  0  0  0  0  0  0  0  0  0  0  0
    7.3705   -0.9524  -15.8758 C   0  0  0  0  0  0  0  0  0  0  0  0
    8.9113    0.6810  -14.9079 C   0  0  0  0  0  0  0  0  0  0  0  0
    5.5591    0.9840  -20.8671 C   0  0  0  0  0  0  0  0  0  0  0  0
    7.6953    0.1815  -21.7347 C   0  0  0  0  0  0  0  0  0  0  0  0
    5.9455   -1.4083  -21.1267 C   0  0  0  0  0  0  0  0  0  0  0  0
    6.9898    8.8270  -20.1083 C   0  0  0  0  0  0  0  0  0  0  0  0
    7.1352    2.2846  -17.8492 C   0  0  0  0  0  0  0  0  0  0  0  0
    6.7286   -2.2818  -15.8169 C   0  0  0  0  0  0  0  0  0  0  0  0
    5.3357    7.9287  -17.2922 C   0  0  0  0  0  0  0  0  0  0  0  0
    5.9749    5.9663  -18.7420 C   0  0  0  0  0  0  0  0  0  0  0  0
    4.3457    7.0196  -16.5553 C   0  0  0  0  0  0  0  0  0  0  0  0
    4.9340    5.1131  -17.9799 C   0  0  2  0  0  0  0  0  0  0  0  0
    9.9032    1.0661  -13.8335 C   0  0  0  0  0  0  0  0  0  0  0  0
    3.8804   -3.0229  -17.9088 C   0  0  0  0  0  0  0  0  0  0  0  0
    9.6325   -4.0085  -16.9615 C   0  0  0  0  0  0  0  0  0  0  0  0
    4.6439    2.1201  -20.4713 C   0  0  0  0  0  0  0  0  0  0  0  0
    4.7282   -4.3056  -18.0029 C   0  0  0  0  0  0  0  0  0  0  0  0
    8.6844   -4.0814  -18.1693 C   0  0  0  0  0  0  0  0  0  0  0  0
    5.7992   -4.3612  -16.8950 C   0  0  0  0  0  0  0  0  0  0  0  0
    7.5932   -2.9929  -18.0952 C   0  0  0  0  0  0  0  0  0  0  0  0
    4.2827    4.0556  -18.8890 C   0  0  2  0  0  0  0  0  0  0  0  0
    5.3140    3.0492  -19.4386 C   0  0  1  0  0  0  0  0  0  0  0  0
    6.4194    7.1309  -17.9404 N   0  0  0  0  0  0  0  0  0  0  0  0
    5.8336    2.2287  -18.3327 N   0  0  0  0  0  0  0  0  0  0  0  0
    6.6908   -3.1651  -16.9203 N   0  0  0  0  0  0  0  0  0  0  0  0
    3.8537    5.9781  -17.4665 N   0  0  0  0  0  0  0  0  0  0  0  0
    7.9161    3.1543  -18.2210 O   0  0  0  0  0  0  0  0  0  0  0  0
    6.1998   -2.5944  -14.7554 O   0  0  0  0  0  0  0  0  0  0  0  0
    8.0558    9.1091  -17.7010 O   0  0  0  0  0  0  0  0  0  0  0  0
    8.7213    7.0927  -19.1122 O   0  0  0  0  0  0  0  0  0  0  0  0
    3.6147    4.7101  -19.9704 O   0  0  0  0  0  0  0  0  0  0  0  0
    8.9366    0.4345  -22.2070 F   0  0  0  0  0  0  0  0  0  0  0  0
    5.5007   -2.6800  -21.0304 F   0  0  0  0  0  0  0  0  0  0  0  0
    7.0846    8.1735  -21.7245 S   0  0  0  0  0  0  0  0  0  0  0  0
    7.6999    8.0413  -18.6451 S   0  0  0  0  0  0  0  0  0  0  0  0
    5.1013   11.2098  -21.5880 H   0  0  0  0  0  0  0  0  0  0  0  0
    6.0368   10.5387  -19.1773 H   0  0  0  0  0  0  0  0  0  0  0  0
    6.2453   -0.2678  -17.5925 H   0  0  0  0  0  0  0  0  0  0  0  0
    8.9891    2.5992  -15.8969 H   0  0  0  0  0  0  0  0  0  0  0  0
    8.5739   -1.2987  -14.1150 H   0  0  0  0  0  0  0  0  0  0  0  0
    7.1924    2.2667  -21.4802 H   0  0  0  0  0  0  0  0  0  0  0  0
    4.1219   -0.5481  -20.3551 H   0  0  0  0  0  0  0  0  0  0  0  0
    7.8862   -1.9655  -21.8993 H   0  0  0  0  0  0  0  0  0  0  0  0
    5.8134    9.5324  -23.4199 H   0  0  0  0  0  0  0  0  0  0  0  0
    4.7959    8.4958  -18.0649 H   0  0  0  0  0  0  0  0  0  0  0  0
    5.7860    8.6276  -16.5719 H   0  0  0  0  0  0  0  0  0  0  0  0
    6.8482    5.3394  -18.9751 H   0  0  0  0  0  0  0  0  0  0  0  0
    5.5234    6.3285  -19.6774 H   0  0  0  0  0  0  0  0  0  0  0  0
    4.8506    6.5475  -15.6997 H   0  0  0  0  0  0  0  0  0  0  0  0
    3.4974    7.6199  -16.1948 H   0  0  0  0  0  0  0  0  0  0  0  0
    5.4347    4.6052  -17.1425 H   0  0  0  0  0  0  0  0  0  0  0  0
    9.3672    1.5051  -12.9792 H   0  0  0  0  0  0  0  0  0  0  0  0
   10.4505    0.1712  -13.5021 H   0  0  0  0  0  0  0  0  0  0  0  0
   10.6141    1.8019  -14.2376 H   0  0  0  0  0  0  0  0  0  0  0  0
    3.1298   -3.0191  -18.7129 H   0  0  0  0  0  0  0  0  0  0  0  0
    3.3729   -2.9898  -16.9334 H   0  0  0  0  0  0  0  0  0  0  0  0
    4.5332   -2.1437  -18.0126 H   0  0  0  0  0  0  0  0  0  0  0  0
   10.3958   -4.7961  -17.0459 H   0  0  0  0  0  0  0  0  0  0  0  0
   10.1225   -3.0240  -16.9391 H   0  0  0  0  0  0  0  0  0  0  0  0
    9.0575   -4.1531  -16.0350 H   0  0  0  0  0  0  0  0  0  0  0  0
    4.3912    2.7050  -21.3680 H   0  0  0  0  0  0  0  0  0  0  0  0
    3.7245    1.7033  -20.0343 H   0  0  0  0  0  0  0  0  0  0  0  0
    4.0666   -5.1788  -17.9038 H   0  0  0  0  0  0  0  0  0  0  0  0
    5.2269   -4.3327  -18.9830 H   0  0  0  0  0  0  0  0  0  0  0  0
    9.2679   -3.9411  -19.0912 H   0  0  0  0  0  0  0  0  0  0  0  0
    8.2029   -5.0703  -18.1870 H   0  0  0  0  0  0  0  0  0  0  0  0
    5.2970   -4.4094  -15.9175 H   0  0  0  0  0  0  0  0  0  0  0  0
    6.4114   -5.2638  -17.0376 H   0  0  0  0  0  0  0  0  0  0  0  0
    8.0807   -2.0094  -18.0239 H   0  0  0  0  0  0  0  0  0  0  0  0
    6.9888   -3.0368  -19.0133 H   0  0  0  0  0  0  0  0  0  0  0  0
    3.5490    3.4968  -18.2896 H   0  0  0  0  0  0  0  0  0  0  0  0
    6.1347    3.5984  -19.9231 H   0  0  0  0  0  0  0  0  0  0  0  0
    5.2045    1.5843  -17.8979 H   0  0  0  0  0  0  0  0  0  0  0  0
    3.1942    5.4089  -16.9754 H   0  0  0  0  0  0  0  0  0  0  0  0
    3.4013    6.4190  -18.2417 H   0  0  0  0  0  0  0  0  0  0  0  0
    3.2113    4.0603  -20.5338 H   0  0  0  0  0  0  0  0  0  0  0  0
  1  2  1  0
  1  9  2  0
  2 16  2  0
  3 10  2  0
  3 11  1  0
  4 10  1  0
  4 12  2  0
  5 11  2  0
  5 12  1  0
  6 13  2  0
  6 14  1  0
  7 13  1  0
  7 15  2  0
  8 14  2  0
  8 15  1  0
  9 44  1  0
 10 17  1  0
 11 18  1  0
 12 23  1  0
 13 26  1  0
 14 42  1  0
 15 43  1  0
 16 44  1  0
 16 45  1  0
 17 34  1  0
 17 37  2  0
 18 35  1  0
 18 38  2  0
 19 21  1  0
 19 33  1  0
 20 22  1  0
 20 33  1  0
 21 36  1  0
 22 31  1  0
 22 36  1  0
 24 27  1  0
 25 28  1  0
 26 32  1  0
 27 29  1  0
 28 30  1  0
 29 35  1  0
 30 35  1  0
 31 32  1  0
 31 41  1  0
 32 34  1  0
 33 45  1  0
 39 45  2  0
 40 45  2  0
  1 46  1  0
  2 47  1  0
  3 48  1  0
  4 49  1  0
  5 50  1  0
  6 51  1  0
  7 52  1  0
  8 53  1  0
  9 54  1  0
 19 55  1  0
 19 56  1  0
 20 57  1  0
 20 58  1  0
 21 59  1  0
 21 60  1  0
 22 61  1  1
 23 62  1  0
 23 63  1  0
 23 64  1  0
 24 65  1  0
 24 66  1  0
 24 67  1  0
 25 68  1  0
 25 69  1  0
 25 70  1  0
 26 71  1  0
 26 72  1  0
 27 73  1  0
 27 74  1  0
 28 75  1  0
 28 76  1  0
 29 77  1  0
 29 78  1  0
 30 79  1  0
 30 80  1  0
 31 81  1  1
 32 82  1  6
 34 83  1  0
 36 84  1  0
 36 85  1  0
 41 86  1  0
M  CHG  1  36   1
M  END
>  <OMEGA_C>  (160) 
Yc22QMJsJUFlOKvBo2PHQC+NH0GGm6DBvn7fQC53trtEzIbB6YoIQepXzz9AMH7BJPwEQfTLF79i
Om7BekLbQAmunz95+qrBCn2jQDb7sL4g86XBd7fnQIDUkr/v7KzBs/fCQH41F0EMCrPBtwDyQI+S
pD9k14bBGNvrQJbNc78iA37BppQOQd5ULj+0hm7BLuSxQF7kez/R76bBlz/2QCriOT6m4K3BwUG+
QMlCtL94A6nB2azfQEw7DUHP3aDBlVPkQEI2EkAjy47Bl1DXQKgIEsAgEn3BHL6qQBe4/UBVVorB
czK/QPXrvkCN75XByQ+LQLOg4EBFcYTBj+OdQCeeo0Dg1o/BrXMeQbF0iD/qVV3BP1l4QPJ3QcA6
RY/BrR4aQepFgMA8sYfBipqUQIavB0BOxaPBuk2XQDfHicDjBZDBefMKQRebgsCyWpHBtZK5QJaO
i8D0KIfBa/vyQDOLP8AIw5DBDQyJQBTHgUC5HJfB5wuqQCQmQ0BMgpvBjmvNQIIw5EDghY/BnKy6
QFyiDkBtqZLBtBrWQKCRSsDRXIfBmKJ2QMlMv0Bvu4vBe1D9QK7fSUCxxJHBCGXGQBEKJsD+FWzB
fOQAQcm+EUGfm43Bn4oLQRH34kDU5ZjBLVdnQFO5lkBdw5/BO/wOQZZw3j7bp7HBZgWwQHmFK8BS
PqjBJLXiQLzGAkGzy63BVWX2QA6pAEFCKZXBfj2jQIpbM0FLtKzBhy3BQJ2eKEEoa5nBz9nHQFIi
ib5mvYzBfNMPQTJZJkCeWX7BtS4JQR07pr/h1mHBOijmQLIREUB/16vBiuaDQClQDL9E16LBC1z8
QGeW+7/UMa/BSge6QKaEGEEJXLvBUXiZQKjuB0HhhJDBRSe5QK8KCkFFk4TBxSTbQLHcqkDyzJfB
UL+wQK+CykA4a53BajibQNaE0UDpMXvBo9RfQG3W80DrjoHBZumtQINdk0DEI4nBCeAVQUqowD+a
qk/BQTUnQXBWLz7ICFjBLNMpQSWk5j8ozWPBHU9IQKU5QcAAtJXB/91XQCNYP8Czd4fBHhCRQPEx
CcDEGZDBV1UmQUp5mcD5XYjB2vUhQb6IQcBXg4fBnusQQUrmhMCkR4DBV4SMQHQeLUC08arBw11u
QKwG2j8vRqDBxCGCQFy4pcANO4/B40KnQEOlisAf3ZfBQEkUQVw7fMDCupjBBD8DQZk/osAPf5HB
+ICpQG0ZjcAQrn7BLyrNQFBxqMABTYjBukoBQRyaAMDxMJDBF6TfQFFaQsAjG5jBGSJjQD7LX0AC
UZLBkU/EQJBMZkB9Yp/BEoumQPLLyj/VLo/Bc25MQPYVrUCvzYfBpK5ZQKFozUAR75HBc4ZNQLTt
gUBTRaTBMSjEQHXcF0Hzk7HBZjbcQBAKCUGtrarBJErfQCCgWbwZn4bBLccIQSzczT/GSX7BKgwF
QW+XF7/X7m3BxX3bQMqelj/MBKvB7S2jQOIsxb4uvqXBoe3mQJD2nL9AtazBEJGzQPTmKEH1/6vB
njzyQCbYoj9C1IbB0LnrQNF/dL/+k33B0WAOQXp5MD/oKW7BKxeyQGfabz9T6abBu//1QDwtwj02
0a3Bwm+9QEJku78tuKjBwjTdQAaxD0E3M6DBuNXkQH/jEECb447BQQHXQKoHEsC1W3zBiiarQHbU
/EBzR4rBr7a/QIMAv0D/Q5bB3LmLQPEc30CAhYTBbrSeQF86o0BzMpDBPRwfQeRJhz+ys13B9p12
QMgARMDe/o7B708ZQfBFgcDQY4fBa0GVQIrIBUBg5qPBxGaWQHYoi8C1aI/BkB0KQfB6g8CNC5HB
qJq4QJfUi8ANhYbBI3nxQE/6QMCic5DB/+qJQE5qgUB/d5fBV9yqQGK9QUDIt5vBbsbNQNIZ5EBa
vI/Bxiu7QE3MDUBXxJLBhALVQN30SsDv9IbBBR14QP9+vkA8AIzBRwb+QFz4R0De7ZHBtrHGQDqS
JcDAMGvB+KMBQb8EEUG4UY3B8LUKQePm5EAWCprBMMhpQFJLlkD7LqDBPuYOQVKUpj66orHBb62u
QJqgLsCDyqfBPvnAQDWIJ0FofJ7Bx+71QHgvAUFQVpXBIAHAQL2YFUGNFLrBeFrrQG4s9UBjhq3B
30HHQBDMjL6Hd4zBpH0QQfa7JEDw5n7B84sJQRaSpr+hs2HB9cnmQD0mDECZAqzBcJeDQDe0Eb/P
j6LBiC77QMOhA8BM6q7B6KegQGCENUGUia/BqZuZQDvQB0EWSpDBV7W5QGxICUErZITBV8PbQJo5
q0BsOJjBgwyxQDjXykCssp3Bfw6cQNlpz0BrknvBjhhhQIzs8UDBfoHBOfuuQA/vkkDIionB7koX
QYHWwT8ZvE/BSbwnQQDCGj6Kq1jBynoqQYjl4j+AumTBqqpGQOJYRcDCb5XBxQdWQBbbP8BaNofB
KDyQQOMDDMBQCpDB8nYlQR+XmsB0EYjBQDohQcWuQ8DkN4fBFx4QQZjMhcCz8X/B14iNQEOXKkAT
JqvB4TZvQAl92D8zZKDB1jGBQKP2psBPZ47BHGqmQAkLjcBGO5fBeHITQewvfsDibJjBTlYCQSwN
o8DYLZHBeXeoQJaZjMAYZ33Bl1HMQAjAqMC+dIfBqpsAQe0bAsBEA5DBPMvdQAVKRMB3vJfBAVRk
QEKbX0BusZLBGEnFQMAuZEDjn5/BIcymQMvJyj9xOY/BGrpNQJT1q0AGM4jB7G5bQIAmzUCfJJLB
VwhQQKJ4gUBpsKTBnSDGQNE1FkEVErLBPLndQAfnB0G30arBRk3fQABmnLw4qIbBCeAIQcvTzD+Q
dH7B2zIFQcbQGb9OHm7Bg1bbQN3AmD8UG6vB1SGjQLG5vb4jzKXBS9nmQGbHmr9KzKzB+AK1QOiT
J0Ej26zB3kvyQEr2oT/M4IbB+uLrQOZXdr9ntX3B/YMOQUNpLj+EWm7BAPyxQGCncz+g+qbBGN31
QLxc5j2i6q3BtWS9QDxkub8yyqjBzeDdQOk5D0Gvc6DBcNXkQJN7EEBM6o7BlBHXQNdfEsCqenzB
ZWuqQAdd/UBofIrBy8W/QN32vkBpK5bBTm2LQL2030AVkoTBBseeQOw2o0AXEZDBET4fQXqThj/f
5l3BKoQZQdvugMAwcIfB8/N1QKR/QsBPGI/BYzSVQJWkBkBC66PB4h4KQaLYg8BRAJHBiNqVQJaK
isAVi4/BjX7xQJiZQcDSf5DBdAG4QB2ai8BJo4bBYvKJQEZagUBhU5fBbdSqQAnyQUDAqpvB1WTN
QEuD5ECTvY/Bziu7QAxqDUALyJLB2tLUQFgVS8AkCYfBW/R3QFFkvkCR44vBVwD+QK+cR0B985HB
0aLGQEu1JcCfU2vBsyoBQRKDEUHOY43BFe8KQfHs5EBRrZnBs1ppQMM/lkBnAKDBO84OQZ1ssD4x
w7HBhaSuQOGhLcA83qfBwHHBQHskJ0G9Qp/BDtL1QFhLAUGhTJXBsqTCQDphE0GgjLrBqyvtQAGa
8kAWW63BzB7HQFHKjr4teIzB7JsQQWUrJEAYG3/B18IJQR3bp79D7mHB+pXmQL0+DUBJGqzBFpaD
QLg8Dr8UmKLB+x37QAx/AsBaA6/BLUWiQLLoM0ESsLDBHq+YQAijB0HtoJDB15S4QK/0CUHvuoTB
pAXcQC5Nq0BjA5jB6DixQNNOykD4qZ3BTgucQM6n0ECwknvB6DBgQBBt8kCHmIHBHBOvQCP6kkAD
aInBfmoXQWAHwT/t7k/Bd+YnQUVQFj6Z3ljBppUqQVhb4j/s72TBO6UlQXRRmsAfD4jB/HEhQeAD
Q8D5dIfBcXkQQQXhhMD353/B+hlGQD5YQ8B6jJXB90JVQKJ4PsBMUYfBVw+QQBWyCsCXGJDBZpmN
QKTvK0D3IqvBTftuQJIT2j/rc6DBYU4TQfgKgMB8cpjB1lUCQQ1qo8B+8ZDBEHyAQFk/psAQlY7B
6+mlQBNcjMBbXJfBaqEAQcK+AsBWFZDBJffdQJsxRcCVzpfBTM2nQCdFjMCop33B3m7LQHG2qMBV
lIfBQ7dkQI09X0Beh5LBvT3FQM2uZEDWiZ/BndqmQI9PyT9KSI/B1UlOQJPYq0Cy94fB335aQAt6
zECDDpLBuYpPQCVugUCzgKTBtSa2QHzhJkHq8KnBv2jHQPNCIEG3gp/BywHgQFBYNz5uqoXB5VUL
QUJk4j9q5n/BeGsGQUT2pL5VZmzBbjfZQAzmnD/hV6zBB1imQH34xL6t9qTBRXnoQC70lL8VP63B
cebAQD7wGEFRArLBZjH1QJEytT9QBofBUpTrQNX/LL+KZ3rBlWERQTqMZD+1Pm/BqxmyQOAPcz+D
JqfBMHD0QNChLT5PV6/BMW/BQEhJuL8LD6jBhvneQHDADUGIKKDBtBznQEIBFkBPgY/BaV7SQNaa
8L8MTXbBLv6qQP7S+0DkzYnBL+e+QMbQvkA/CpbBYCOLQHoB3kBIL4TBDhWeQHKeokCTFZDBKWUi
QZxlpj9dWV/BeFNqQFa8jsBcZI3BHU4XQSegecD0mpXBcLiUQNARBUDv56PBsOOXQKAKXMBAzYrB
X+IBQa8aWMDYdpHBHzW3QJzHgMBmfYLB0FICQT5BWMC1L4XBYZmJQHg1gUBWiJfBA9uqQIi9QkCF
AJzB5XjNQPb34kAESo/B5wq9QGKtEEC0HZPB0lDaQJ6iRMBVoYDBhNZ2QGSdvUBbwIvB/fv/QChm
S0BjHpPBPmSzQD3y47/QX2rBbPwAQfj0EEHI74zB4l8LQfT84kA215jBPpVoQHyFlkCUI6DBswUN
QYYh3z7mPbTBOPO1QPv6LcBcEqbBvzfgQLPlA0H8Oa3B2j/2QD5oAEGRwJTBmSSjQGgdNUF6IavB
bCbCQO74KEFbKpjBsOTGQHSX4r1UIYvB2YUTQdOQLUAu7IDBHsoKQSqoe78bc1/BKD/iQJPQD0C4
A67BzpGIQMGfGL+T6qDBFz79QHK4/L+Bnq/BnTS3QI3FGkFXQLrBS8WZQIGNB0HDxo/BRaG5QJKN
CEFl04PBd7raQHwbq0CUOZjBc/WvQI+dy0A0Vp3BXCibQE7/zUBW5XrBVvRfQMni8ED8LIHBq26u
QOXrkUDkgInB2/IaQTzJ7D+HDFLBgWgqQRSQzT7xHFnBbDguQZPx+D+iUGfB7eU9QPAugcB2UZPB
LgCEQFLVq8A7rJDBaQBHQHjKlsAdDYbBsi8XQZvSecCxZ57B/kkkQZMHUMA3u5LB4d0ZQS6VncCc
qJLBHEWLQEb4KEAAGavBNSBwQKcn1D9/EaDBXYCpQN3zS8CdJpLBYwCJQCneIcB/h4fBvZT+QGKD
FsDOYpTBg7zpQBXTgMA0UJTBBSGmQLiahsA93nXBrFvEQC0dn8CLgoXB/mMHQUzui8CCZILBbNkN
Qf3WJ8DMbYLBWi1kQN7RXUCL2JLBpTjEQII3ZkBOMaDB5J6pQNgazz/kX4/BTMBMQN7TqkCE+YfB
LshZQNiAzECV1JHBX0RPQJ/ogUAIvqTBqKvBQLnHGkGqY7DBKyvaQOQOC0GBHKrBy/DeQNaCJT6P
JoXBHuMKQbly3j87o37BuZYFQSautL6aNWvBpMTaQA0tkj8t1qvB1yumQNeS2b4lnaTBR3PoQEUK
ob8bd6zBmWmyQFpQK0HOOKrBtF70QN2Usj94cobB6iTqQMNbM7/XZnnBf7EQQaLmWz+c8G3BHw6z
QETPZT8W1KbBo3z1QHkfgz3rnK7BLsPAQBUmwL8ZfKfBybTcQM6QEEEKfJ/BzsXmQJ0QFUC6847B
43DQQDzs8r/edXXBdFarQB6N+0AuG4rBw4S/QLLLvkCVbZbBFZmLQMac3UAThITBseueQEyHokCq
Z5DB3o8hQW2xoT/a3V3BKGVgQGqyi8DMkIvBJaYXQWi9e8C6YpTBRBWWQMMPA0B33qPBSgeYQEil
X8DUoYrBbY4CQS8JVsDeZ5DBuje2QNHygcDQ8oHBiAMCQdMDW8B1JITB0qKKQM6ygEC8vJfBjPar
QIjHQEAa75vBROLNQK0X40CTsY/B2i69QEMKD0Az45LB8EDZQLMFR8B/xn/BKyx4QDNbvUAcIIzB
67P/QNpCS0DdWJLBfc6vQEhh4r8YxGrB41UCQbTHD0FS3YzBDE4KQVPD5EAeb5rB33ZrQDpxlUAP
fqDBp8gNQcPFmD7eYrPBCxS0QFEyMcB4haXB44HBQDZfKEH05JzBBQ72QL/ZAEGsK5XBmEi8QOl3
GUEC5rjBWH7oQAKt+UDvd63BMOTFQLbq9r2SqIrBDDwTQUhEK0B3RIDBXMIJQZbzgb+jNl7B06Lk
QMHrCUAlia3BzeiHQJp/HL9lt6DB4eT8QO13BcBwo67BIX6fQCpxOEHdQK3B2PmZQKd/B0H3BJDB
7QK6QHNUCEFQGITBLnDbQBo6q0C5nZjBIGywQK9qy0CFuZ3Bs6KbQMaMzUBrlHvBv7dgQLFa8EBB
f4HBInGvQCI6kkD1yYnBYwEaQatd6D8Ap1DBNXUpQb/+uT46iVfB4YEtQerc8z+ZtmXB9d01QJMX
fcCSwpHBUC9zQCZ2rMBXw43BXZ4+QNA3jMB/2IPBtTAYQZJ1eMADLJ3BcRQlQUEFV8AYB5HBy98Y
QRx0n8Bf0pHBN6ONQEGMJkCLK6vBK6txQFjx0j+MKaDB2dSoQKugXsAeXZLBX4yOQAAkHsBGcojB
/E0BQRLUEsAq85LBqzLqQAm3esBxvpPB/wykQEEph8CVDHXBzq7DQDqKoMBotYTBG3kGQTMRjsB+
poHBFpgNQd/uLMC83YDBQLRlQMy6XUBUBpPB5tfFQJtkY0AyCqDBznGpQKVjyz9USo/Bt+1NQL19
qkCYZojBV2pbQIdNzEC8N5LBO1xSQMKIgEC5B6XB

>  <OMEGA_E>  (160) 
QP0SPcD1HD0AGQE9aJW6Prh0xz4=

>  <OMEGA_NBR>  (160) 
     31373

$$$$
50162097
     RDKit          3D

 82 84  0  0  1  0  0  0  0  0999 V2000
    6.9659   -0.0496  -16.8272 C   0  0  0  0  0  0  0  0  0  0  0  0
    8.5491    1.5492  -15.8744 C   0  0  0  0  0  0  0  0  0  0  0  0
    8.3087   -0.6647  -14.8835 C   0  0  0  0  0  0  0  0  0  0  0  0
    6.8664    1.2210  -21.3998 C   0  0  0  0  0  0  0  0  0  0  0  0
    5.1087   -0.3384  -20.7289 C   0  0  0  0  0  0  0  0  0  0  0  0
    7.2234   -1.1819  -21.6035 C   0  0  0  0  0  0  0  0  0  0  0  0
    7.5632    1.2351  -16.8368 C   0  0  0  0  0  0  0  0  0  0  0  0
    7.3531   -1.0072  -15.8610 C   0  0  0  0  0  0  0  0  0  0  0  0
    8.8991    0.6125  -14.8821 C   0  0  0  0  0  0  0  0  0  0  0  0
    5.5736    0.9822  -20.8853 C   0  0  0  0  0  0  0  0  0  0  0  0
    7.6951    0.1389  -21.7449 C   0  0  0  0  0  0  0  0  0  0  0  0
    5.9276   -1.4179  -21.1009 C   0  0  0  0  0  0  0  0  0  0  0  0
    7.1453    2.2503  -17.8274 C   0  0  0  0  0  0  0  0  0  0  0  0
    6.7009   -2.3321  -15.7978 C   0  0  0  0  0  0  0  0  0  0  0  0
    5.2045    8.0317  -17.4551 C   0  0  0  0  0  0  0  0  0  0  0  0
    6.0268    6.0335  -18.8126 C   0  0  0  0  0  0  0  0  0  0  0  0
    4.4520    7.0097  -16.5883 C   0  0  0  0  0  0  0  0  0  0  0  0
    5.0236    5.1250  -18.0308 C   0  0  2  0  0  0  0  0  0  0  0  0
    9.9531    0.9548  -13.8529 C   0  0  0  0  0  0  0  0  0  0  0  0
    3.8348   -3.0337  -17.8597 C   0  0  0  0  0  0  0  0  0  0  0  0
    9.6121   -4.0714  -16.9709 C   0  0  0  0  0  0  0  0  0  0  0  0
    8.2459    8.5681  -18.9743 C   0  0  0  0  0  0  0  0  0  0  0  0
    4.6826    2.1372  -20.4992 C   0  0  0  0  0  0  0  0  0  0  0  0
    4.6680   -4.3243  -17.9711 C   0  0  0  0  0  0  0  0  0  0  0  0
    8.6383   -4.1502  -18.1571 C   0  0  0  0  0  0  0  0  0  0  0  0
    5.7484   -4.4021  -16.8731 C   0  0  0  0  0  0  0  0  0  0  0  0
    7.5565   -3.0524  -18.0747 C   0  0  0  0  0  0  0  0  0  0  0  0
    4.3507    4.0711  -18.9204 C   0  0  2  0  0  0  0  0  0  0  0  0
    5.3668    3.0421  -19.4553 C   0  0  1  0  0  0  0  0  0  0  0  0
    5.6541    7.4797  -18.7715 N   0  0  0  0  0  0  0  0  0  0  0  0
    5.8559    2.1987  -18.3468 N   0  0  0  0  0  0  0  0  0  0  0  0
    6.6568   -3.2185  -16.8975 N   0  0  0  0  0  0  0  0  0  0  0  0
    3.9393    5.9138  -17.4127 N   0  0  0  0  0  0  0  0  0  0  0  0
    7.9187    3.1440  -18.1572 O   0  0  0  0  0  0  0  0  0  0  0  0
    6.1770   -2.6412  -14.7326 O   0  0  0  0  0  0  0  0  0  0  0  0
    6.0540    9.9000  -19.6090 O   0  0  0  0  0  0  0  0  0  0  0  0
    6.7671    7.9464  -21.0743 O   0  0  0  0  0  0  0  0  0  0  0  0
    3.6800    4.7354  -19.9937 O   0  0  0  0  0  0  0  0  0  0  0  0
    8.9412    0.3700  -22.2156 F   0  0  0  0  0  0  0  0  0  0  0  0
    5.4643   -2.6810  -20.9818 F   0  0  0  0  0  0  0  0  0  0  0  0
    6.6103    8.5451  -19.7405 S   0  0  0  0  0  0  0  0  0  0  0  0
    6.2126   -0.2984  -17.5600 H   0  0  0  0  0  0  0  0  0  0  0  0
    9.0368    2.5124  -15.8996 H   0  0  0  0  0  0  0  0  0  0  0  0
    8.5896   -1.3868  -14.1311 H   0  0  0  0  0  0  0  0  0  0  0  0
    7.2185    2.2339  -21.5282 H   0  0  0  0  0  0  0  0  0  0  0  0
    4.1243   -0.5208  -20.3237 H   0  0  0  0  0  0  0  0  0  0  0  0
    7.8548   -2.0132  -21.8802 H   0  0  0  0  0  0  0  0  0  0  0  0
    4.5377    8.8857  -17.6448 H   0  0  0  0  0  0  0  0  0  0  0  0
    6.0902    8.3743  -16.9001 H   0  0  0  0  0  0  0  0  0  0  0  0
    7.0264    5.9157  -18.3688 H   0  0  0  0  0  0  0  0  0  0  0  0
    6.0512    5.7069  -19.8628 H   0  0  0  0  0  0  0  0  0  0  0  0
    5.1385    6.6023  -15.8315 H   0  0  0  0  0  0  0  0  0  0  0  0
    3.6099    7.5103  -16.0879 H   0  0  0  0  0  0  0  0  0  0  0  0
    5.5834    4.6034  -17.2405 H   0  0  0  0  0  0  0  0  0  0  0  0
    9.4726    1.4012  -12.9697 H   0  0  0  0  0  0  0  0  0  0  0  0
   10.4868    0.0398  -13.5565 H   0  0  0  0  0  0  0  0  0  0  0  0
   10.6668    1.6724  -14.2837 H   0  0  0  0  0  0  0  0  0  0  0  0
    3.0776   -3.0154  -18.6575 H   0  0  0  0  0  0  0  0  0  0  0  0
    3.3357   -3.0030  -16.8799 H   0  0  0  0  0  0  0  0  0  0  0  0
    4.4960   -2.1605  -17.9619 H   0  0  0  0  0  0  0  0  0  0  0  0
   10.3671   -4.8662  -17.0622 H   0  0  0  0  0  0  0  0  0  0  0  0
   10.1105   -3.0907  -16.9703 H   0  0  0  0  0  0  0  0  0  0  0  0
    9.0558   -4.2005  -16.0308 H   0  0  0  0  0  0  0  0  0  0  0  0
    8.9100    9.2329  -19.5462 H   0  0  0  0  0  0  0  0  0  0  0  0
    8.1614    8.9351  -17.9408 H   0  0  0  0  0  0  0  0  0  0  0  0
    8.6626    7.5501  -18.9690 H   0  0  0  0  0  0  0  0  0  0  0  0
    4.4561    2.7317  -21.3965 H   0  0  0  0  0  0  0  0  0  0  0  0
    3.7473    1.7430  -20.0749 H   0  0  0  0  0  0  0  0  0  0  0  0
    3.9976   -5.1909  -17.8738 H   0  0  0  0  0  0  0  0  0  0  0  0
    5.1579   -4.3484  -18.9557 H   0  0  0  0  0  0  0  0  0  0  0  0
    9.2035   -4.0255  -19.0925 H   0  0  0  0  0  0  0  0  0  0  0  0
    8.1489   -5.1353  -18.1530 H   0  0  0  0  0  0  0  0  0  0  0  0
    5.2543   -4.4504  -15.8915 H   0  0  0  0  0  0  0  0  0  0  0  0
    6.3467   -5.3122  -17.0275 H   0  0  0  0  0  0  0  0  0  0  0  0
    8.0533   -2.0736  -18.0025 H   0  0  0  0  0  0  0  0  0  0  0  0
    6.9482   -3.0883  -18.9904 H   0  0  0  0  0  0  0  0  0  0  0  0
    3.6133    3.5311  -18.3084 H   0  0  0  0  0  0  0  0  0  0  0  0
    6.2066    3.5723  -19.9282 H   0  0  0  0  0  0  0  0  0  0  0  0
    5.2163    1.5455  -17.9414 H   0  0  0  0  0  0  0  0  0  0  0  0
    3.3887    5.3088  -16.8376 H   0  0  0  0  0  0  0  0  0  0  0  0
    3.3667    6.2970  -18.1374 H   0  0  0  0  0  0  0  0  0  0  0  0
    3.2593    4.0917  -20.5515 H   0  0  0  0  0  0  0  0  0  0  0  0
  1  7  2  0
  1  8  1  0
  2  7  1  0
  2  9  2  0
  3  8  2  0
  3  9  1  0
  4 10  2  0
  4 11  1  0
  5 10  1  0
  5 12  2  0
  6 11  2  0
  6 12  1  0
  7 13  1  0
  8 14  1  0
  9 19  1  0
 10 23  1  0
 11 39  1  0
 12 40  1  0
 13 31  1  0
 13 34  2  0
 14 32  1  0
 14 35  2  0
 15 17  1  0
 15 30  1  0
 16 18  1  0
 16 30  1  0
 17 33  1  0
 18 28  1  0
 18 33  1  0
 20 24  1  0
 21 25  1  0
 22 41  1  0
 23 29  1  0
 24 26  1  0
 25 27  1  0
 26 32  1  0
 27 32  1  0
 28 29  1  0
 28 38  1  0
 29 31  1  0
 30 41  1  0
 36 41  2  0
 37 41  2  0
  1 42  1  0
  2 43  1  0
  3 44  1  0
  4 45  1  0
  5 46  1  0
  6 47  1  0
 15 48  1  0
 15 49  1  0
 16 50  1  0
 16 51  1  0
 17 52  1  0
 17 53  1  0
 18 54  1  1
 19 55  1  0
 19 56  1  0
 19 57  1  0
 20 58  1  0
 20 59  1  0
 20 60  1  0
 21 61  1  0
 21 62  1  0
 21 63  1  0
 22 64  1  0
 22 65  1  0
 22 66  1  0
 23 67  1  0
 23 68  1  0
 24 69  1  0
 24 70  1  0
 25 71  1  0
 25 72  1  0
 26 73  1  0
 26 74  1  0
 27 75  1  0
 27 76  1  0
 28 77  1  1
 29 78  1  6
 31 79  1  0
 33 80  1  0
 33 81  1  0
 38 82  1  0
M  CHG  1  33   1
M  END
>  <OMEGA_C>  (161) 
/ejeQJwBS701nobB88gIQbNKxj9d/X3BgfAEQcIrKr/3Im7B37nbQJ5InD/QMqvBMXqjQApDrb7S
1KXBDCbnQB1Hl7/j06zBFQbyQGQYnj/RsYbBbEzrQEztgL/Gxn3BrmIOQbDPHD8tHW7Bj1qyQI50
ez8KFafBhz72QC5CDj599a3BvK69QNd8tb+hzqjBLabkQHYFEECPno7BBW7WQNpAFcC8w3zBAIum
QNuBAEEQpIvBwNvAQB4SwUBDgJbBc3aOQDhP4EDKtITBPMGgQPf/o0ALP5DBtD8fQfZvdD9KpV3B
q2x1QLYnQsCw4I7BOcsZQcZIgsBqxIfBU+8DQeUWCUFpy5fBfteVQGrHCEBM/qPB+1+VQG5gisDo
xI/BeDYKQXnOhMDGQZHByPK3QEjejMAi/IbBP8/xQFBaQ8DlmJDBDjmLQGJGgkDyXJfBkryrQN+x
QkBppJvBpe60QOtZ70D6K5bBI2O7QJi3DEAzxpLBMQTVQKH8TcAKLofBpR18QCI+vUAvTYvBomX9
QPg3SUDzQZHBBqrFQLIJKcDhuGvBZLrBQD1mHkFA35zByovYQDBJ/kAfmKjBCYVrQCeIl0AD85/B
Mw8PQTF1vT6LubHBOtuuQPuUK8C82qfBmofTQLW4CEGI7J3B1c3GQC/JmL76eozBkpYQQb3LIEDg
ZH7B724JQcyCsb8WGWLBQP7mQGz3DkDQOazBWvqDQFJVBb8Il6LBt1r7QB3YAMCkCq/BjTSRQPkr
DkGnKI3BAOPCQC39BUFSM4fBJdjgQG5NvUA885LBF6PBQPeetkDs5p7BXG6kQMxF00DITX3B1whn
QP9T8EAEtIDBl6uyQChPk0CX7InBoY8XQY1Zsz//g0/BAMonQT0DIz2O51jBIqsqQagR1j88imTB
nPdEQEH8QMB4QpXB03tVQNkxQMAVCofBA9+PQFBGCsDisY/Bp98lQYe3m8Bjf4jBcsQhQcXORcA7
w4fBm+QQQb9qhsAGP4DBQY8OQQq6E0GeXpzBMpUCQQn2DkG9ho/B0JkKQQqa8UCTwJfBwpiOQDTU
LkAcLKvBZdRvQHcb3z9cmaDBmdh/QDkcpsCF/Y7BZg2lQHQmi8BTpZfBqEETQS/RgMB5vZjB0WEC
QYtUpMBEOZHB4iKoQHRpjsCxQ37BGxjLQFv9qcBrOIjBOdoAQY61BMA1BZDBx1feQCamRcBn7JfB
uz9nQLv8YUCbd5LBFJzGQG2gZED7bJ/BP+ymQOHRxT8OiI/BfOBYQI/hqUBfs4bBY3dXQPeAyUB5
GZHBmJhQQPfugkB0aaTBCTPfQHtqJ71MnobBt8gIQWlwyD8T9n3BngoFQSPJJb8YEm7ByZ7bQHed
mz9KK6vB30+jQGb9rr6yzaXBvvfmQGH6l78my6zBmTDyQOltnz9Gs4bBH53rQND7fr8pv33BuGMO
QesGIj+yCm7BlD+yQLh+ej+fDKfB9xv2QFQbCD4V7K3BnHi9QIoKtr8oyqjB48vkQFpwEEBBpI7B
UcLWQNKbFMCYsnzBPHmlQOeeAEGfyovB9PzAQCYnwUDeY5bBgpKNQH+a4ECdzoTBN9mgQNfvo0Dc
LpDBgBsfQX76ez/IeF3BHTgZQbmAgsCKwofB0291QASCQsDmAY/BiMkDQf8QCUELtpfBx82VQJum
CECH9aPBXtYJQTt+hMCOV5HB11GVQOaqisDjsY/BACrxQNuQQsCtqJDBrMm3QCh9jMCw4IbBmm2L
QCJKgkDYWJfBNdirQIWzQkASpZvBiI+0QBZP70C1OZbBq427QMLYDEA3yZLB3afUQBXsTMAeL4fB
XqV7QJbpvEAmSYvBQID9QCGjSUByTpHBWHnGQIi1KMD0j2vBOZbBQP1hHkH96JzBZ6/YQLM6/kDj
lqjBojtsQIKzl0D07Z/B//oOQYDJuT7htLHBFpWuQNXZK8DX3qfBpmPTQLmyCEHh7Z3BuCnHQK38
lb5jfYzBHIUQQT0BIkARXn7ByZAJQXoOr78XA2LB6+jmQKqbDkBsNKzBws+DQP/tBb8cj6LBWyr7
QOo7AcBA/67BFNGPQKIXDkGOc43BUnnBQH1qBkGJUIfBQszgQBrivUA0tpLBZ2LCQN5htkDBwp7B
In+jQEQ31EATUX3BjJFkQFeB8ED164DBiKmyQGs3k0AS2YnBdEcXQRv7tj8HaU/Bb7UnQa49lj2+
o1jB838qQRlM2j/HUGTBaUclQSP4m8DVf4jBRDwhQX5XRsDinofBhiYQQTjvhsDFTIDBWBRFQMQy
QsAcZ5XBM2FVQM9UP8DKLofB9+6PQA3VCsCD8Y/BdHkOQRizE0GEQJzBP1MCQXDxDkHNco/BSnMK
QdGN8UDfpJfBAXmOQC+RLkDFJKvBddRvQHwV3z/Qh6DB2goTQaMzgMDuw5jBG/UBQRz3o8DRcZHB
/qZ/QJdPpsDky47B3BGlQLYPjMCejpfBq5AAQcv2A8DMIpDBoHzdQNz7RMAB85fBDuOnQF+ujcCU
EH7B9BrLQGmSqcBG/4fBvHNnQJ76YUCcfJLB9azGQIiJZEDQdZ/BiSinQLXTxT+Wio/BQyVZQDh9
qUA/nYbB731WQFKQyECyHJHBYGxRQPYvg0BWbaTB

>  <OMEGA_E>  (161) 
8NXZPkBb2j4=

>  <OMEGA_NBR>  (161) 
     34264

$$$$
50162077
     RDKit          3D

 89 92  0  0  1  0  0  0  0  0999 V2000
    6.9887    0.0328  -16.8794 C   0  0  0  0  0  0  0  0  0  0  0  0
    8.5527    1.6616  -15.9457 C   0  0  0  0  0  0  0  0  0  0  0  0
    8.3688   -0.5586  -14.9571 C   0  0  0  0  0  0  0  0  0  0  0  0
    6.7926    1.2677  -21.4293 C   0  0  0  0  0  0  0  0  0  0  0  0
    5.0666   -0.3241  -20.7524 C   0  0  0  0  0  0  0  0  0  0  0  0
    7.1906   -1.1288  -21.6401 C   0  0  0  0  0  0  0  0  0  0  0  0
    6.3912    9.7544  -20.2435 C   0  0  0  0  0  0  0  0  0  0  0  0
    6.5677    8.7155  -22.2722 C   0  0  0  0  0  0  0  0  0  0  0  0
    7.5606    1.3267  -16.8931 C   0  0  0  0  0  0  0  0  0  0  0  0
    7.4072   -0.9183  -15.9239 C   0  0  0  0  0  0  0  0  0  0  0  0
    8.9364    0.7304  -14.9620 C   0  0  0  0  0  0  0  0  0  0  0  0
    5.5090    1.0049  -20.9015 C   0  0  0  0  0  0  0  0  0  0  0  0
    7.6369    0.2003  -21.7855 C   0  0  0  0  0  0  0  0  0  0  0  0
    5.9011   -1.3882  -21.1333 C   0  0  0  0  0  0  0  0  0  0  0  0
    7.1422    8.6145  -20.1304 C   0  0  0  0  0  0  0  0  0  0  0  0
    7.1103    2.3247  -17.8781 C   0  0  0  0  0  0  0  0  0  0  0  0
    6.7769   -2.2532  -15.8612 C   0  0  0  0  0  0  0  0  0  0  0  0
    5.3320    7.9271  -17.3047 C   0  0  0  0  0  0  0  0  0  0  0  0
    5.9415    5.9619  -18.7454 C   0  0  0  0  0  0  0  0  0  0  0  0
    4.3121    7.0398  -16.5780 C   0  0  0  0  0  0  0  0  0  0  0  0
    4.8951    5.1148  -17.9898 C   0  0  2  0  0  0  0  0  0  0  0  0
   10.0048    1.0915  -13.9543 C   0  0  0  0  0  0  0  0  0  0  0  0
    3.8726   -3.0066  -17.8113 C   0  0  0  0  0  0  0  0  0  0  0  0
    9.6712   -3.9070  -17.0167 C   0  0  0  0  0  0  0  0  0  0  0  0
    5.1656   10.7960  -22.1440 C   0  0  0  0  0  0  0  0  0  0  0  0
    4.5980    2.1404  -20.4995 C   0  0  0  0  0  0  0  0  0  0  0  0
    4.7266   -4.2780  -17.9741 C   0  0  0  0  0  0  0  0  0  0  0  0
    8.7331   -3.9999  -18.2312 C   0  0  0  0  0  0  0  0  0  0  0  0
    5.8572   -4.3445  -16.9273 C   0  0  0  0  0  0  0  0  0  0  0  0
    7.6051   -2.9493  -18.1582 C   0  0  0  0  0  0  0  0  0  0  0  0
    4.2440    4.0625  -18.9040 C   0  0  2  0  0  0  0  0  0  0  0  0
    5.2755    3.0634  -19.4669 C   0  0  1  0  0  0  0  0  0  0  0  0
    7.2298    7.9947  -21.3935 N   0  0  0  0  0  0  0  0  0  0  0  0
    6.0709    9.7862  -21.5667 N   0  0  0  0  0  0  0  0  0  0  0  0
    6.4087    7.0956  -17.9182 N   0  0  0  0  0  0  0  0  0  0  0  0
    5.8125    2.2404  -18.3703 N   0  0  0  0  0  0  0  0  0  0  0  0
    6.7287   -3.1344  -16.9669 N   0  0  0  0  0  0  0  0  0  0  0  0
    3.8184    5.9905  -17.4830 N   0  0  0  0  0  0  0  0  0  0  0  0
    7.8715    3.2163  -18.2380 O   0  0  0  0  0  0  0  0  0  0  0  0
    6.2648   -2.5714  -14.7933 O   0  0  0  0  0  0  0  0  0  0  0  0
    8.0318    9.0926  -17.7008 O   0  0  0  0  0  0  0  0  0  0  0  0
    8.7923    6.9728  -18.9043 O   0  0  0  0  0  0  0  0  0  0  0  0
    3.5714    4.7239  -19.9783 O   0  0  0  0  0  0  0  0  0  0  0  0
    8.8707    0.4526  -22.2775 F   0  0  0  0  0  0  0  0  0  0  0  0
    5.4572   -2.6590  -21.0230 F   0  0  0  0  0  0  0  0  0  0  0  0
    7.7446    7.9515  -18.5806 S   0  0  0  0  0  0  0  0  0  0  0  0
    6.2298   -0.2282  -17.6021 H   0  0  0  0  0  0  0  0  0  0  0  0
    9.0188    2.6354  -15.9758 H   0  0  0  0  0  0  0  0  0  0  0  0
    8.6717   -1.2757  -14.2084 H   0  0  0  0  0  0  0  0  0  0  0  0
    7.1254    2.2869  -21.5592 H   0  0  0  0  0  0  0  0  0  0  0  0
    4.0865   -0.5250  -20.3456 H   0  0  0  0  0  0  0  0  0  0  0  0
    7.8368   -1.9486  -21.9170 H   0  0  0  0  0  0  0  0  0  0  0  0
    6.1189   10.4577  -19.4704 H   0  0  0  0  0  0  0  0  0  0  0  0
    6.4410    8.5100  -23.3248 H   0  0  0  0  0  0  0  0  0  0  0  0
    4.8191    8.4948  -18.0950 H   0  0  0  0  0  0  0  0  0  0  0  0
    5.7815    8.6261  -16.5840 H   0  0  0  0  0  0  0  0  0  0  0  0
    6.8017    5.3257  -19.0010 H   0  0  0  0  0  0  0  0  0  0  0  0
    5.4881    6.3535  -19.6679 H   0  0  0  0  0  0  0  0  0  0  0  0
    4.7931    6.5717  -15.7065 H   0  0  0  0  0  0  0  0  0  0  0  0
    3.4664    7.6579  -16.2422 H   0  0  0  0  0  0  0  0  0  0  0  0
    5.3879    4.6041  -17.1494 H   0  0  0  0  0  0  0  0  0  0  0  0
    9.5344    1.5285  -13.0611 H   0  0  0  0  0  0  0  0  0  0  0  0
   10.5613    0.1864  -13.6698 H   0  0  0  0  0  0  0  0  0  0  0  0
   10.6962    1.8224  -14.3991 H   0  0  0  0  0  0  0  0  0  0  0  0
    3.0799   -2.9966  -18.5738 H   0  0  0  0  0  0  0  0  0  0  0  0
    3.4180   -2.9962  -16.8097 H   0  0  0  0  0  0  0  0  0  0  0  0
    4.5102   -2.1186  -17.9338 H   0  0  0  0  0  0  0  0  0  0  0  0
   10.4602   -4.6685  -17.1030 H   0  0  0  0  0  0  0  0  0  0  0  0
   10.1288   -2.9073  -16.9827 H   0  0  0  0  0  0  0  0  0  0  0  0
    9.0956   -4.0783  -16.0951 H   0  0  0  0  0  0  0  0  0  0  0  0
    5.0598   10.6193  -23.2246 H   0  0  0  0  0  0  0  0  0  0  0  0
    4.1794   10.7224  -21.6623 H   0  0  0  0  0  0  0  0  0  0  0  0
    5.5817   11.8003  -21.9758 H   0  0  0  0  0  0  0  0  0  0  0  0
    4.3431    2.7289  -21.3932 H   0  0  0  0  0  0  0  0  0  0  0  0
    3.6794    1.7245  -20.0601 H   0  0  0  0  0  0  0  0  0  0  0  0
    4.0794   -5.1596  -17.8559 H   0  0  0  0  0  0  0  0  0  0  0  0
    5.1716   -4.2820  -18.9800 H   0  0  0  0  0  0  0  0  0  0  0  0
    9.3179   -3.8329  -19.1478 H   0  0  0  0  0  0  0  0  0  0  0  0
    8.2848   -5.0040  -18.2602 H   0  0  0  0  0  0  0  0  0  0  0  0
    5.4095   -4.4268  -15.9260 H   0  0  0  0  0  0  0  0  0  0  0  0
    6.4742   -5.2329  -17.1273 H   0  0  0  0  0  0  0  0  0  0  0  0
    8.0581   -1.9481  -18.1107 H   0  0  0  0  0  0  0  0  0  0  0  0
    6.9885   -3.0302  -19.0656 H   0  0  0  0  0  0  0  0  0  0  0  0
    3.5137    3.4970  -18.3067 H   0  0  0  0  0  0  0  0  0  0  0  0
    6.0883    3.6197  -19.9567 H   0  0  0  0  0  0  0  0  0  0  0  0
    5.1993    1.5722  -17.9489 H   0  0  0  0  0  0  0  0  0  0  0  0
    3.1560    5.4281  -16.9880 H   0  0  0  0  0  0  0  0  0  0  0  0
    3.3687    6.4270  -18.2623 H   0  0  0  0  0  0  0  0  0  0  0  0
    3.1678    4.0775  -20.5456 H   0  0  0  0  0  0  0  0  0  0  0  0
  1  9  2  0
  1 10  1  0
  2  9  1  0
  2 11  2  0
  3 10  2  0
  3 11  1  0
  4 12  2  0
  4 13  1  0
  5 12  1  0
  5 14  2  0
  6 13  2  0
  6 14  1  0
  7 15  2  0
  7 34  1  0
  8 33  2  0
  8 34  1  0
  9 16  1  0
 10 17  1  0
 11 22  1  0
 12 26  1  0
 13 44  1  0
 14 45  1  0
 15 33  1  0
 15 46  1  0
 16 36  1  0
 16 39  2  0
 17 37  1  0
 17 40  2  0
 18 20  1  0
 18 35  1  0
 19 21  1  0
 19 35  1  0
 20 38  1  0
 21 31  1  0
 21 38  1  0
 23 27  1  0
 24 28  1  0
 25 34  1  0
 26 32  1  0
 27 29  1  0
 28 30  1  0
 29 37  1  0
 30 37  1  0
 31 32  1  0
 31 43  1  0
 32 36  1  0
 35 46  1  0
 41 46  2  0
 42 46  2  0
  1 47  1  0
  2 48  1  0
  3 49  1  0
  4 50  1  0
  5 51  1  0
  6 52  1  0
  7 53  1  0
  8 54  1  0
 18 55  1  0
 18 56  1  0
 19 57  1  0
 19 58  1  0
 20 59  1  0
 20 60  1  0
 21 61  1  1
 22 62  1  0
 22 63  1  0
 22 64  1  0
 23 65  1  0
 23 66  1  0
 23 67  1  0
 24 68  1  0
 24 69  1  0
 24 70  1  0
 25 71  1  0
 25 72  1  0
 25 73  1  0
 26 74  1  0
 26 75  1  0
 27 76  1  0
 27 77  1  0
 28 78  1  0
 28 79  1  0
 29 80  1  0
 29 81  1  0
 30 82  1  0
 30 83  1  0
 31 84  1  1
 32 85  1  6
 36 86  1  0
 38 87  1  0
 38 88  1  0
 43 89  1  0
M  CHG  1  38   1
M  END
>  <OMEGA_C>  (162) 
yKPfQMkoBj0JCYfB+dcIQVuv1D+BIX/Bh+YFQZH+Dr8VUG/B31zZQOZEoj8vb6vBUyGiQGLxpb78
BKbBdRnmQP97kL/fHq3BiITMQBESHEG28qHBcCrSQMNyC0FgLbLBQPDxQGjSqT8eJYfBqwftQCsX
a782yH7Bc/sOQbD4Oj9uZG/BZUmwQPOhgD9GNqfBb2H0QJQhTT6fSK7BL9a8QF+vsb8IEanB14zk
QBPVCUEZC6HBq4fjQOzHFEBbBo/BP9zYQOozEMCEx33BDqCqQN+q/UAQcIrBJSG+QB3IvkCO9pXB
4fyJQARG4UDXn4TBaaScQFeso0Ac64/BxBMgQdy3iz+5RF/BPtl3QDZsQMB2fY7BDL0aQesLesA4
IojBjEylQG+8LEHzJrHBJSOTQAj9CEAD/6PBR0CXQJ7liMDlyo/B6LoLQQP/f8CP2ZHBdG67QOgF
i8Ata4fBr1zzQBzCPMACRJHB8c6HQEsAgkBoO5fBldCoQNYOREBEvJvBa1rnQDrU/0DvJavBAEXC
QBmUHEGBiKzBsBPNQMMO40CLWI/BAwC6QJliD0Bu9pLB3FHXQDeZSMAyvIfBQGB0QHOyv0Af3YvB
R+P7QAnYTUBt55HB9HjIQOqRJMBqsWzBR4IAQVJ7EUE0m43BRq0MQfkg30ABPJfBjpJkQFIql0Cg
05/BfO4NQdW25z48OLLBP6GuQAYtKsApL6jBKdT3QIFy/kAEpZTBq1rHQJylab400YzB7UwQQW6q
KEDOnH/BRb8KQSlJo7/KVWPBowPkQKJcEkBQeazBgMSCQKpkBr/Xw6LBNMf6QPRr+b8TVq/BUM7D
QNpSJ0F5w5vBvxzOQBApCEFBmbrB6jWaQNrqB0GUwpDBCgK5QFIECkH/q4TBUafZQN9rqkAcApjB
jp6vQP9Py0DiV53BxmCZQBtL0kDuTXvBStpdQFYN9UD074HBwmmsQBlVk0DhMYnBEI0YQYqmwz81
+lDBQvsoQX/YPj5dt1rBoyMrQcdD6T/MYmbBjhxFQIvIP8AVl5TBScBaQMfBP8AzeobBy1OQQOqX
B8BUeI/B9FwnQZ9klcD80ojBeA8iQaIQOsCM3IfBlIcRQaaBgsC/woDByemhQMToKUHry7nB9L2F
QMiOK0FZTK3BsJ2yQN7NPEGDzq/B0vqKQBqmLkBdJavBjntrQCu83D8Ge6DBE4qCQEAbpcD62I7B
un2lQFEGicAa15fBTxYVQddOdcCyLpnBa44EQcAgoMDlFJLBVRqtQF2ojcDG0H7BAC3PQAN0p8Ci
BInB9e0AQR5b+b/Q4pDB0aHfQLfuQcBMhpjB2d9gQADPX0AhdJLBctPCQIaoZ0BGp5/BymCmQDI/
yT9ol4/BoPxJQNOyrUB954fBh5hXQLOpzUAgGZLBPb1KQCV7gkBUXaTBeSXgQADOTTum24bBI3sJ
QXWj0j+u2n/BjkMGQYQzCb/Awm7BkTnZQCCpkD/fdKvBn4KhQOc72L6IoaXBTMbkQDhEo7/QyqzB
SkzdQEibCUFVmanBsUC4QHKxKEHB5KbBNfbyQCwEpT/8X4fBn1/tQDAaa7+I5X3BI4YPQRcrPz+H
mm/BKzSwQKa8ZT9AGqfBOp3zQAghMz1OM67BxqC7QG7UwL97j6jBf+XfQM+4D0HGF5/B+8fkQI/L
EEDvf4/B5rTYQJSND8CDA3zBrtuqQALL+0B8Z4rBMjK/QFWCvkDPiZbBynaKQD523kBU5ITBOtOd
QIKyokCymZDBsp0gQTWPkT9npl/Ba5R2QLxeQsB0CI7BcUQaQcrQgMC1QIfBUm+2QDSmGEGBSbnB
4aCTQK6fA0D1HKTBuX6WQGAzisCUqo7Bb4wKQXU4hMBorJDBYHS5QPkBi8C49IXBDoLyQCz/QcDd
LpDBAw2JQIXegEA13ZfBe86pQMZcQEA2HZzBQNXIQFjgIkESrp3BJBfFQLpaGUElF67BB5vNQOl9
4kB0oo/Bzcq6QMxGDUBBJ5PBRFDWQOUSSsB2nIbBezN2QKUfvkBtfYzBzqP9QDeqR0CkwpLB3avI
QDxVIcBlqWrB2HECQRoTD0G2N4zB4BELQSnq4kAMnpnB3RdoQCWtlUCNlqDBA4gNQYxYiT6SQrLB
TQytQFg+McCUXafBc0X3QDIkAEGuoJTBeJ3HQE6hjL4JhozBHB4RQVcsJ0BDd4DBOx4LQfCInb9D
dGLBb1PkQKQNCUC4razBJDaCQDy2Gb9qQaLB8vD4QBAHB8Dv9K7BCRTrQDpk90DmZK3B76+kQOOU
NkGveajBEkKaQEB1B0FEhJDBdR65QGufCEE0aITBsPLaQOOVqkCRqJjB066wQLmAy0Aw3p3B7d2Z
QHR2zkAFIXzBTHxeQOKd8UBwB4LBmcCtQAdmkkC85InBeRkZQS//zT+spFHBLGkpQRH/dD7yjFrB
X8YrQYlk7D+iJ2fBNZFFQK2FQ8AzWZTBgUlXQPjTPsCgKYbBYwOQQAsmCsAgIo/B+VEmQfdYmsBz
3ofB20IiQWPvQsCsd4fB03cRQXAvhMBCW3/BA4OjQJAPJ0HjDrvB11PSQGECGEFCpb7BmYaiQIZY
CkEXhbrBxICLQLSsJ0DHZKvBWlhsQKst1T8rc6DBfHyBQD8fpsCGmo3BH9ulQEjIi8AGk5bBJn8T
QQH/gMBQNZjBHrQCQb+2o8BFa5DBefipQNlVi8BiG3zBRLnMQK4zqMA48IbBUzYBQVw8A8C174/B
D5beQGJKRsANa5fBz39iQOawXkC3FZPB6+/DQOB0YkBKMKDBibOmQDePyj8TcY/B3BZLQDmhq0Dz
zYjBw4FaQIAIzUAPqpLBa19OQBrSgEA5FqXB

>  <OMEGA_E>  (162) 
UExUPhANQz4=

>  <OMEGA_NBR>  (162) 
     37354

$$$$
50162101
     RDKit          3D

 88 90  0  0  1  0  0  0  0  0999 V2000
    6.9509   -0.0557  -16.8174 C   0  0  0  0  0  0  0  0  0  0  0  0
    8.5393    1.5321  -15.8567 C   0  0  0  0  0  0  0  0  0  0  0  0
    8.2622   -0.6754  -14.8560 C   0  0  0  0  0  0  0  0  0  0  0  0
    6.8619    1.1886  -21.3155 C   0  0  0  0  0  0  0  0  0  0  0  0
    5.0898   -0.3778  -20.7018 C   0  0  0  0  0  0  0  0  0  0  0  0
    7.2099   -1.2097  -21.5768 C   0  0  0  0  0  0  0  0  0  0  0  0
    7.5619    1.2213  -16.8260 C   0  0  0  0  0  0  0  0  0  0  0  0
    7.3176   -1.0152  -15.8472 C   0  0  0  0  0  0  0  0  0  0  0  0
    8.8653    0.5987  -14.8538 C   0  0  0  0  0  0  0  0  0  0  0  0
    5.5642    0.9459  -20.8129 C   0  0  0  0  0  0  0  0  0  0  0  0
    7.6881    0.1103  -21.6809 C   0  0  0  0  0  0  0  0  0  0  0  0
    5.9066   -1.4513  -21.1030 C   0  0  0  0  0  0  0  0  0  0  0  0
    7.1580    2.2315  -17.8212 C   0  0  0  0  0  0  0  0  0  0  0  0
    6.6619   -2.3419  -15.8118 C   0  0  0  0  0  0  0  0  0  0  0  0
    5.3262    7.9489  -17.2780 C   0  0  0  0  0  0  0  0  0  0  0  0
    6.0031    6.0151  -18.7821 C   0  0  0  0  0  0  0  0  0  0  0  0
    4.4274    6.9837  -16.5044 C   0  0  0  0  0  0  0  0  0  0  0  0
    5.0121    5.1266  -17.9822 C   0  0  2  0  0  0  0  0  0  0  0  0
    9.9106    0.9416  -13.8158 C   0  0  0  0  0  0  0  0  0  0  0  0
    9.5791   -3.9435  -16.8082 C   0  0  0  0  0  0  0  0  0  0  0  0
    3.9325   -3.0713  -18.1327 C   0  0  0  0  0  0  0  0  0  0  0  0
    5.9940    9.7621  -22.2481 C   0  0  0  0  0  0  0  0  0  0  0  0
    4.6655    2.1008  -20.4268 C   0  0  0  0  0  0  0  0  0  0  0  0
    8.6852   -4.1057  -18.0483 C   0  0  0  0  0  0  0  0  0  0  0  0
    4.2571   -4.0485  -16.9914 C   0  0  0  0  0  0  0  0  0  0  0  0
    6.6665    8.7452  -21.3114 C   0  0  0  0  0  0  0  0  0  0  0  0
    7.5541   -3.0534  -18.0795 C   0  0  0  0  0  0  0  0  0  0  0  0
    5.7566   -4.4075  -16.9279 C   0  0  0  0  0  0  0  0  0  0  0  0
    6.8369    9.3596  -19.9084 C   0  0  0  0  0  0  0  0  0  0  0  0
    4.3380    4.0583  -18.8621 C   0  0  2  0  0  0  0  0  0  0  0  0
    5.3515    3.0347  -19.4064 C   0  0  1  0  0  0  0  0  0  0  0  0
    6.4061    7.2237  -18.0112 N   0  0  0  0  0  0  0  0  0  0  0  0
    5.8526    2.2123  -18.2941 N   0  0  0  0  0  0  0  0  0  0  0  0
    6.6274   -3.2055  -16.9299 N   0  0  0  0  0  0  0  0  0  0  0  0
    3.9296    5.9515  -17.4165 N   0  0  0  0  0  0  0  0  0  0  0  0
    7.9542    3.0876  -18.1929 O   0  0  0  0  0  0  0  0  0  0  0  0
    6.1038   -2.6677  -14.7691 O   0  0  0  0  0  0  0  0  0  0  0  0
    8.5507    7.3551  -19.4682 O   0  0  0  0  0  0  0  0  0  0  0  0
    8.1544    9.0662  -17.6341 O   0  0  0  0  0  0  0  0  0  0  0  0
    3.6499    4.6976  -19.9401 O   0  0  0  0  0  0  0  0  0  0  0  0
    8.9324    0.3433  -22.1543 F   0  0  0  0  0  0  0  0  0  0  0  0
    5.4315   -2.7142  -21.0655 F   0  0  0  0  0  0  0  0  0  0  0  0
    7.6315    8.2219  -18.7160 S   0  0  0  0  0  0  0  0  0  0  0  0
    6.2009   -0.2976  -17.5559 H   0  0  0  0  0  0  0  0  0  0  0  0
    9.0391    2.4891  -15.8841 H   0  0  0  0  0  0  0  0  0  0  0  0
    8.5246   -1.3952  -14.0947 H   0  0  0  0  0  0  0  0  0  0  0  0
    7.2199    2.2022  -21.4193 H   0  0  0  0  0  0  0  0  0  0  0  0
    4.1015   -0.5672  -20.3096 H   0  0  0  0  0  0  0  0  0  0  0  0
    7.8432   -2.0372  -21.8606 H   0  0  0  0  0  0  0  0  0  0  0  0
    4.7132    8.5046  -18.0029 H   0  0  0  0  0  0  0  0  0  0  0  0
    5.7862    8.6539  -16.5700 H   0  0  0  0  0  0  0  0  0  0  0  0
    6.9018    5.4253  -19.0155 H   0  0  0  0  0  0  0  0  0  0  0  0
    5.5204    6.3338  -19.7177 H   0  0  0  0  0  0  0  0  0  0  0  0
    5.0046    6.5122  -15.6953 H   0  0  0  0  0  0  0  0  0  0  0  0
    3.5783    7.5359  -16.0753 H   0  0  0  0  0  0  0  0  0  0  0  0
    5.5615    4.6260  -17.1713 H   0  0  0  0  0  0  0  0  0  0  0  0
    9.4240    1.3997  -12.9421 H   0  0  0  0  0  0  0  0  0  0  0  0
   10.4334    0.0249  -13.5054 H   0  0  0  0  0  0  0  0  0  0  0  0
   10.6350    1.6494  -14.2450 H   0  0  0  0  0  0  0  0  0  0  0  0
   10.3695   -4.7084  -16.8227 H   0  0  0  0  0  0  0  0  0  0  0  0
   10.0369   -2.9433  -16.8146 H   0  0  0  0  0  0  0  0  0  0  0  0
    8.9706   -4.0624  -15.8996 H   0  0  0  0  0  0  0  0  0  0  0  0
    2.8548   -2.8505  -18.1317 H   0  0  0  0  0  0  0  0  0  0  0  0
    4.4978   -2.1387  -17.9887 H   0  0  0  0  0  0  0  0  0  0  0  0
    4.2127   -3.5251  -19.0947 H   0  0  0  0  0  0  0  0  0  0  0  0
    5.8750    9.3181  -23.2474 H   0  0  0  0  0  0  0  0  0  0  0  0
    5.0060   10.0323  -21.8470 H   0  0  0  0  0  0  0  0  0  0  0  0
    6.6197   10.6640  -22.3198 H   0  0  0  0  0  0  0  0  0  0  0  0
    4.4177    2.6783  -21.3297 H   0  0  0  0  0  0  0  0  0  0  0  0
    3.7420    1.7019  -19.9818 H   0  0  0  0  0  0  0  0  0  0  0  0
    9.3035   -3.9911  -18.9508 H   0  0  0  0  0  0  0  0  0  0  0  0
    8.2372   -5.1102  -18.0358 H   0  0  0  0  0  0  0  0  0  0  0  0
    3.9646   -3.5858  -16.0373 H   0  0  0  0  0  0  0  0  0  0  0  0
    3.6796   -4.9723  -17.1433 H   0  0  0  0  0  0  0  0  0  0  0  0
    6.0401    7.8436  -21.2414 H   0  0  0  0  0  0  0  0  0  0  0  0
    7.6539    8.4753  -21.7141 H   0  0  0  0  0  0  0  0  0  0  0  0
    8.0013   -2.0490  -18.0458 H   0  0  0  0  0  0  0  0  0  0  0  0
    6.9849   -3.1702  -19.0135 H   0  0  0  0  0  0  0  0  0  0  0  0
    5.9443   -4.9780  -16.0063 H   0  0  0  0  0  0  0  0  0  0  0  0
    6.0085   -5.0276  -17.8008 H   0  0  0  0  0  0  0  0  0  0  0  0
    7.4572   10.2639  -19.9957 H   0  0  0  0  0  0  0  0  0  0  0  0
    5.8434    9.6323  -19.5229 H   0  0  0  0  0  0  0  0  0  0  0  0
    3.6123    3.5158  -18.2383 H   0  0  0  0  0  0  0  0  0  0  0  0
    6.1815    3.5651  -19.8961 H   0  0  0  0  0  0  0  0  0  0  0  0
    5.2062    1.5946  -17.8462 H   0  0  0  0  0  0  0  0  0  0  0  0
    3.3018    5.3562  -16.9149 H   0  0  0  0  0  0  0  0  0  0  0  0
    3.4398    6.3958  -18.1666 H   0  0  0  0  0  0  0  0  0  0  0  0
    3.2330    4.0401  -20.4845 H   0  0  0  0  0  0  0  0  0  0  0  0
  1  7  2  0
  1  8  1  0
  2  7  1  0
  2  9  2  0
  3  8  2  0
  3  9  1  0
  4 10  2  0
  4 11  1  0
  5 10  1  0
  5 12  2  0
  6 11  2  0
  6 12  1  0
  7 13  1  0
  8 14  1  0
  9 19  1  0
 10 23  1  0
 11 41  1  0
 12 42  1  0
 13 33  1  0
 13 36  2  0
 14 34  1  0
 14 37  2  0
 15 17  1  0
 15 32  1  0
 16 18  1  0
 16 32  1  0
 17 35  1  0
 18 30  1  0
 18 35  1  0
 20 24  1  0
 21 25  1  0
 22 26  1  0
 23 31  1  0
 24 27  1  0
 25 28  1  0
 26 29  1  0
 27 34  1  0
 28 34  1  0
 29 43  1  0
 30 31  1  0
 30 40  1  0
 31 33  1  0
 32 43  1  0
 38 43  2  0
 39 43  2  0
  1 44  1  0
  2 45  1  0
  3 46  1  0
  4 47  1  0
  5 48  1  0
  6 49  1  0
 15 50  1  0
 15 51  1  0
 16 52  1  0
 16 53  1  0
 17 54  1  0
 17 55  1  0
 18 56  1  1
 19 57  1  0
 19 58  1  0
 19 59  1  0
 20 60  1  0
 20 61  1  0
 20 62  1  0
 21 63  1  0
 21 64  1  0
 21 65  1  0
 22 66  1  0
 22 67  1  0
 22 68  1  0
 23 69  1  0
 23 70  1  0
 24 71  1  0
 24 72  1  0
 25 73  1  0
 25 74  1  0
 26 75  1  0
 26 76  1  0
 27 77  1  0
 27 78  1  0
 28 79  1  0
 28 80  1  0
 29 81  1  0
 29 82  1  0
 30 83  1  1
 31 84  1  6
 33 85  1  0
 35 86  1  0
 35 87  1  0
 40 88  1  0
M  CHG  1  35   1
M  END
>  <OMEGA_C>  (163) 
km3eQBArZL3+iYbBH6EIQfwcxD8VtX3BzDEEQYrmLL/6sW3B7pTbQHQimD8shqrBuN+iQMRywb5W
naXBobfmQCTWmr9FnazB5/rxQJ5SnD+Zm4bBpynqQIvzgb8Cjn3BRtgNQR5FGT9dqW3Bhg2yQNIj
cj/kgKbBygT2QKbq4T1ncq3BhwK9QLjEub/h0qjBlg7lQJ/QDkDHkY7BfC7VQFbhFcAP/XzB7W+q
QBJd/kBUOYrBXxnAQIB7wECtQZbBjq2NQNZ630DwCITBW2OgQF4NpECK24/By5EeQcYJcT+ADV3B
HEQZQWFifMAwd4bBjq17QM6PRMDVD5HB0s6/QLYxHEEK/LHBi0uVQL1zBkAwaqPBo/YKQaZhg8Du
YpDBVzqIQCiNgcB07ofBq1PVQC3sC0GwfarBMLvxQC1rQ8DEopDBtDW4QCYKjcBBbIfBOcjaQB7B
FUF2RJ/BuNCKQEDdgUB+5ZbBdz+rQMU4QkBWQJvB9/7MQNAo50DlFpDB1ki7QNSVDUBOWpLBnhPU
QKEmTcBocIfB8X17QFhyvkAAVYvB7oj+QK2bRUALi5HBJVLDQCO7KsBZTmzB3M8IQSJd60DlvpvB
bngCQfQOEUGwEo3BP5dpQNpSlkA7hZ/BF+sOQcfIrz4OPLHBys6tQAi2LcAkhqjBCzX0QP+MA0FH
upXBwW3GQONjmL54cozBNKAQQS9OH0BTJX7Bm2QIQcuUsr/7g2HBDwnnQDXxDECgWqvBwz+DQL0y
Eb8FeqLBtfv6QCxhAsBw4q7BltKWQNwSCEHcBZDBwSi5QIl2CkFtj4TBftvcQN+brUC2H5jBgKew
QGSuykDsvZ3BASagQEVk0EAdIHvB6QJlQAwm8UAymoDB6/exQCgIlEDXXonBuMgWQQApsz/YEk/B
PO8mQTukyzwyFljBBikqQfMe0z9s62PBbuklQYCrlsDplIbBIpcgQQxfPMBKhIbBgYcPQWj/gcDP
ZH7B1rU2QN5uNsDEDZHB8e2PQLfgCMDv6I/BwM6GQOibYcAFwpjBNAC8QAwXFUG1+rnBAjGgQGqE
IEG7xq7B3NTTQKKfKkHvjrLB712NQBhpK0A6o6rBiXxvQHPY2T/M2p/BU9sUQV1uf8BKm5fBsssD
QRCHo8BoSZDBZ7x9QF1+ZcBZTIDBBX5rQMccn8BwJYnBlUjBQOn++kBM7qnBcOz0QKyaB0F/tq3B
PAUAQXIiA8DKXZDBCITfQP/kSsCRG5jBvze+QAlMn8DyDIDB00XAQPjhoMAAaI7Bt6HuQNA4JEEe
95/BcP26QAQeGkH/LpzBhS9nQGMDYUDy55HB0M7FQA8qZEBKK5/BSpmmQIAczD/0xI7BYlFTQBBm
q0CiUYfBayVcQCCqzEBIVZHB0ehOQMRIgUA/4KPBeffeQBW/Mb1FpIbBMWYIQTZ5yD+8pX3B6UoE
QWRVJL/8qW3BDRXdQEd3mz8h9arBeHqkQA3Zsb6I4aXBTG7oQOoKmL9auqzBtAXyQJfmnj//qobB
H8bqQB+8fr83o33B8acNQWWIIz+2i23BIYOzQFt9eT8896bBZqH3QMtNCD62vK3Bece+QK6Ctr9r
2KjBKyvlQMHlD0AYqY7BOt/VQO2FFMBEw3zBpSeqQBNO/UD6xYnBvf6/QA2KwEA9JpbBrZGMQP0L
3kB/9IPBlASgQE6yo0BT/Y/BfBAeQSVNfz8Wt1zBdhJ2QGdrQ8C2co/BoikZQRUAgsCPRofBc8a+
QOEbHUGYUrHBGL+WQEg/CEDS76PBZtCVQJAKi8DB+4/BTjMKQSFUhMC5BJHBQarVQCvFDEHNHKrB
Fqu3QBuajMA6BIfBo5vxQKSpQsD6kJDBx7zZQB/dFUEdtZ7BCS2LQBXKgUCZO5fBlxisQC3pQkAa
kJvBsM/MQAeV5kB4wI/BR8q7QN1oDUC4spLBaGfUQJLpTMCeOIfBdCt6QG/lvUASjYvB9GL+QHPZ
R0CzbZHBSuDEQK9wKMDbyWvBjaUIQafq60Dda5vBqhcCQQnxEEH/k4zBVWNrQNCUlkDq45/B3NEP
QZZguj7kabHBe+SvQOkpLMCeBajB1a3zQGeNA0HpTZXBZVnHQLz4l75hnYzBZiwQQUjzIUDn/33B
14wIQfzVrb9Pc2HBXHvoQOqRDkAh4KvB5MWEQFsTCL84xqLBN7X8QOslAcA27q7B9hmXQCgZCEEp
eI/BGN64QJFoCUG324PBTMDcQGK7rUBhD5jBStewQEZ0y0DRm53BtUueQCUozkAV8nrBf21iQGSX
70DnkoDBQy+xQP5xk0AdeInB/PoVQSpquT9S2U7BD5MmQaottT00oFfBzZQpQQ+V2z+ybWPBxZlG
QGd0Q8BJ8pXB9u5UQAkgQMDnsYfBoTiQQE2hC8B2UZDB0VMlQcVUm8Al3IfBtxMhQZsjRcAcFYfB
McoPQbFshsDb0X/Bjea7QC+VFkGxdrnBRq6eQG1jIEEYGq7BbF/RQGgLLEGBjrHBxJuPQLz/LUCh
JavBwJVxQESD3T+3lqDBD1uAQMu+psDbJo/BNRymQG1/jMBqxpfBWLYTQd8LgMBDWJjB0mwCQcLm
o8AULJHBdQ/DQEOs+0Am4qnBnMD1QB1+CUGPVq3BODmnQJ3FjcCYe37B+C7LQIedqcCWB4jB2KgA
QeLQA8ApBZDB1oLeQGS/RcDX8pfBz6TsQNuwJEFzFJ/BdHS5QBp+GUGRtJvBr2JnQNANYEAVaZLB
LcvGQIGjZUCeT5/BMjSnQDLHyD8uWY/BM9ZQQCilqkBSyofBIFxcQG3TzED/kJHBFZdRQNazgUAX
YKTB

>  <OMEGA_E>  (163) 
YHRnPgDqSz4=

>  <OMEGA_NBR>  (163) 
     40414

$$$$
50162091
     RDKit          3D

 93 96  0  0  1  0  0  0  0  0999 V2000
    6.5029    8.9221  -22.2452 C   0  0  0  0  0  0  0  0  0  0  0  0
    5.7769   10.6921  -20.7232 C   0  0  0  0  0  0  0  0  0  0  0  0
    7.1648    8.2826  -21.1872 C   0  0  0  0  0  0  0  0  0  0  0  0
    6.4427   10.0549  -19.6694 C   0  0  0  0  0  0  0  0  0  0  0  0
    7.0614    0.0987  -16.8315 C   0  0  0  0  0  0  0  0  0  0  0  0
    8.6231    1.7848  -16.0097 C   0  0  0  0  0  0  0  0  0  0  0  0
    8.5248   -0.4034  -14.9411 C   0  0  0  0  0  0  0  0  0  0  0  0
    6.7129    1.1847  -21.4480 C   0  0  0  0  0  0  0  0  0  0  0  0
    4.9979   -0.3793  -20.6827 C   0  0  0  0  0  0  0  0  0  0  0  0
    7.0855   -1.2185  -21.6228 C   0  0  0  0  0  0  0  0  0  0  0  0
    7.6046    1.4017  -16.9106 C   0  0  0  0  0  0  0  0  0  0  0  0
    7.5387   -0.8095  -15.8591 C   0  0  0  0  0  0  0  0  0  0  0  0
    9.0606    0.8958  -15.0088 C   0  0  0  0  0  0  0  0  0  0  0  0
    5.4441    0.9436  -20.8769 C   0  0  0  0  0  0  0  0  0  0  0  0
    5.7940   10.1330  -22.0139 C   0  0  0  0  0  0  0  0  0  0  0  0
    7.5371    0.1033  -21.8080 C   0  0  0  0  0  0  0  0  0  0  0  0
    5.8134   -1.4584  -21.0667 C   0  0  0  0  0  0  0  0  0  0  0  0
    7.1347    8.8507  -19.8997 C   0  0  0  0  0  0  0  0  0  0  0  0
    7.1176    2.3581  -17.9231 C   0  0  0  0  0  0  0  0  0  0  0  0
    6.9489   -2.1509  -15.7435 C   0  0  0  0  0  0  0  0  0  0  0  0
    5.3542    7.9076  -17.2924 C   0  0  0  0  0  0  0  0  0  0  0  0
    5.9469    5.9854  -18.8000 C   0  0  0  0  0  0  0  0  0  0  0  0
    4.2988    7.0270  -16.6205 C   0  0  0  0  0  0  0  0  0  0  0  0
    4.8905    5.1340  -18.0645 C   0  0  2  0  0  0  0  0  0  0  0  0
   10.1487    1.3148  -14.0471 C   0  0  0  0  0  0  0  0  0  0  0  0
    3.3282   -3.9368  -17.7816 C   0  0  0  0  0  0  0  0  0  0  0  0
    9.8002   -3.9604  -16.9228 C   0  0  0  0  0  0  0  0  0  0  0  0
    4.9123   10.1217  -24.2521 C   0  0  0  0  0  0  0  0  0  0  0  0
    4.5501    2.0964  -20.4875 C   0  0  0  0  0  0  0  0  0  0  0  0
    4.5327   -3.0548  -17.4823 C   0  0  0  0  0  0  0  0  0  0  0  0
    8.7589   -4.0934  -18.0445 C   0  0  0  0  0  0  0  0  0  0  0  0
    5.7054   -3.9079  -16.9740 C   0  0  0  0  0  0  0  0  0  0  0  0
    7.7684   -2.9153  -18.0154 C   0  0  0  0  0  0  0  0  0  0  0  0
    4.2387    4.0813  -18.9743 C   0  0  2  0  0  0  0  0  0  0  0  0
    5.2564    3.0513  -19.5033 C   0  0  1  0  0  0  0  0  0  0  0  0
    6.4280    7.0733  -17.9130 N   0  0  0  0  0  0  0  0  0  0  0  0
    5.8075    2.2611  -18.3837 N   0  0  0  0  0  0  0  0  0  0  0  0
    6.8619   -3.0159  -16.8475 N   0  0  0  0  0  0  0  0  0  0  0  0
    3.8136    6.0134  -17.5676 N   0  0  0  0  0  0  0  0  0  0  0  0
    7.8693    3.2326  -18.3397 O   0  0  0  0  0  0  0  0  0  0  0  0
    6.3710   -2.4263  -14.6970 O   0  0  0  0  0  0  0  0  0  0  0  0
    8.1765    8.9204  -17.4799 O   0  0  0  0  0  0  0  0  0  0  0  0
    8.7659    6.9704  -19.0149 O   0  0  0  0  0  0  0  0  0  0  0  0
    3.5940    4.7377  -20.0684 O   0  0  0  0  0  0  0  0  0  0  0  0
    5.0919   10.8071  -22.9955 O   0  0  0  0  0  0  0  0  0  0  0  0
    8.7583    0.3342  -22.3398 F   0  0  0  0  0  0  0  0  0  0  0  0
    5.3726   -2.7260  -20.9077 F   0  0  0  0  0  0  0  0  0  0  0  0
    7.7869    7.9412  -18.5037 S   0  0  0  0  0  0  0  0  0  0  0  0
    6.5315    8.4946  -23.2366 H   0  0  0  0  0  0  0  0  0  0  0  0
    5.2480   11.6167  -20.5445 H   0  0  0  0  0  0  0  0  0  0  0  0
    7.6956    7.3580  -21.3596 H   0  0  0  0  0  0  0  0  0  0  0  0
    6.4255   10.4871  -18.6798 H   0  0  0  0  0  0  0  0  0  0  0  0
    6.2812   -0.2029  -17.5147 H   0  0  0  0  0  0  0  0  0  0  0  0
    9.0689    2.7653  -16.0890 H   0  0  0  0  0  0  0  0  0  0  0  0
    8.8711   -1.0904  -14.1831 H   0  0  0  0  0  0  0  0  0  0  0  0
    7.0500    2.1982  -21.6082 H   0  0  0  0  0  0  0  0  0  0  0  0
    4.0305   -0.5638  -20.2394 H   0  0  0  0  0  0  0  0  0  0  0  0
    7.7151   -2.0486  -21.9075 H   0  0  0  0  0  0  0  0  0  0  0  0
    4.8729    8.5144  -18.0735 H   0  0  0  0  0  0  0  0  0  0  0  0
    5.8037    8.5703  -16.5382 H   0  0  0  0  0  0  0  0  0  0  0  0
    6.7953    5.3463  -19.0859 H   0  0  0  0  0  0  0  0  0  0  0  0
    5.4972    6.4235  -19.7032 H   0  0  0  0  0  0  0  0  0  0  0  0
    4.7436    6.5268  -15.7476 H   0  0  0  0  0  0  0  0  0  0  0  0
    3.4557    7.6536  -16.2939 H   0  0  0  0  0  0  0  0  0  0  0  0
    5.3730    4.6237  -17.2178 H   0  0  0  0  0  0  0  0  0  0  0  0
    9.6946    1.7705  -13.1548 H   0  0  0  0  0  0  0  0  0  0  0  0
   10.7351    0.4328  -13.7501 H   0  0  0  0  0  0  0  0  0  0  0  0
   10.8088    2.0462  -14.5365 H   0  0  0  0  0  0  0  0  0  0  0  0
    2.4976   -3.3133  -18.1441 H   0  0  0  0  0  0  0  0  0  0  0  0
    3.5964   -4.6743  -18.5523 H   0  0  0  0  0  0  0  0  0  0  0  0
    3.0204   -4.4603  -16.8644 H   0  0  0  0  0  0  0  0  0  0  0  0
   10.4953   -4.8120  -16.9641 H   0  0  0  0  0  0  0  0  0  0  0  0
   10.3610   -3.0230  -17.0525 H   0  0  0  0  0  0  0  0  0  0  0  0
    9.2901   -3.9506  -15.9483 H   0  0  0  0  0  0  0  0  0  0  0  0
    4.3419   10.7619  -24.9413 H   0  0  0  0  0  0  0  0  0  0  0  0
    5.8956    9.8961  -24.6905 H   0  0  0  0  0  0  0  0  0  0  0  0
    4.3624    9.1841  -24.0829 H   0  0  0  0  0  0  0  0  0  0  0  0
    4.2741    2.6565  -21.3931 H   0  0  0  0  0  0  0  0  0  0  0  0
    3.6418    1.6993  -20.0109 H   0  0  0  0  0  0  0  0  0  0  0  0
    4.8362   -2.5313  -18.4009 H   0  0  0  0  0  0  0  0  0  0  0  0
    4.2602   -2.3173  -16.7130 H   0  0  0  0  0  0  0  0  0  0  0  0
    9.2751   -4.1063  -19.0158 H   0  0  0  0  0  0  0  0  0  0  0  0
    8.2042   -5.0340  -17.9116 H   0  0  0  0  0  0  0  0  0  0  0  0
    5.4576   -4.3460  -15.9959 H   0  0  0  0  0  0  0  0  0  0  0  0
    5.9257   -4.7125  -17.6910 H   0  0  0  0  0  0  0  0  0  0  0  0
    8.3317   -1.9725  -17.9541 H   0  0  0  0  0  0  0  0  0  0  0  0
    7.1696   -2.9253  -18.9381 H   0  0  0  0  0  0  0  0  0  0  0  0
    3.4874    3.5395  -18.3810 H   0  0  0  0  0  0  0  0  0  0  0  0
    6.0662    3.5788  -20.0286 H   0  0  0  0  0  0  0  0  0  0  0  0
    5.1988    1.6131  -17.9259 H   0  0  0  0  0  0  0  0  0  0  0  0
    3.1269    5.4498  -17.1086 H   0  0  0  0  0  0  0  0  0  0  0  0
    3.3956    6.4790  -18.3476 H   0  0  0  0  0  0  0  0  0  0  0  0
    3.1897    4.0897  -20.6333 H   0  0  0  0  0  0  0  0  0  0  0  0
  1  3  2  0
  1 15  1  0
  2  4  1  0
  2 15  2  0
  3 18  1  0
  4 18  2  0
  5 11  2  0
  5 12  1  0
  6 11  1  0
  6 13  2  0
  7 12  2  0
  7 13  1  0
  8 14  2  0
  8 16  1  0
  9 14  1  0
  9 17  2  0
 10 16  2  0
 10 17  1  0
 11 19  1  0
 12 20  1  0
 13 25  1  0
 14 29  1  0
 15 45  1  0
 16 46  1  0
 17 47  1  0
 18 48  1  0
 19 37  1  0
 19 40  2  0
 20 38  1  0
 20 41  2  0
 21 23  1  0
 21 36  1  0
 22 24  1  0
 22 36  1  0
 23 39  1  0
 24 34  1  0
 24 39  1  0
 26 30  1  0
 27 31  1  0
 28 45  1  0
 29 35  1  0
 30 32  1  0
 31 33  1  0
 32 38  1  0
 33 38  1  0
 34 35  1  0
 34 44  1  0
 35 37  1  0
 36 48  1  0
 42 48  2  0
 43 48  2  0
  1 49  1  0
  2 50  1  0
  3 51  1  0
  4 52  1  0
  5 53  1  0
  6 54  1  0
  7 55  1  0
  8 56  1  0
  9 57  1  0
 10 58  1  0
 21 59  1  0
 21 60  1  0
 22 61  1  0
 22 62  1  0
 23 63  1  0
 23 64  1  0
 24 65  1  1
 25 66  1  0
 25 67  1  0
 25 68  1  0
 26 69  1  0
 26 70  1  0
 26 71  1  0
 27 72  1  0
 27 73  1  0
 27 74  1  0
 28 75  1  0
 28 76  1  0
 28 77  1  0
 29 78  1  0
 29 79  1  0
 30 80  1  0
 30 81  1  0
 31 82  1  0
 31 83  1  0
 32 84  1  0
 32 85  1  0
 33 86  1  0
 33 87  1  0
 34 88  1  1
 35 89  1  6
 37 90  1  0
 39 91  1  0
 39 92  1  0
 44 93  1  0
M  CHG  1  39   1
M  END
>  <OMEGA_C>  (164) 
rRfQQNrADkE09rHBTty4QP4SK0ETyaXB8EXlQJWFBEF7f6nBqSrOQPTgIEHYWp3BQ/fhQPA7yj31
pobBIfgJQe505D/zE4DBxWUIQciNzr67Dm/BctDWQGmklz+alavBfO6fQJwtwr4udqXBQbziQG73
m7+X+6zBrFjzQDZssz/gSIfBND3xQOg5T7+2vn3BFfgQQSdQZT88JHDBGzauQOeRcT/sA6fBL2i5
QKIgIkGFHLDBHzDxQAiS0z3Pdq7BYQe6QHSrur+wiKjBEU/kQI6cDUGSMp/BxsPjQFrqFkCRYo/B
Ul3eQB2oCcBb5XvB/VWrQAoL/UDVVorBu0y+QBiIv0BcZpbBdI+JQHLd4EC+9oTBYX+cQIRJpEAi
hJDBHmEiQdRMqD+9wGDBegFVQNXze8CiQI7Bzs0cQbl2fcDSYYfBNzGdQHzyIUFiBMLBsJqRQK8r
BkB/5qPB9AuRQN6BQ8DY24vBiSQMQUL9gsAiW5DBqZK2QDsaesDEyofB5Jb4QMaUOsCSH5DBeKOH
QKmZgkBSy5fBDzSoQNFHQ0DPBpzBx7HNQOJY4kDMTY/BB9e5QC+1EEDOEZPB45TbQLQDQcCdx4bB
yRJ0QChuwEBhiozBqNH7QDzjTkCnt5LB897LQOlHG8C2JmvBy9ICQdW5DkHS1ovBMEEMQboN30CJ
HpjB8wNmQF+bl0AdjKDBQfGiQMzpLEHb9rfBBCIMQTMcqz74t7LBi+yrQBh3LsD3QqfBqi75QBAe
/kCVB5TBQALRQOLpB0GO5LnB6e+nQPDdOUEoW6TB9EH2QGB060Bt4KrB7J3NQDPLJ0EicJXB7P/I
QDzPT74JHozBURoRQZz6MEBOtoDBOvANQSSRi7/n7WLB+pnhQMGuDECp3azB2vmAQH5VEL846qHB
tuH2QJUbA8CKQq/Bte6bQA07CEF1lpDBsre5QM0fCUEiToTBFHPZQK8Uq0Dar5jBFOmvQLeNzUAk
oJ3BVMuXQLDb0EAk9nvBuSpdQJTq9EDbWYLBce+rQD31k0AivonBGR0bQdyf4j/2eVLB4cIrQdaZ
3T5RAFzBvvAsQSD0AkBNlWjB1NgfQC0NVMAEJ5HBkStmQOeTlcAva5TBTE5BQMC6jsBR6obBv+wn
QYX7mcB0tofBkMYlQQp4QcB2a4jBDaQUQeDWfMAuLH/B6/CKQJAwLEG5h8fBs6i8QGFWHkEghsXB
2JiLQDXyEkHYqcDBDsWIQPMDKkAmJavBSxNpQLKC2T87FqDBi8KaQAYBIsAiNZPB6FOIQLhOFMBE
tIXBAWcUQdpmg8BFIJjBfkQDQUUWocDmSo/BhqSuQBgSi8BN73/Bm5+9QKDMlsAZh43B004FQVN7
/L/5oY/BXG3lQHI4O8AygZfBODFfQGSGYkBTDJPBEB7CQPEKZUCPOqDBilymQLB4zj89aI/B5B5I
QNlkrkBd3ojBZFFZQMlTz0D3x5LBXCNMQNregkD/EKXB

>  <OMEGA_E>  (164) 
IJN2Pg==

>  <OMEGA_NBR>  (164) 
     42250

$$$$
50162125
     RDKit          3D

 86 89  0  0  1  0  0  0  0  0999 V2000
    6.3699    8.7763  -22.4604 C   0  0  0  0  0  0  0  0  0  0  0  0
    5.6219    9.9583  -22.2932 C   0  0  0  0  0  0  0  0  0  0  0  0
    7.0339    8.2018  -21.3590 C   0  0  0  0  0  0  0  0  0  0  0  0
    6.8241    0.0156  -16.9543 C   0  0  0  0  0  0  0  0  0  0  0  0
    8.4381    1.5604  -15.9783 C   0  0  0  0  0  0  0  0  0  0  0  0
    6.9330    1.2780  -21.4329 C   0  0  0  0  0  0  0  0  0  0  0  0
    5.3399   -0.3552  -20.5596 C   0  0  0  0  0  0  0  0  0  0  0  0
    6.2045    9.9942  -19.9252 C   0  0  0  0  0  0  0  0  0  0  0  0
    8.1920   -0.6916  -15.0752 C   0  0  0  0  0  0  0  0  0  0  0  0
    7.4741   -1.1017  -21.4784 C   0  0  0  0  0  0  0  0  0  0  0  0
    7.4489    1.2854  -16.9238 C   0  0  0  0  0  0  0  0  0  0  0  0
    5.5502   10.5752  -21.0260 C   0  0  0  0  0  0  0  0  0  0  0  0
    5.6812    0.9847  -20.8455 C   0  0  0  0  0  0  0  0  0  0  0  0
    7.1994   -0.9841  -16.0300 C   0  0  0  0  0  0  0  0  0  0  0  0
    8.8180    0.5770  -15.0680 C   0  0  0  0  0  0  0  0  0  0  0  0
    7.8260    0.2353  -21.7504 C   0  0  0  0  0  0  0  0  0  0  0  0
    6.2333   -1.3961  -20.8794 C   0  0  0  0  0  0  0  0  0  0  0  0
    6.9572    8.8167  -20.0892 C   0  0  0  0  0  0  0  0  0  0  0  0
    7.0779    2.3180  -17.8797 C   0  0  0  0  0  0  0  0  0  0  0  0
    5.3871    7.9039  -17.2217 C   0  0  0  0  0  0  0  0  0  0  0  0
    5.9831    5.9860  -18.7436 C   0  0  0  0  0  0  0  0  0  0  0  0
    4.4078    6.9753  -16.4945 C   0  0  0  0  0  0  0  0  0  0  0  0
    4.9471    5.1148  -17.9982 C   0  0  2  0  0  0  0  0  0  0  0  0
    4.7036   11.8089  -20.8234 C   0  0  0  0  0  0  0  0  0  0  0  0
    5.2917   -4.1682  -16.8687 C   0  0  0  0  0  0  0  0  0  0  0  0
    9.6781    1.7646  -13.0864 C   0  0  0  0  0  0  0  0  0  0  0  0
   11.1307   -1.3079  -12.9715 C   0  0  0  0  0  0  0  0  0  0  0  0
    4.7062    2.1049  -20.5083 C   0  0  0  0  0  0  0  0  0  0  0  0
    5.9142   -2.8158  -17.2301 C   0  0  0  0  0  0  0  0  0  0  0  0
    4.2843    4.0855  -18.9421 C   0  0  2  0  0  0  0  0  0  0  0  0
    5.3178    3.0823  -19.4859 C   0  0  1  0  0  0  0  0  0  0  0  0
    6.4535    7.1201  -17.9154 N   0  0  0  0  0  0  0  0  0  0  0  0
    6.6410   -2.2672  -16.0550 N   0  0  0  0  0  0  0  0  0  0  0  0
    5.7901    2.2940  -18.3617 N   0  0  0  0  0  0  0  0  0  0  0  0
    9.8862    0.8647  -14.2427 N   0  0  0  0  0  0  0  0  0  0  0  0
    3.8858    5.9689  -17.4321 N   0  0  0  0  0  0  0  0  0  0  0  0
    7.8842    3.1786  -18.2193 O   0  0  0  0  0  0  0  0  0  0  0  0
    8.0723    9.1164  -17.6987 O   0  0  0  0  0  0  0  0  0  0  0  0
    8.7415    7.1071  -19.1137 O   0  0  0  0  0  0  0  0  0  0  0  0
   12.4320    0.7554  -14.0129 O   0  0  0  0  0  0  0  0  0  0  0  0
   11.2533   -0.8620  -15.5826 O   0  0  0  0  0  0  0  0  0  0  0  0
    3.6439    4.7580  -20.0240 O   0  0  0  0  0  0  0  0  0  0  0  0
    9.0170    0.5163  -22.3265 F   0  0  0  0  0  0  0  0  0  0  0  0
    5.8984   -2.6790  -20.6147 F   0  0  0  0  0  0  0  0  0  0  0  0
    7.7135    8.0437  -18.6369 S   0  0  0  0  0  0  0  0  0  0  0  0
   11.2861   -0.1123  -14.3163 S   0  0  0  0  0  0  0  0  0  0  0  0
    6.4341    8.3107  -23.4328 H   0  0  0  0  0  0  0  0  0  0  0  0
    5.1033   10.3925  -23.1352 H   0  0  0  0  0  0  0  0  0  0  0  0
    7.6015    7.2916  -21.4851 H   0  0  0  0  0  0  0  0  0  0  0  0
    6.0576   -0.1895  -17.6871 H   0  0  0  0  0  0  0  0  0  0  0  0
    8.9076    2.5327  -15.9527 H   0  0  0  0  0  0  0  0  0  0  0  0
    7.2053    2.3026  -21.6387 H   0  0  0  0  0  0  0  0  0  0  0  0
    4.3919   -0.5825  -20.0949 H   0  0  0  0  0  0  0  0  0  0  0  0
    6.1290   10.4534  -18.9505 H   0  0  0  0  0  0  0  0  0  0  0  0
    8.4760   -1.4370  -14.3471 H   0  0  0  0  0  0  0  0  0  0  0  0
    8.1557   -1.9011  -21.7292 H   0  0  0  0  0  0  0  0  0  0  0  0
    4.8353    8.4972  -17.9656 H   0  0  0  0  0  0  0  0  0  0  0  0
    5.8551    8.5780  -16.4891 H   0  0  0  0  0  0  0  0  0  0  0  0
    6.8467    5.3596  -19.0114 H   0  0  0  0  0  0  0  0  0  0  0  0
    5.5201    6.3830  -19.6591 H   0  0  0  0  0  0  0  0  0  0  0  0
    4.9292    6.4693  -15.6686 H   0  0  0  0  0  0  0  0  0  0  0  0
    3.5727    7.5679  -16.0926 H   0  0  0  0  0  0  0  0  0  0  0  0
    5.4580    4.5735  -17.1882 H   0  0  0  0  0  0  0  0  0  0  0  0
    3.6770   11.5112  -20.5637 H   0  0  0  0  0  0  0  0  0  0  0  0
    5.1270   12.4142  -20.0084 H   0  0  0  0  0  0  0  0  0  0  0  0
    4.6902   12.4005  -21.7507 H   0  0  0  0  0  0  0  0  0  0  0  0
    4.7552   -4.5702  -17.7408 H   0  0  0  0  0  0  0  0  0  0  0  0
    6.0855   -4.8694  -16.5715 H   0  0  0  0  0  0  0  0  0  0  0  0
    4.5876   -4.0363  -16.0340 H   0  0  0  0  0  0  0  0  0  0  0  0
   10.6251    1.8852  -12.5399 H   0  0  0  0  0  0  0  0  0  0  0  0
    9.3332    2.7462  -13.4433 H   0  0  0  0  0  0  0  0  0  0  0  0
    8.9210    1.3313  -12.4164 H   0  0  0  0  0  0  0  0  0  0  0  0
   12.0085   -1.9708  -12.9662 H   0  0  0  0  0  0  0  0  0  0  0  0
   11.0687   -0.7741  -12.0117 H   0  0  0  0  0  0  0  0  0  0  0  0
   10.2198   -1.9071  -13.1172 H   0  0  0  0  0  0  0  0  0  0  0  0
    4.4588    2.6551  -21.4281 H   0  0  0  0  0  0  0  0  0  0  0  0
    3.7898    1.6683  -20.0845 H   0  0  0  0  0  0  0  0  0  0  0  0
    6.6176   -2.9488  -18.0653 H   0  0  0  0  0  0  0  0  0  0  0  0
    5.1197   -2.1157  -17.5278 H   0  0  0  0  0  0  0  0  0  0  0  0
    3.5364    3.5247  -18.3623 H   0  0  0  0  0  0  0  0  0  0  0  0
    6.1493    3.6295  -19.9540 H   0  0  0  0  0  0  0  0  0  0  0  0
    7.3962   -2.8989  -15.8798 H   0  0  0  0  0  0  0  0  0  0  0  0
    5.1337    1.6922  -17.9066 H   0  0  0  0  0  0  0  0  0  0  0  0
    3.2322    5.3880  -16.9469 H   0  0  0  0  0  0  0  0  0  0  0  0
    3.4206    6.4403  -18.1814 H   0  0  0  0  0  0  0  0  0  0  0  0
    3.2392    4.1195  -20.5993 H   0  0  0  0  0  0  0  0  0  0  0  0
  1  2  2  0
  1  3  1  0
  2 12  1  0
  3 18  2  0
  4 11  2  0
  4 14  1  0
  5 11  1  0
  5 15  2  0
  6 13  2  0
  6 16  1  0
  7 13  1  0
  7 17  2  0
  8 12  2  0
  8 18  1  0
  9 14  2  0
  9 15  1  0
 10 16  2  0
 10 17  1  0
 11 19  1  0
 12 24  1  0
 13 28  1  0
 14 33  1  0
 15 35  1  0
 16 43  1  0
 17 44  1  0
 18 45  1  0
 19 34  1  0
 19 37  2  0
 20 22  1  0
 20 32  1  0
 21 23  1  0
 21 32  1  0
 22 36  1  0
 23 30  1  0
 23 36  1  0
 25 29  1  0
 26 35  1  0
 27 46  1  0
 28 31  1  0
 29 33  1  0
 30 31  1  0
 30 42  1  0
 31 34  1  0
 32 45  1  0
 35 46  1  0
 38 45  2  0
 39 45  2  0
 40 46  2  0
 41 46  2  0
  1 47  1  0
  2 48  1  0
  3 49  1  0
  4 50  1  0
  5 51  1  0
  6 52  1  0
  7 53  1  0
  8 54  1  0
  9 55  1  0
 10 56  1  0
 20 57  1  0
 20 58  1  0
 21 59  1  0
 21 60  1  0
 22 61  1  0
 22 62  1  0
 23 63  1  1
 24 64  1  0
 24 65  1  0
 24 66  1  0
 25 67  1  0
 25 68  1  0
 25 69  1  0
 26 70  1  0
 26 71  1  0
 26 72  1  0
 27 73  1  0
 27 74  1  0
 27 75  1  0
 28 76  1  0
 28 77  1  0
 29 78  1  0
 29 79  1  0
 30 80  1  1
 31 81  1  6
 33 82  1  0
 34 83  1  0
 36 84  1  0
 36 85  1  0
 42 86  1  0
M  CHG  1  36   1
M  END
>  <OMEGA_C>  (165) 
5NXLQLVrDEHmrrPB3OazQBpVH0GTWLLBAhbhQIE6A0E736rB717aQHBPfzx0oofBowIHQRO6xz83
p3/BUNvdQKGUoz+sdqvBuuCqQFDetb4neqTBD4vGQF7oH0G3Zp/BahIDQdUKMb8UNHHBAizvQBMF
jb/Q06vBa13uQJWHpD8GZIfBAZuxQP8zKUE4NajBpsy1QPcTfD99w6bBOGHmQNPue79mPYDBaBYN
Qc22Ez+mFnHB5m76QN3zcD7dAK7BfnfHQNGxsr8dCafBlKHeQAERDUGptqDB433iQJZZFECQCY/B
bWOsQNjs/EATxonBWnW/QFyNv0De8pXBkgyNQLQ130DB9IPBf06eQGqso0A6/I/Bt4OWQEnxPEFq
lqbB3FWpQA1ihcAv84bBptkaQQbd4T/eYVHBOhcyQYlqp78yi0/BAZmWQFS2BkD7EKTBQUG9QDU2
NMAz14nBzhiJQKu8gkB2iZfBLiuqQMlDRUA545vBe4POQK/X40DCUo/BuoLUQIEaEcCscIDBOki5
QBbQEkCw5JLBDS4eQYdeXT8c4mPBBLF4QOgAv0DsdIvBZkv8QMhuS0AhwZHBDCgBQarcEUHtlo3B
Ud0LQXZt40Dz6JjBSelGQV5hQT+4NGDBWw00QamqXL9KUnnBKDZpQL9BmEAWMaDBfUUQQRIuBD+v
nLLBSb+8QPpzK8D26qTB7tT2QBCzAEFJGJXBvJM0Qe4F5r2QD2XBHOTNQLD4BEFRdrvB7U2jQK9H
JkHVFLnBqz/zQCxV6UB34avBO9jBQL0MQr4af43BkoUOQf4WIkAWPn/B/ZHmQBxeE0AoHK3Bk4qM
QC4dFb9LwqDB6SDEQPFAJ0GqmpfBmZ0HQT/ut7+2jWXBxH0CQXtW879T1a3BhLqaQJT0B0GmuY/B
2Fy7QE8/CUG66YPBhRjbQO+Bq0BJF5jB4aSwQDJBzEDGRZ3B1LudQJwEz0CZsnrB+6ZkQOgr8kC5
vYDBzKeuQCVakkB/gYnBjFNrQNMtOEGKgqTBHhCkQKigRkEoEaDB6BWWQJJoRkFvAa7BuCqYQE4/
ksA57Y3BULzCQOXRm8B+koTBZc2SQGYpgcCtRYDBjwAqQSRP8T+Go0jB9lQVQSvCL0C2F1fBO7wO
QcRmqj91qUbB0SJAQTpD/L+ldU/BmBkxQVEpRr8AMEDBM4QjQR0d9L8B4FHBnq6OQAXtKUDIbKvB
fotyQIaL1T8LraDBccPTQA65PMCvhZDBhtSjQBFoB8DeOIzB9lRiQNGUYUD15ZLBGMfEQMBJaEDR
oZ/Bba3sQB6HOcCtE37BpUekQIiZ2D+hQI/B5dxOQD9qrEBBk4fBe+taQI4WzkBqc5HB109PQMLS
g0BVy6TBhPGzQA/CKkGuYqfBrXK1QK4EIUHSiLHB3RTJQGc2IUFoqp7BMgjeQDDelD2n4obBziMI
QaRO3T8hC4DBIRjaQHr5nD95T6vBXq2oQOCQ276K9qPBEEzhQM8vBEGlPqrBdsEFQbgj8b5dY2/B
O77sQMI5kr+Fp6vB22rwQHSHrj/oTYfBUbDLQCWRDUHb7rLBrMKyQBJiaj/nUKbB7zfsQFpsXb/8
Y37BArwOQRAhUz9NenDBfBL3QLQaTD4G763BDYnFQC5jur+rrqbB9gbgQKX3DUE7GqDB0gvjQFC8
FEDwX4/BSfaqQAg0/UB7Z4rBwp+/QNC4vkAcCpbB32aLQEIn4EBOh4TBmaadQFJqo0DWHZDBRdrN
QJQlA0EW0L3BWDS0QNb4hMC0VYXBvvwaQdTFtj/0fkzBGes9QdwAUL8V9FzBl3+TQC2BAUD2aaPB
IZ7LQCHYN8BYoYjBPBqIQJA6gkDhiJfBh22oQCuPQkAiwJvB4+TNQKiN40DLZo/Bd+LcQEOYC8Am
9n3B+fa4QPXtEkAbopLB/WofQeJ1mj8za2PB8sx2QLgov0Bn4YvBSMv8QA5CSEC/CZPBdp0BQafj
EEFL2YzBy9YLQejR4kBfvJjB/4pHQTmS3z8RwmLB7kI4Qec51j7/+4DBl1NoQGKUl0AyTKDB1loO
Qeo5AD9xsrLB0Ju7QDafL8DwgqTBRUz3QCB6AEEduJTB3KU4QbqQOz9M9mrBupWiQCyKOUEeS6bB
ppKlQNNvKEHJQLjB8r/HQN+dKEG33ZbBUxPFQOXQSr64dIzBi1MPQahqLUA1eoDBpPDhQPw6EEBN
Hq3BWcyKQBCBK7+xEqDB8N7yQM3y6kDhWqvBNN4KQc9OlL9sFWPB2nABQScc97/0t63BNtSZQHd3
B0FSr5DBp/64QFX4CUHWrITB9HPbQNV6qkAZ5JfBw62xQPfnykD2hZ3BGaibQJK/0ECBenvBwcpg
QAxe80CSkIHBcFatQE9lkkCTfInBDczpQFlJCUEfMsLBvczQQCtt40A727zBVIewQIHXBkEIUcLB
IZqnQPwIlcDWgIzBCKDKQFJ0msCmMIHBJpaZQDnEecDy4n/BkNIpQRTj3D/bT0TBw/gOQRFZDkB0
vkrB3tsUQT5T/z77V0XBoAFOQbBglr/VHWHB2P48QYmBI79emUvBUfUxQQ1ZyL/0m2HBLXyJQNm+
IkCSwarBz6ZuQKV1yj86f5/B8i7mQAMvSMC+B47BESW1QJkKDcCRyIzBrn9fQAcjYkAB2ZLBWYXC
QJPsY0DZ7p/BmDP1QD+pL8AQx3jBT36kQLZP3T/neo7BVZVMQGfnrEBJ94fBC7dZQDyWzUC+BpLB
/OdNQEEZg0Ai16TB

>  <OMEGA_E>  (165) 
jvsOPwTzDT8=

>  <OMEGA_NBR>  (165) 
     45261

$$$$
50162134
     RDKit          3D

 88 91  0  0  1  0  0  0  0  0999 V2000
    5.6364   10.5817  -21.1766 C   0  0  0  0  0  0  0  0  0  0  0  0
    6.2050   10.0370  -20.0149 C   0  0  0  0  0  0  0  0  0  0  0  0
    6.9755   -0.0164  -16.8313 C   0  0  0  0  0  0  0  0  0  0  0  0
    8.5502    1.5888  -15.8736 C   0  0  0  0  0  0  0  0  0  0  0  0
    8.3221   -0.6304  -14.8923 C   0  0  0  0  0  0  0  0  0  0  0  0
    6.8663    1.2198  -21.3557 C   0  0  0  0  0  0  0  0  0  0  0  0
    5.0973   -0.3454  -20.7302 C   0  0  0  0  0  0  0  0  0  0  0  0
    7.2144   -1.1807  -21.6065 C   0  0  0  0  0  0  0  0  0  0  0  0
    5.8338    9.9296  -22.4118 C   0  0  0  0  0  0  0  0  0  0  0  0
    7.1078    8.2450  -21.3887 C   0  0  0  0  0  0  0  0  0  0  0  0
    7.5669    1.2697  -16.8347 C   0  0  0  0  0  0  0  0  0  0  0  0
    7.3661   -0.9749  -15.8702 C   0  0  0  0  0  0  0  0  0  0  0  0
    8.9305    0.6395  -14.9063 C   0  0  0  0  0  0  0  0  0  0  0  0
    5.5701    0.9765  -20.8506 C   0  0  0  0  0  0  0  0  0  0  0  0
    7.6896    0.1409  -21.7254 C   0  0  0  0  0  0  0  0  0  0  0  0
    5.9153   -1.4214  -21.1156 C   0  0  0  0  0  0  0  0  0  0  0  0
    6.9586    8.8539  -20.1215 C   0  0  0  0  0  0  0  0  0  0  0  0
    7.1479    2.2761  -17.8247 C   0  0  0  0  0  0  0  0  0  0  0  0
    6.7173   -2.3024  -15.8145 C   0  0  0  0  0  0  0  0  0  0  0  0
    5.3162    7.9333  -17.2828 C   0  0  0  0  0  0  0  0  0  0  0  0
    5.9971    5.9753  -18.7258 C   0  0  0  0  0  0  0  0  0  0  0  0
    4.3522    7.0058  -16.5381 C   0  0  0  0  0  0  0  0  0  0  0  0
    4.9614    5.1110  -17.9671 C   0  0  2  0  0  0  0  0  0  0  0  0
    9.9352    1.0098  -13.8386 C   0  0  0  0  0  0  0  0  0  0  0  0
    3.8440   -3.0466  -17.9260 C   0  0  0  0  0  0  0  0  0  0  0  0
    9.5689   -4.0504  -16.9910 C   0  0  0  0  0  0  0  0  0  0  0  0
    4.6704    2.1265  -20.4628 C   0  0  0  0  0  0  0  0  0  0  0  0
    4.6894   -4.3325  -17.9988 C   0  0  0  0  0  0  0  0  0  0  0  0
    8.6224   -4.0956  -18.2016 C   0  0  0  0  0  0  0  0  0  0  0  0
    5.7595   -4.3708  -16.8894 C   0  0  0  0  0  0  0  0  0  0  0  0
    7.5384   -3.0009  -18.1116 C   0  0  0  0  0  0  0  0  0  0  0  0
    4.3131    4.0558  -18.8798 C   0  0  2  0  0  0  0  0  0  0  0  0
    5.3432    3.0494  -19.4263 C   0  0  1  0  0  0  0  0  0  0  0  0
    6.5556    8.7855  -22.5017 N   0  0  0  0  0  0  0  0  0  0  0  0
    6.4144    7.1568  -17.9312 N   0  0  0  0  0  0  0  0  0  0  0  0
    5.8502    2.2260  -18.3176 N   0  0  0  0  0  0  0  0  0  0  0  0
    6.6487   -3.1725  -16.9271 N   0  0  0  0  0  0  0  0  0  0  0  0
    3.8723    5.9612  -17.4496 N   0  0  0  0  0  0  0  0  0  0  0  0
    7.9370    3.1388  -18.1961 O   0  0  0  0  0  0  0  0  0  0  0  0
    6.2227   -2.6318  -14.7417 O   0  0  0  0  0  0  0  0  0  0  0  0
    7.9983    9.1750  -17.6972 O   0  0  0  0  0  0  0  0  0  0  0  0
    8.7262    7.1621  -19.0756 O   0  0  0  0  0  0  0  0  0  0  0  0
    3.6472    4.7113  -19.9619 O   0  0  0  0  0  0  0  0  0  0  0  0
    8.9292    0.3756  -22.2112 F   0  0  0  0  0  0  0  0  0  0  0  0
    5.4462   -2.6852  -21.0267 F   0  0  0  0  0  0  0  0  0  0  0  0
    7.6755    8.0920  -18.6363 S   0  0  0  0  0  0  0  0  0  0  0  0
    5.0543   11.4899  -21.1254 H   0  0  0  0  0  0  0  0  0  0  0  0
    6.0667   10.5170  -19.0574 H   0  0  0  0  0  0  0  0  0  0  0  0
    6.2236   -0.2653  -17.5655 H   0  0  0  0  0  0  0  0  0  0  0  0
    9.0124    2.5648  -15.8803 H   0  0  0  0  0  0  0  0  0  0  0  0
    8.5894   -1.3451  -14.1279 H   0  0  0  0  0  0  0  0  0  0  0  0
    7.2251    2.2333  -21.4579 H   0  0  0  0  0  0  0  0  0  0  0  0
    4.1069   -0.5318  -20.3419 H   0  0  0  0  0  0  0  0  0  0  0  0
    7.8459   -2.0092  -21.8915 H   0  0  0  0  0  0  0  0  0  0  0  0
    5.4000   10.3514  -23.3064 H   0  0  0  0  0  0  0  0  0  0  0  0
    7.6743    7.3292  -21.4713 H   0  0  0  0  0  0  0  0  0  0  0  0
    4.7602    8.4837  -18.0560 H   0  0  0  0  0  0  0  0  0  0  0  0
    5.7534    8.6460  -16.5681 H   0  0  0  0  0  0  0  0  0  0  0  0
    6.8833    5.3609  -18.9430 H   0  0  0  0  0  0  0  0  0  0  0  0
    5.5501    6.3206  -19.6697 H   0  0  0  0  0  0  0  0  0  0  0  0
    4.8746    6.5397  -15.6896 H   0  0  0  0  0  0  0  0  0  0  0  0
    3.4967    7.5888  -16.1665 H   0  0  0  0  0  0  0  0  0  0  0  0
    5.4659    4.6015  -17.1329 H   0  0  0  0  0  0  0  0  0  0  0  0
    9.4103    1.4456  -12.9757 H   0  0  0  0  0  0  0  0  0  0  0  0
   10.4799    0.1089  -13.5196 H   0  0  0  0  0  0  0  0  0  0  0  0
   10.6469    1.7442  -14.2439 H   0  0  0  0  0  0  0  0  0  0  0  0
    3.0936   -3.0545  -18.7302 H   0  0  0  0  0  0  0  0  0  0  0  0
    3.3363   -2.9964  -16.9514 H   0  0  0  0  0  0  0  0  0  0  0  0
    4.4986   -2.1705  -18.0440 H   0  0  0  0  0  0  0  0  0  0  0  0
   10.3267   -4.8418  -17.0876 H   0  0  0  0  0  0  0  0  0  0  0  0
   10.0660   -3.0699  -16.9507 H   0  0  0  0  0  0  0  0  0  0  0  0
    8.9912   -4.2068  -16.0681 H   0  0  0  0  0  0  0  0  0  0  0  0
    4.4332    2.7133  -21.3625 H   0  0  0  0  0  0  0  0  0  0  0  0
    3.7416    1.7237  -20.0325 H   0  0  0  0  0  0  0  0  0  0  0  0
    4.0262   -5.2028  -17.8855 H   0  0  0  0  0  0  0  0  0  0  0  0
    5.1884   -4.3768  -18.9781 H   0  0  0  0  0  0  0  0  0  0  0  0
    9.2088   -3.9436  -19.1199 H   0  0  0  0  0  0  0  0  0  0  0  0
    8.1340   -5.0805  -18.2372 H   0  0  0  0  0  0  0  0  0  0  0  0
    5.2563   -4.4087  -15.9119 H   0  0  0  0  0  0  0  0  0  0  0  0
    6.3745   -5.2733  -17.0204 H   0  0  0  0  0  0  0  0  0  0  0  0
    8.0323   -2.0204  -18.0424 H   0  0  0  0  0  0  0  0  0  0  0  0
    6.9233   -3.0381  -19.0228 H   0  0  0  0  0  0  0  0  0  0  0  0
    3.5772    3.4971  -18.2829 H   0  0  0  0  0  0  0  0  0  0  0  0
    6.1688    3.5957  -19.9057 H   0  0  0  0  0  0  0  0  0  0  0  0
    5.2151    1.5842  -17.8879 H   0  0  0  0  0  0  0  0  0  0  0  0
    3.2211    5.3827  -16.9584 H   0  0  0  0  0  0  0  0  0  0  0  0
    3.4128    6.3980  -18.2229 H   0  0  0  0  0  0  0  0  0  0  0  0
    3.2458    4.0619  -20.5273 H   0  0  0  0  0  0  0  0  0  0  0  0
  1  2  2  0
  1  9  1  0
  2 17  1  0
  3 11  2  0
  3 12  1  0
  4 11  1  0
  4 13  2  0
  5 12  2  0
  5 13  1  0
  6 14  2  0
  6 15  1  0
  7 14  1  0
  7 16  2  0
  8 15  2  0
  8 16  1  0
  9 34  2  0
 10 17  2  0
 10 34  1  0
 11 18  1  0
 12 19  1  0
 13 24  1  0
 14 27  1  0
 15 44  1  0
 16 45  1  0
 17 46  1  0
 18 36  1  0
 18 39  2  0
 19 37  1  0
 19 40  2  0
 20 22  1  0
 20 35  1  0
 21 23  1  0
 21 35  1  0
 22 38  1  0
 23 32  1  0
 23 38  1  0
 25 28  1  0
 26 29  1  0
 27 33  1  0
 28 30  1  0
 29 31  1  0
 30 37  1  0
 31 37  1  0
 32 33  1  0
 32 43  1  0
 33 36  1  0
 35 46  1  0
 41 46  2  0
 42 46  2  0
  1 47  1  0
  2 48  1  0
  3 49  1  0
  4 50  1  0
  5 51  1  0
  6 52  1  0
  7 53  1  0
  8 54  1  0
  9 55  1  0
 10 56  1  0
 20 57  1  0
 20 58  1  0
 21 59  1  0
 21 60  1  0
 22 61  1  0
 22 62  1  0
 23 63  1  1
 24 64  1  0
 24 65  1  0
 24 66  1  0
 25 67  1  0
 25 68  1  0
 25 69  1  0
 26 70  1  0
 26 71  1  0
 26 72  1  0
 27 73  1  0
 27 74  1  0
 28 75  1  0
 28 76  1  0
 29 77  1  0
 29 78  1  0
 30 79  1  0
 30 80  1  0
 31 81  1  0
 31 82  1  0
 32 83  1  1
 33 84  1  6
 36 85  1  0
 38 86  1  0
 38 87  1  0
 43 88  1  0
M  CHG  1  38   1
M  END
>  <OMEGA_C>  (166) 
e120QLlOKUGYaanBUY/GQKuXIEGZHqDBNzffQFcehrxrpobBbM0IQaBcyz8R+n3BeycFQeJkIb/G
Rm7BrbjbQKginD9h2KrBaR2jQPfdsL5016XBP9zmQF0hl78R2qzBtq66QInfHkFqS7PBD3PjQKnr
A0EFHKvB3CPyQLiFoj+BrYbBM7frQB6Veb9G7H3BJ+MOQXC0Iz9DgG7B2z2yQIX9eT8TzqbBbRH2
QN5CED6tza3B2km9QPnutb/Y7KjBjazeQHmpDUHs+KDByLvkQNyrEUAQmY7B4PPWQPVZE8BHCH3B
Yx6qQDDd/UAyQ4rBgOi/QMI1v0B0zpXBnEWLQCIv4EAQToTBFMSeQEONo0C0vI/Bw/YeQXRAgT/m
al3BFAR2QED7QsBcaI/BRBoZQbycgcCI7YfBi3OVQHgYCEDcs6PBMw+WQOSjisCL/Y/BivUJQcIO
g8DynJHBCE64QE/di8BkHYfBdDrxQBgOQMCS5JDBSQWKQA3JgUDACZfBNvuqQCYqQ0AFaZvBYsfR
QFKRDEGLA7TBGEPNQD8E5UAbc4/BHzW7QCB3DkBbipLBNcLUQJQJS8CvaofBptN3QMbBvkDLmIvB
sfv9QJrhSECzkZHBFSDHQB1vKMDx3WvBV/L/QKLMEkHXk43Bjp4LQf4v5UDJmpjB32tpQO/ClkD+
sZ/BHd4OQe5RwD6bsLHBf0euQNDaK8C9NqjBTp31QLZ4AUEwF5XBa7yhQNLWN0HnAKnBZCLCQJVF
KEGGdZjBjSfHQPPah74NhozBszIQQScmJECyFX7BD24JQQMrrL/JC2LBHDTnQKvuDkC4qavBEWyD
QKciCL8uvKLBUhH7QJqWAMDSIa/BEs2sQGCfJUGFc7rBjpP1QBmJ6kBAxavBZFOYQDq9B0G2cpDB
8hu4QDdWCkGGi4TBBETcQDyMq0A0i5fBJZqxQAlCykCMW53BtfybQPdE0UDDCHvBbspfQMLX8kD7
VIHBkOiuQLk/k0ApEInBuZAWQd8HuT+GnE/BoK0nQUUG3z0uUFjBiFkqQdJB3z/b5mPBwfxFQB98
Q8Bm15XBuoZVQLPEP8B1nIfBRfSPQLLoCsAVWpDBUjolQR/wmsB2s4jBLQ4hQXZ5RMAEm4fBAtwP
QTOehsBhi4DB7NyNQGemLUBu5qrB7XZvQHWh3D93QqDBf9aAQB19psB6FY/BaAemQBwPjMAb05fB
HVcTQWRkfMB79ZjB8yQCQaqTosDX5ZHBiDOoQOITjcBWl37B6vvLQCy/qMDAKYjBZ4QAQcpOAcDc
VpDBtYvdQItvQsC3LpjBiPBkQEfQX0ByQ5LB/2bFQFcgZkDvPp/ByuGmQMLGyj9oGo/BViZOQAk/
rEC7qofBpmpaQJ28zEB8yJHBobtPQNH6gUDbN6TB5aLNQD+dEEHtcbPBlcLhQFkSBkFI5qrBiw7f
QCAvKjyZdIbB7cEIQapj0T9VQH7Bl2EFQfJJEb+d5m3BwHfaQE4zmD+xXqvB5IWiQDKpv74v4aXB
XF7mQEhWm7/HzqzBp/y1QNZpI0EubLHBGJDFQMyUIUEmFp/Bo+LxQKACpj/Vu4bB+uLrQK7Tbb+S
TX3B06YOQSI+Nz/IO27BlCyxQMXAcj8RNqfBOTL1QN8k3j0HC67Bx++8QDL3ub+QyKjBhu7dQCzD
DkGRjqDB90fkQGcLEkCu147BezHXQEtSEMD1BnzBWlOrQDFM/EAuBYrB+OK/QNMuv0AyOpbBhICM
QBcJ3kBFPITBNWqfQKy2okB/JZDBr6MfQcWWij/4BF7BLh8ZQbDUg8ACmYfBo/93QCSlQsA1R4/B
3JiUQEadBkCuHqTBoK8JQRnWg8C0LJHBNmWXQNVLisDOiY/BKBTyQF0WP8ALPpDBM6i4QKPGisDU
bIbBJDCKQARCgUA6dZfBprmqQEt+QUAo5JvB0S6yQLmEK0GzaKfBbfnNQMkN5EDOlo/B3zC7QEBq
DEBfDZPBZWzVQLtWScDXx4bBIot5QIBuvUAet4vBJev8QCm7SkCQsZHBv5LGQNyEI8D96GrBJLUA
QcT3EUFFT43BCIILQeOD5UCjOZnB8o9pQIWwlkDpB6DBNIQOQTQKrz630rHBTW2uQLH+LcAKvKfB
XP71QJ9jAUEDJJXBvjrQQMlmCkEue7vBYdHzQB8q70AuPKzB58nGQNsagr5HO4zB2lwQQZ+0JkBL
537Bph4KQUqmo7+HyWHBeITlQOv3DEA8f6zBvguDQG0YD7/7oaLBkML6QDrKAsAE8q7B44+mQCWI
K0HFALjBMVHCQAkxKEEhJZfBylWZQOWDB0G59Y/B3Ny5QAcICUHPIoTBPAHcQCXJq0DWWZjBSLiw
QDxXy0BZkJ3BA1adQMFRzkAYKXvBNo1iQBl28EAiF4HBgDKwQB8WkkBxn4nBQQgYQai4xD/X6E/B
114oQUtYNT4+KlnBv98qQaWE5j8OMmXB9L4kQVUCnsAHgojBuaghQU0nSsDZRYfBAQEQQbBkiMBY
KIDBCGhJQMcuRMBU35XBTMlVQM7aPsAOmofBlNeQQLxdCsASLJDBoeqMQLUKLEBUUqvBDsxtQLSn
2j/9m6DB8+4SQeLXfsCMlJjBOkcBQfu8osALd5HBvEiCQDRBpsAXr47BqjuoQKsCjMAcQZfBGo8B
QZC/AcAViI/BQVTeQG+sPsDLhpfBZbGnQOALi8D4bX3BlzvMQHLjp8AbJYfBzCtlQDEXX0AeqZLB
wh/FQIn2Y0Aezp/Bc1ynQP1pwj+n2Y/BkztQQHl8qkDk2ofB1o1bQM8ZzEC2wZHBDz1PQGApgkCz
kaTBylHOQJl+EEHtprPBeR3iQEL0BUFtDqvBZojfQIAnBr1/wobBK74IQeWvyj9NJ37Bk+YEQZnU
H79iGW7B9SzcQKlFmT8ow6rBvZejQIRtvb4uyaXBnIHnQN/4mb/7tqzBqs22QHJdI0G7srHBQubF
QF6dIUHMVZ/B6mLyQOOMoD+Q04bBvaLrQG/9er9k4n3BCp0OQXhkJT+Na27BdZyyQLjvcz/JxabB
36f2QG5T9D34qq3Bu+W9QJn2uL9R0ajBPBDeQBy1DkHzuqDBYOnkQBCLEEDpwY7BaLbWQCWAE8Dt
0nzB7fCqQNVG/UANK4rBX9a/QKsrv0DkC5bBic+LQIB130BbVoTB2OKeQGZfo0Dj8Y/ByVIeQTFP
hD8KGl3BZ4J2QJKQQ8DOLo/BXkgZQW/zgcB2q4fBx5yVQIqKBkDwvqPBphWWQDYUi8CXvY/B9xYK
Qa7zg8DyU5HBJGG4QFRfjMB24IbBC3rxQP3aQcCdsJDBVAmKQJpygUCZL5fBmPyqQI0oQkCZfpvB
ltqyQIKNK0GTtKfBVqrNQBOg5EB9mY/Bcjq7QEjLDUAcmJLBJ/LUQGM+TMABN4fB5mN4QHucvkBP
wovBav79QJMuSEB4sZHB0g7GQLYfJ8C2vmvB8ckAQRUTEkHhe43BUlELQVgm5UB9RJnBCZFpQGA2
lkBi4Z/BHzYPQYTYtT4SfbHByf+uQFhsLcA8EKjBEt71QNhqAUGPPpXBIhDRQKQ5CkGRrLvBaBf0
QJrX7kBTV6zBA9bHQJn4lL4zs4zBwioQQcvAI0DbXX7B6QYJQdFFqr98sGHBep3nQJ2HDUDUlKvB
FOCDQMHFDr9Us6LB5Mj7QFf3AcCZ+K7Bc5qnQHh4K0GuULjBQ4rCQKBLKEFPaZfBDzKZQJviB0Ew
M5DBjWa5QN+kCUFSVITBmQTcQN16q0DS75fBnzCxQM2nykD4g53Bul+cQLP7z0C8NXvBHCdhQIwn
8kBCTIHBPTmvQEgqk0A5SYnBgqAVQUAzvT+hjU/BIf0mQQNgDj4PpVfBlMopQQsF4j/ogWPBT2dG
QCX9Q8CPm5XB2iBWQID4P8DDYYfBqVeQQDm9C8CFKJDB62slQTdIm8AQYIjBCzchQVUURcBbdofB
LhUQQe+WhsAIQoDBdACOQMqoK0Aq+qrB5tZvQIZp2T+MS6DBiriAQFPNpsCZzY7Bxf+lQLCvjMBc
lJfBf2wTQc/mfsD6s5jBoUoCQSyAo8Cnf5HBh1OoQAd4jcCeGX7B7PPLQHBUqcBX64fBDKIAQZsP
A8BgMZDBMNfdQC64RMAR/JfBBOtkQAN9X0D7YJLBKG7FQGLrZEBOWZ/BPtOmQJPMyj+BD4/BhjxO
QGgUrEBn6ofB5nNbQHUSzUA06ZHBq8NPQAFUgUANXaTBzjawQMbvK0HmwafB3yrEQJ4dIkFR+57B
WBneQKD+QbxTx4XBq2oKQdbGxD9X3H7BGl4FQTHaGr+362zBZD7dQEipqT8aHqzBMRqqQLDQrb7V
r6XBc7TtQMKdhr9nm63BHim1QOXuIkHXB7LBtcjfQHIuB0EMNKvBSofzQN5mnT/mqobBO6XpQFr/
a7+1SnvB50MQQUsFHz9Bwm7BcpC1QO4YgT/nVqfBMlf5QBk3lz70M6/BSAvGQGYRr78M4KjBY3rc
QAx9D0HYtqDBekXmQKz9DUAVzo7BmL7PQIz4B8AExXfBw8+qQGxN/UA3RIrBwD/AQOlDv0CfEpbB
fwaNQGsL30CVJoTB1BegQG3zokBD1Y/BEuQgQcqfgD/VTl7B/WphQH+8j8CNEo/BzcwWQdkHccA2
sZbBpFeXQC4AB0Ao66PB7raUQDT4YcC0FozBjgQBQTPnVcD9SpLBJzKzQOSlhsA+AoTBUJ0AQQr6
ZsAnOIbB5DiLQOPggECUDJfB81msQCShQUBcfZvBGX/MQD/rEEGPm7PBAL/NQDgS5UBBuY/BC468
QM31C0A1rJLBIybXQCKwU8CUjoHBVJx6QPWOvUDYZYvBiJ//QO6oRECq4JHB6ICwQCWyAcAJBGzB
z9gAQQ9GEkHsoo3BC/YKQRV15kCAzJnB3X5qQBKtlUDkoZ/B8rEPQS5yGT/7vbPBHb26QLUuKsAa
aqfBJGb1QHjdAUFeeZXB9EidQOU5OkGZqKbBO+zAQCC8KEHDCpfBnN/EQL/ahr6/VIvBTrgSQYvJ
HkCzEoDBErcJQXy5pr+Cd2DBKwXmQJ7jFkApZ63BKOGLQLkaFb9p+aHBZpkBQXTM678dA7DBeAOm
QDGQKkF/y7jBJhLyQNqI8UAwjKzB1x6YQK1mB0EbTpDBCxW5QNIWCkHxm4TBq63cQCMMrEB1CJjB
aAKxQP9XykCLgZ3Bb62eQPAv0EBuAnvB1HhjQIBA8UDu9YDBfzKxQE7GkkBySonB6xMZQeQ1wj/q
1VDBpvsoQSjkyj0CdVjBP7gsQbG31j98qGXBczM2QKQpgMBa05TBGsV8QHm8rMA7tJLB5l49QJp9
mMBc1ofBbVEXQY8fZcCQXJ/B83kjQR3iS8CpupLBJkoZQbjPmsCOJpXBWKCOQByCLUCw9KrBg7B0
QHlE1D9ReaDBL7KmQAR5UMCvVJPBFf+GQEX7J8DQdojBI/r8QOpKEcAvzpPBiZroQD0Ie8AUOpbB
4pmhQJXgjcBvNXnBq5u/QO+GpMCPeYfBXl8EQbtllcAGyoTBrMAMQYOaPsAfVILBLytoQL65XUBy
LpLBttXGQFUfZUCBOJ/B6haoQCdlxj+POo/BWF9SQOmkqkD1WofBimpbQO58y0AJdJHB/6BQQDfJ
gECkG6TBmwnQQB4EDEGlT7PBLdfjQADZAkH4VarBX5jgQOzD6z0VFIbBi6ALQaMi2j8dWoDB7J4H
QTQv2L5vCW7Bv3vXQBmimD8lbqzB9cmjQOqrxL6W8KTB5j7lQO9rmr86Sa3BKzW4QH0HH0G9ErLB
Ze3GQLYCIEH6rJ/B5GX1QIsWrj+gVofBHWrtQErKQ7+YwnvBfTESQWfmTj8zinDBOl2wQCcZcT/D
KafBc/bxQFp58z13ca/BmR2+QCZ9ur8iDajB7m/fQHYQDUGGXKDBZ/jmQCl7E0Csq4/BKRDUQPjp
+r9gUnfBwHWqQCHX+0B1nonBg9q/QLr7vkBgzJXBgXWLQHZi3UBR94PB1eGeQB50okBO9Y/BpFAj
QbHFmj/tuGDBOjxuQIwcksBRy43BsAoVQYGhe8DPbJfB7teTQEnLBUBQ46PBrBCXQMP9X8C/RorB
13MAQb+4WcD+Y5LBkg+4QBCtg8CUe4LBKGcCQVkuXsDJJYbB0RKKQPuNgUDFfpfBDb2qQEqWQkAs
AJzBIvizQLelKEExaajBrX/NQJGi40BgB4/BRLK8QJOqD0DMJZPByKrbQOISS8C15YDBhBt4QN4L
vUCHj4vBagMAQYspSED7XZPBwgC1QF/E6r8vg2vBGP7+QNmHEkGNzYzB2CcMQU0B5UC9r5fBpjxq
QK1rl0DwEqDByMMLQYT/uD6jcLTBxbyxQBeRLsBDDabBmuv1QOcfAUH6X5TBFwLTQD2ZBEFHFLvB
MRf2QFZ+6EB4EavBIdzGQOS9Jb4KZ4vBlZETQe4SKkDTNIHB8oEMQWBRjb/zjmHB1xbhQN1GDUCs
Ja7Ba/eFQM1ZE7/h2aDB/3/5QB7wAcBopa/BIf6oQE0VJkGU+7jBmTnDQADIJ0GoA5jB0siYQAY+
B0F3oo/B7oW4QP3WCEEfroPBZxjcQMuTq0DEz5fBclOxQF1ky0BzMJ3BSw6cQJ5yzUDtnHrBYzRg
QEyu70A32IDB/SOvQLNVkUBebonBe+cbQW433T/hFlPByq4rQRPnnj7S+1rBUdQuQc+58D95lGjB
R4A/QJjmg8CRVZPBBD+IQNlArMDD15HBlKJMQPjLnsDKvYbB4r8TQa+ceMBzMaDB0aQiQeVRVMCS
xZTBApEXQT8yn8Ar75TB8amKQGsWKkAZEqvBs+5tQDUL2D+1BaDBa8+nQEelRsC5VpHBseGFQIa7
K8DAPIbBM9P7QJDvFsAH3pTBlqvlQBSBgMChB5XBhYyoQN8qisDpgHXBHmzEQI3BocCf2YXByI4H
QcZ2j8C72IPBXGgOQdNQL8D1e4PBVm5kQH8BX0DL25LBCk7EQEBDZUA9OKDBkQapQHWrzj9UWo/B
SnJOQO35qUCAzIfBAqlaQCrvy0A6nJHBCYhQQGceg0DJuqTB

>  <OMEGA_E>  (166) 
kIa4PRCvuD0AELA9qG/EPgBIyz4=

>  <OMEGA_NBR>  (166) 
     52245

$$$$
50162138
     RDKit          3D

 91 94  0  0  1  0  0  0  0  0999 V2000
    6.9816    0.0312  -16.8764 C   0  0  0  0  0  0  0  0  0  0  0  0
    8.6416    1.6004  -16.0090 C   0  0  0  0  0  0  0  0  0  0  0  0
    8.3723   -0.5892  -14.9700 C   0  0  0  0  0  0  0  0  0  0  0  0
    6.8496    1.4509  -21.5547 C   0  0  0  0  0  0  0  0  0  0  0  0
    5.2959   -0.2626  -20.7657 C   0  0  0  0  0  0  0  0  0  0  0  0
    7.4121   -0.9094  -21.7904 C   0  0  0  0  0  0  0  0  0  0  0  0
    7.6103    1.2998  -16.9263 C   0  0  0  0  0  0  0  0  0  0  0  0
    7.3698   -0.9159  -15.9033 C   0  0  0  0  0  0  0  0  0  0  0  0
    9.0280    0.6543  -15.0388 C   0  0  0  0  0  0  0  0  0  0  0  0
    5.6230    1.0939  -20.9510 C   0  0  0  0  0  0  0  0  0  0  0  0
    7.7460    0.4484  -21.9677 C   0  0  0  0  0  0  0  0  0  0  0  0
    6.1845   -1.2623  -21.1942 C   0  0  0  0  0  0  0  0  0  0  0  0
    8.2048    9.2139  -15.9034 C   0  0  0  0  0  0  0  0  0  0  0  0
    8.3316    8.6819  -17.1716 C   0  0  0  0  0  0  0  0  0  0  0  0
    9.2431   10.9602  -16.9487 C   0  0  0  0  0  0  0  0  0  0  0  0
    7.1706    2.3094  -17.9102 C   0  0  0  0  0  0  0  0  0  0  0  0
    6.6932   -2.2231  -15.8092 C   0  0  0  0  0  0  0  0  0  0  0  0
    5.2670    8.0598  -17.6194 C   0  0  0  0  0  0  0  0  0  0  0  0
    5.7154    6.1583  -19.1663 C   0  0  0  0  0  0  0  0  0  0  0  0
    4.5538    7.1122  -16.6451 C   0  0  0  0  0  0  0  0  0  0  0  0
    4.9986    5.2178  -18.1588 C   0  0  2  0  0  0  0  0  0  0  0  0
   10.0967    0.9990  -14.0263 C   0  0  0  0  0  0  0  0  0  0  0  0
    7.5446    8.5762  -14.6910 C   0  0  0  0  0  0  0  0  0  0  0  0
    9.9509   12.2825  -17.1015 C   0  0  0  0  0  0  0  0  0  0  0  0
    3.9007   -3.1135  -17.9461 C   0  0  0  0  0  0  0  0  0  0  0  0
    9.5846   -4.1121  -16.7732 C   0  0  0  0  0  0  0  0  0  0  0  0
    4.6561    2.1587  -20.4970 C   0  0  0  0  0  0  0  0  0  0  0  0
    4.7904   -4.3699  -17.9676 C   0  0  0  0  0  0  0  0  0  0  0  0
    8.7053   -4.1528  -18.0338 C   0  0  0  0  0  0  0  0  0  0  0  0
    5.8127   -4.3577  -16.8142 C   0  0  0  0  0  0  0  0  0  0  0  0
    7.6416   -3.0338  -18.0163 C   0  0  0  0  0  0  0  0  0  0  0  0
    4.2885    4.0701  -18.8781 C   0  0  2  0  0  0  0  0  0  0  0  0
    5.3181    3.0833  -19.4616 C   0  0  1  0  0  0  0  0  0  0  0  0
    8.7815   10.4830  -15.8150 N   0  0  0  0  0  0  0  0  0  0  0  0
    6.2609    7.3012  -18.4343 N   0  0  0  0  0  0  0  0  0  0  0  0
    5.8606    2.2581  -18.3706 N   0  0  0  0  0  0  0  0  0  0  0  0
    6.6975   -3.1584  -16.8677 N   0  0  0  0  0  0  0  0  0  0  0  0
    3.9813    5.9819  -17.4004 N   0  0  0  0  0  0  0  0  0  0  0  0
    7.9410    3.1868  -18.2881 O   0  0  0  0  0  0  0  0  0  0  0  0
    6.1294   -2.4828  -14.7515 O   0  0  0  0  0  0  0  0  0  0  0  0
    7.7263    6.1336  -16.6620 O   0  0  0  0  0  0  0  0  0  0  0  0
    8.7079    6.7696  -18.9213 O   0  0  0  0  0  0  0  0  0  0  0  0
    3.4508    4.6107  -19.9025 O   0  0  0  0  0  0  0  0  0  0  0  0
    8.9232    0.7888  -22.5395 F   0  0  0  0  0  0  0  0  0  0  0  0
    5.8492   -2.5618  -21.0453 F   0  0  0  0  0  0  0  0  0  0  0  0
    9.0227    9.8419  -18.2500 S   0  0  0  0  0  0  0  0  0  0  0  0
    7.8254    7.0745  -17.7859 S   0  0  0  0  0  0  0  0  0  0  0  0
    6.2033   -0.2123  -17.5845 H   0  0  0  0  0  0  0  0  0  0  0  0
    9.1361    2.5597  -16.0514 H   0  0  0  0  0  0  0  0  0  0  0  0
    8.6391   -1.2958  -14.1981 H   0  0  0  0  0  0  0  0  0  0  0  0
    7.0986    2.4919  -21.6988 H   0  0  0  0  0  0  0  0  0  0  0  0
    4.3628   -0.5344  -20.2946 H   0  0  0  0  0  0  0  0  0  0  0  0
    8.0973   -1.6800  -22.1115 H   0  0  0  0  0  0  0  0  0  0  0  0
    4.5249    8.5215  -18.2873 H   0  0  0  0  0  0  0  0  0  0  0  0
    5.7861    8.8447  -17.0497 H   0  0  0  0  0  0  0  0  0  0  0  0
    6.5314    5.6141  -19.6644 H   0  0  0  0  0  0  0  0  0  0  0  0
    4.9960    6.5106  -19.9200 H   0  0  0  0  0  0  0  0  0  0  0  0
    5.2750    6.7334  -15.9060 H   0  0  0  0  0  0  0  0  0  0  0  0
    3.7487    7.6543  -16.1274 H   0  0  0  0  0  0  0  0  0  0  0  0
    5.7458    4.8028  -17.4664 H   0  0  0  0  0  0  0  0  0  0  0  0
    9.6320    1.4718  -13.1485 H   0  0  0  0  0  0  0  0  0  0  0  0
   10.6171    0.0810  -13.7158 H   0  0  0  0  0  0  0  0  0  0  0  0
   10.8189    1.6949  -14.4782 H   0  0  0  0  0  0  0  0  0  0  0  0
    7.6160    9.2597  -13.8320 H   0  0  0  0  0  0  0  0  0  0  0  0
    6.4860    8.3760  -14.9130 H   0  0  0  0  0  0  0  0  0  0  0  0
    8.0540    7.6313  -14.4508 H   0  0  0  0  0  0  0  0  0  0  0  0
   10.0180   12.7783  -16.1219 H   0  0  0  0  0  0  0  0  0  0  0  0
   10.9634   12.1128  -17.4966 H   0  0  0  0  0  0  0  0  0  0  0  0
    9.3878   12.9213  -17.7978 H   0  0  0  0  0  0  0  0  0  0  0  0
    3.1853   -3.1558  -18.7806 H   0  0  0  0  0  0  0  0  0  0  0  0
    3.3512   -3.0697  -16.9942 H   0  0  0  0  0  0  0  0  0  0  0  0
    4.5299   -2.2170  -18.0479 H   0  0  0  0  0  0  0  0  0  0  0  0
   10.3292   -4.9205  -16.8187 H   0  0  0  0  0  0  0  0  0  0  0  0
   10.0999   -3.1419  -16.7169 H   0  0  0  0  0  0  0  0  0  0  0  0
    8.9537   -4.2446  -15.8819 H   0  0  0  0  0  0  0  0  0  0  0  0
    4.3410    2.7554  -21.3657 H   0  0  0  0  0  0  0  0  0  0  0  0
    3.7764    1.6788  -20.0432 H   0  0  0  0  0  0  0  0  0  0  0  0
    4.1528   -5.2610  -17.8708 H   0  0  0  0  0  0  0  0  0  0  0  0
    5.3315   -4.4083  -18.9245 H   0  0  0  0  0  0  0  0  0  0  0  0
    9.3444   -4.0249  -18.9200 H   0  0  0  0  0  0  0  0  0  0  0  0
    8.1982   -5.1276  -18.0850 H   0  0  0  0  0  0  0  0  0  0  0  0
    5.2696   -4.3566  -15.8576 H   0  0  0  0  0  0  0  0  0  0  0  0
    6.4352   -5.2621  -16.8812 H   0  0  0  0  0  0  0  0  0  0  0  0
    8.1531   -2.0623  -17.9482 H   0  0  0  0  0  0  0  0  0  0  0  0
    7.0657   -3.0802  -18.9524 H   0  0  0  0  0  0  0  0  0  0  0  0
    3.6731    3.5297  -18.1437 H   0  0  0  0  0  0  0  0  0  0  0  0
    6.1271    3.6494  -19.9463 H   0  0  0  0  0  0  0  0  0  0  0  0
    5.2396    1.6117  -17.9271 H   0  0  0  0  0  0  0  0  0  0  0  0
    3.5327    5.3627  -16.7560 H   0  0  0  0  0  0  0  0  0  0  0  0
    3.3053    6.3392  -18.0450 H   0  0  0  0  0  0  0  0  0  0  0  0
    3.0058    3.9035  -20.3544 H   0  0  0  0  0  0  0  0  0  0  0  0
  1  7  2  0
  1  8  1  0
  2  7  1  0
  2  9  2  0
  3  8  2  0
  3  9  1  0
  4 10  2  0
  4 11  1  0
  5 10  1  0
  5 12  2  0
  6 11  2  0
  6 12  1  0
  7 16  1  0
  8 17  1  0
  9 22  1  0
 10 27  1  0
 11 44  1  0
 12 45  1  0
 13 14  2  0
 13 23  1  0
 13 34  1  0
 14 46  1  0
 14 47  1  0
 15 24  1  0
 15 34  2  0
 15 46  1  0
 16 36  1  0
 16 39  2  0
 17 37  1  0
 17 40  2  0
 18 20  1  0
 18 35  1  0
 19 21  1  0
 19 35  1  0
 20 38  1  0
 21 32  1  0
 21 38  1  0
 25 28  1  0
 26 29  1  0
 27 33  1  0
 28 30  1  0
 29 31  1  0
 30 37  1  0
 31 37  1  0
 32 33  1  0
 32 43  1  0
 33 36  1  0
 35 47  1  0
 41 47  2  0
 42 47  2  0
  1 48  1  0
  2 49  1  0
  3 50  1  0
  4 51  1  0
  5 52  1  0
  6 53  1  0
 18 54  1  0
 18 55  1  0
 19 56  1  0
 19 57  1  0
 20 58  1  0
 20 59  1  0
 21 60  1  1
 22 61  1  0
 22 62  1  0
 22 63  1  0
 23 64  1  0
 23 65  1  0
 23 66  1  0
 24 67  1  0
 24 68  1  0
 24 69  1  0
 25 70  1  0
 25 71  1  0
 25 72  1  0
 26 73  1  0
 26 74  1  0
 26 75  1  0
 27 76  1  0
 27 77  1  0
 28 78  1  0
 28 79  1  0
 29 80  1  0
 29 81  1  0
 30 82  1  0
 30 83  1  0
 31 84  1  0
 31 85  1  0
 32 86  1  1
 33 87  1  6
 36 88  1  0
 38 89  1  0
 38 90  1  0
 43 91  1  0
M  CHG  1  38   1
M  END
>  <OMEGA_C>  (167) 
YWnfQCCk/zzkAofB/UMKQWTbzD9fEoDBvfQFQenVFr8ohW/B7C/bQIq4uT/zb6zBK3ipQC54hr4i
IKbBATDtQAPPaL+pUq7BgofzQGRepj/+aIfBG9XrQFN5ar8bdH7BwXIQQUB/Jz8Hn3DBv++zQKcF
jD+Ym6fB8N73QEGZ5T7Gva/BcOfFQA6Sob+3janB80YDQTNsE0EzdH7BI04FQevoCkFrX4nB1OMT
QdBcL0HvlofBTXXlQG7ME0AQSI/Bdy7WQNhHDsBW8nzB3YqoQBz1AEF19IzB8OS2QHIQxUB9VJnB
sbiRQIqX40A7KYXBfPSfQG34pkAgRZHBG4whQWu+fz/qa2DBb23xQEU4CUExDmvByzYfQQKFREHJ
z4jBqqR5QN1CR8CdkY/BcloZQaWWg8CRL4bB8P6UQN4nCkDC+aPBjkqZQO7Vi8CyvY/B7UgLQajj
hMBKRZDB2QG6QIdyi8Bng4bBpYf0QM4pQsBRIZDBQzuJQAs+gkBEBpfByy2qQElURUBisZvB7YAM
QS+6J0EbCn3BsFnIQKWj6UBgeZPB04m7QDWEEED49pLBClLWQHwjSsDz8IbB3M1+QMFrv0AZNIvB
eBz+QIL0S0AaTpLB6SPEQMflHsBEBmzBzz33QCJGxEDcS4XBsFMLQWig2EDWXpfBuNlcQCiLk0BV
OJ/BPsUOQWXxST/4ULTBpyy7QFL1I8DGXKjBz1wQQZl4HUENAJLBlmn6QH5i4kBySY7BuoHGQNpf
Wb4SrYzBXi0SQXzRI0A3aYDBtDkKQefcpb89K2PBByjjQF97H0Avl63BUZyLQAnMCL9fW6LBko4B
QbYJ179R5LDBq8uQQERYCEFgTJLBkie5QPGDDUHZZYjBKgHRQMmms0CqUJ3B596fQCZX0EA1XJ/B
jMyoQJx310Dlfn7BButvQDTw9ED9BIHBxt23QDmwmUAou4vB3hwaQVpjvD9cYFLBxN8pQR3rpT3D
c1vBJRotQeDy2D+tpmfBobbzQMcnFEEEUF3Bfo3PQBoEBkGnm27BJN0AQcQz9EClNmfB2EkgQQl0
TEGQ+YDB4mkvQQfOQUH2+IvBiTQWQZS9TkHmYY7BfNtLQD74ScCwPpbBqnpWQER1RMAI9IfBIPWQ
QMfiDcACYpDBXEQlQfh0ncCqjIbBB5khQVQVScAovIXBekIPQZ3Th8A1HH7Bz+mKQDRYMEDl7KrB
JbFxQE3i1j+QWKDBxuOEQFJaqMB7947BkZuqQBMRjcB2ZZfBhIIVQWHMgMAfXJfB9ysDQVQVpMAR
rpDBlKCoQNxoi8C4uH3Bf+3NQIhjqMDGDIfB8nICQWb9A8AAlo/BaBriQKQiRcBsnpfBwRNrQAbn
YUBFJpHBSxHEQCOQaUAYkp/BIqunQFxMzj/Fao/BKxhiQA2bq0A/DIbBR4pTQFnaykAPXJDBkl5A
QCbSeUDP1aLB

>  <OMEGA_E>  (167) 
MAocPw==

>  <OMEGA_NBR>  (167) 
     54048

$$$$
50162165
     RDKit          3D

 92 95  0  0  1  0  0  0  0  0999 V2000
    6.6682    8.4584  -22.5058 C   0  0  0  0  0  0  0  0  0  0  0  0
    5.9107    9.6447  -22.4609 C   0  0  0  0  0  0  0  0  0  0  0  0
    7.2610    7.9582  -21.3307 C   0  0  0  0  0  0  0  0  0  0  0  0
    7.0011    0.0335  -16.8659 C   0  0  0  0  0  0  0  0  0  0  0  0
    8.5647    1.6634  -15.9340 C   0  0  0  0  0  0  0  0  0  0  0  0
    8.3660   -0.5490  -14.9301 C   0  0  0  0  0  0  0  0  0  0  0  0
    6.8087    1.2718  -21.4190 C   0  0  0  0  0  0  0  0  0  0  0  0
    5.0817   -0.3200  -20.7445 C   0  0  0  0  0  0  0  0  0  0  0  0
    6.3422    9.8341  -20.0678 C   0  0  0  0  0  0  0  0  0  0  0  0
    7.2004   -1.1246  -21.6446 C   0  0  0  0  0  0  0  0  0  0  0  0
    7.5773    1.3251  -16.8850 C   0  0  0  0  0  0  0  0  0  0  0  0
    7.4057   -0.9106  -15.8975 C   0  0  0  0  0  0  0  0  0  0  0  0
    5.7584   10.3398  -21.2423 C   0  0  0  0  0  0  0  0  0  0  0  0
    8.9625    0.7264  -14.9612 C   0  0  0  0  0  0  0  0  0  0  0  0
    5.5255    1.0091  -20.8902 C   0  0  0  0  0  0  0  0  0  0  0  0
    7.6495    0.2042  -21.7833 C   0  0  0  0  0  0  0  0  0  0  0  0
    5.9132   -1.3841  -21.1323 C   0  0  0  0  0  0  0  0  0  0  0  0
    7.1023    8.6514  -20.1100 C   0  0  0  0  0  0  0  0  0  0  0  0
    7.1334    2.3180  -17.8774 C   0  0  0  0  0  0  0  0  0  0  0  0
    6.7602   -2.2372  -15.8221 C   0  0  0  0  0  0  0  0  0  0  0  0
    5.3292    7.9227  -17.2815 C   0  0  0  0  0  0  0  0  0  0  0  0
    5.9503    5.9563  -18.7159 C   0  0  0  0  0  0  0  0  0  0  0  0
    4.3176    7.0313  -16.5498 C   0  0  0  0  0  0  0  0  0  0  0  0
    4.9037    5.1084  -17.9638 C   0  0  2  0  0  0  0  0  0  0  0  0
    4.9021   11.5800  -21.1725 C   0  0  0  0  0  0  0  0  0  0  0  0
    9.9696    1.1156  -13.9023 C   0  0  0  0  0  0  0  0  0  0  0  0
    3.8706   -3.0098  -17.9174 C   0  0  0  0  0  0  0  0  0  0  0  0
    9.6385   -3.9475  -16.9886 C   0  0  0  0  0  0  0  0  0  0  0  0
    4.6149    2.1444  -20.4859 C   0  0  0  0  0  0  0  0  0  0  0  0
    4.7255   -4.2894  -17.9841 C   0  0  0  0  0  0  0  0  0  0  0  0
    8.6722   -4.0466  -18.1798 C   0  0  0  0  0  0  0  0  0  0  0  0
    5.7966   -4.3144  -16.8747 C   0  0  0  0  0  0  0  0  0  0  0  0
    7.5773   -2.9610  -18.1123 C   0  0  0  0  0  0  0  0  0  0  0  0
    4.2562    4.0610  -18.8858 C   0  0  2  0  0  0  0  0  0  0  0  0
    5.2911    3.0673  -19.4529 C   0  0  1  0  0  0  0  0  0  0  0  0
    6.4105    7.0962  -17.8952 N   0  0  0  0  0  0  0  0  0  0  0  0
    5.8303    2.2455  -18.3569 N   0  0  0  0  0  0  0  0  0  0  0  0
    6.6869   -3.1177  -16.9260 N   0  0  0  0  0  0  0  0  0  0  0  0
    3.8252    5.9807  -17.4540 N   0  0  0  0  0  0  0  0  0  0  0  0
    7.9062    3.1908  -18.2584 O   0  0  0  0  0  0  0  0  0  0  0  0
    6.2554   -2.5466  -14.7481 O   0  0  0  0  0  0  0  0  0  0  0  0
    8.0456    9.0797  -17.6690 O   0  0  0  0  0  0  0  0  0  0  0  0
    8.7792    6.9804  -18.9124 O   0  0  0  0  0  0  0  0  0  0  0  0
    3.5834    4.7272  -19.9572 O   0  0  0  0  0  0  0  0  0  0  0  0
    8.8836    0.4557  -22.2752 F   0  0  0  0  0  0  0  0  0  0  0  0
    5.4707   -2.6554  -21.0185 F   0  0  0  0  0  0  0  0  0  0  0  0
    7.7372    7.9587  -18.5677 S   0  0  0  0  0  0  0  0  0  0  0  0
    6.7942    7.9327  -23.4408 H   0  0  0  0  0  0  0  0  0  0  0  0
    5.4462   10.0228  -23.3596 H   0  0  0  0  0  0  0  0  0  0  0  0
    7.8367    7.0451  -21.3626 H   0  0  0  0  0  0  0  0  0  0  0  0
    6.2491   -0.2313  -17.5946 H   0  0  0  0  0  0  0  0  0  0  0  0
    9.0163    2.6442  -15.9529 H   0  0  0  0  0  0  0  0  0  0  0  0
    8.6454   -1.2540  -14.1612 H   0  0  0  0  0  0  0  0  0  0  0  0
    7.1440    2.2909  -21.5435 H   0  0  0  0  0  0  0  0  0  0  0  0
    4.1028   -0.5209  -20.3349 H   0  0  0  0  0  0  0  0  0  0  0  0
    6.2069   10.3546  -19.1312 H   0  0  0  0  0  0  0  0  0  0  0  0
    7.8428   -1.9442  -21.9309 H   0  0  0  0  0  0  0  0  0  0  0  0
    4.8105    8.4843  -18.0724 H   0  0  0  0  0  0  0  0  0  0  0  0
    5.7756    8.6271  -16.5642 H   0  0  0  0  0  0  0  0  0  0  0  0
    6.8140    5.3218  -18.9637 H   0  0  0  0  0  0  0  0  0  0  0  0
    5.5002    6.3412  -19.6428 H   0  0  0  0  0  0  0  0  0  0  0  0
    4.8050    6.5649  -15.6809 H   0  0  0  0  0  0  0  0  0  0  0  0
    3.4707    7.6452  -16.2095 H   0  0  0  0  0  0  0  0  0  0  0  0
    5.3956    4.5936  -17.1254 H   0  0  0  0  0  0  0  0  0  0  0  0
    3.8610   11.2959  -20.9595 H   0  0  0  0  0  0  0  0  0  0  0  0
    5.2736   12.2374  -20.3726 H   0  0  0  0  0  0  0  0  0  0  0  0
    4.9476   12.1114  -22.1346 H   0  0  0  0  0  0  0  0  0  0  0  0
    9.4453    1.5537  -13.0403 H   0  0  0  0  0  0  0  0  0  0  0  0
   10.5247    0.2228  -13.5787 H   0  0  0  0  0  0  0  0  0  0  0  0
   10.6718    1.8533  -14.3179 H   0  0  0  0  0  0  0  0  0  0  0  0
    3.1200   -3.0274  -18.7214 H   0  0  0  0  0  0  0  0  0  0  0  0
    3.3629   -2.9585  -16.9430 H   0  0  0  0  0  0  0  0  0  0  0  0
    4.5185   -2.1294  -18.0401 H   0  0  0  0  0  0  0  0  0  0  0  0
   10.4031   -4.7342  -17.0696 H   0  0  0  0  0  0  0  0  0  0  0  0
   10.1255   -2.9612  -16.9928 H   0  0  0  0  0  0  0  0  0  0  0  0
    9.0784   -4.0759  -16.0506 H   0  0  0  0  0  0  0  0  0  0  0  0
    4.3593    2.7335  -21.3790 H   0  0  0  0  0  0  0  0  0  0  0  0
    3.6967    1.7275  -20.0465 H   0  0  0  0  0  0  0  0  0  0  0  0
    4.0689   -5.1640  -17.8662 H   0  0  0  0  0  0  0  0  0  0  0  0
    5.2245   -4.3349  -18.9633 H   0  0  0  0  0  0  0  0  0  0  0  0
    9.2413   -3.9226  -19.1129 H   0  0  0  0  0  0  0  0  0  0  0  0
    8.1942   -5.0373  -18.1708 H   0  0  0  0  0  0  0  0  0  0  0  0
    5.2936   -4.3406  -15.8968 H   0  0  0  0  0  0  0  0  0  0  0  0
    6.4110   -5.2188  -16.9954 H   0  0  0  0  0  0  0  0  0  0  0  0
    8.0617   -1.9747  -18.0614 H   0  0  0  0  0  0  0  0  0  0  0  0
    6.9641   -3.0218  -19.0235 H   0  0  0  0  0  0  0  0  0  0  0  0
    3.5262    3.4901  -18.2932 H   0  0  0  0  0  0  0  0  0  0  0  0
    6.1015    3.6275  -19.9422 H   0  0  0  0  0  0  0  0  0  0  0  0
    5.2139    1.5866  -17.9256 H   0  0  0  0  0  0  0  0  0  0  0  0
    3.1659    5.4159  -16.9577 H   0  0  0  0  0  0  0  0  0  0  0  0
    3.3723    6.4159  -18.2321 H   0  0  0  0  0  0  0  0  0  0  0  0
    3.1822    4.0833  -20.5289 H   0  0  0  0  0  0  0  0  0  0  0  0
  1  2  2  0
  1  3  1  0
  2 13  1  0
  3 18  2  0
  4 11  2  0
  4 12  1  0
  5 11  1  0
  5 14  2  0
  6 12  2  0
  6 14  1  0
  7 15  2  0
  7 16  1  0
  8 15  1  0
  8 17  2  0
  9 13  2  0
  9 18  1  0
 10 16  2  0
 10 17  1  0
 11 19  1  0
 12 20  1  0
 13 25  1  0
 14 26  1  0
 15 29  1  0
 16 45  1  0
 17 46  1  0
 18 47  1  0
 19 37  1  0
 19 40  2  0
 20 38  1  0
 20 41  2  0
 21 23  1  0
 21 36  1  0
 22 24  1  0
 22 36  1  0
 23 39  1  0
 24 34  1  0
 24 39  1  0
 27 30  1  0
 28 31  1  0
 29 35  1  0
 30 32  1  0
 31 33  1  0
 32 38  1  0
 33 38  1  0
 34 35  1  0
 34 44  1  0
 35 37  1  0
 36 47  1  0
 42 47  2  0
 43 47  2  0
  1 48  1  0
  2 49  1  0
  3 50  1  0
  4 51  1  0
  5 52  1  0
  6 53  1  0
  7 54  1  0
  8 55  1  0
  9 56  1  0
 10 57  1  0
 21 58  1  0
 21 59  1  0
 22 60  1  0
 22 61  1  0
 23 62  1  0
 23 63  1  0
 24 64  1  1
 25 65  1  0
 25 66  1  0
 25 67  1  0
 26 68  1  0
 26 69  1  0
 26 70  1  0
 27 71  1  0
 27 72  1  0
 27 73  1  0
 28 74  1  0
 28 75  1  0
 28 76  1  0
 29 77  1  0
 29 78  1  0
 30 79  1  0
 30 80  1  0
 31 81  1  0
 31 82  1  0
 32 83  1  0
 32 84  1  0
 33 85  1  0
 33 86  1  0
 34 87  1  1
 35 88  1  6
 37 89  1  0
 39 90  1  0
 39 91  1  0
 44 92  1  0
M  CHG  1  39   1
M  END
>  <OMEGA_C>  (168) 
pmHVQJhVB0HhC7TB1CS9QMFQGkHxr7PB5lnoQM6p/kBgparBsAjgQIEeCT1y7YbB2wgJQezp1D/b
8X7B79oFQeaIDL/X4W7BJuHZQA/Loj8iWqvBhZ2iQNjZo7699KXBjvPKQFRYHUHHiqDBqmnmQOry
j78hKK3Bd3nyQCKdqT9pFIfBy/vsQG4aab8rXH7BzUS4QKhvJUEq8KnBWWYPQWDyOT8DYW/BuNCw
QPgpgT8tH6fBDMn0QFweUT4qRK7BTTm9QLkrsb8ND6nBHUbjQPVrCkFX4aDBCEXkQOVZFEDuBI/B
jFPYQLMuD8B/J33BHomqQPmG/UCQQIrBIWm+QD6avkAiupXBGSqKQFUA4UD+ZYTBu+qcQFd4o0DE
tY/BLd6cQMNHOUFGYanBZoMfQS3Mjj/2b17BNLh3QKGgQMDjVo/BVDcaQS+kfMC46IfBYa2TQBg9
CUAs46PBRjeXQPtCicBa34/BRsEKQfR9gcBCcJHBj325QLkPisBv/4bB6XjyQNWAPcDp5ZDB8TKI
QIbzgUAVFpfBXFCpQPZORECkn5vBHyPNQEYU40BLKY/BbpG6QAO2D0D42pLBHfvVQMSHR8BjaIfB
uNB0QKZhv0DMoYvBMf/8QL02TEAnEZLBOCzIQCj8IsA3+GvBtLoAQZJGEUERWo3BhHcMQYNf30CS
TJfB/lZlQI9Fl0BaqJ/BKiMOQbJN6T6LM7LBLxCvQHrxKcD8JajBipf3QIqt/kCbipTBUmrZQKnY
/UCthrvBVEeuQGRdIEF54LrBpsb6QCtx4UCh5qrB8vjHQEndbL6uwYzB3UIQQQg7KUAgP3/BoVMK
QeSBoL9AlGLBjJvkQPydEkAbWazBbkqDQIxaBb/HraLB/Z7GQJ2sJUHEDJnBIPj6QGnb+L+Vcq/B
ou+ZQK6/B0FdlJDBzdG4QLYICkF1g4TBfQzaQBpMqkCZtZfBegGwQDjrykCEJJ3BNcKZQKMT0kDy
5HrBjR9eQCGl9EACrYHBuqisQJP+kkC7AInBmRp3QBm8NEEhrafBicGoQFvMQ0ES+6LBrlKeQF7I
QUGQE7HBxB8XQU/gxj/7pFDBS2UoQU8uZD4xQlnBfb8qQXs67T8dFmXBe65HQLXAQcBVxZXBYjlX
QJpYPcAyi4fBq5eQQF1HCMAQUpDBCHMmQZB+l8CZjojBMwIiQaqEPcBM8YfBQ0ERQd9tgsC1Z4DB
NX+LQGLxLkAvCKvB6ZZsQKoe3T8jX6DBSzSCQOU/pcD47Y7BRC+nQEe3isDWtJfBYdwTQSIMe8BN
55jBcRsDQZsxocC3XZHBdGWpQOrlisA6WX7BlSbNQL8Ap8CD9ofBmPwAQf/C/L/KfZDB2dneQEJl
QcAYMJjBE65hQBVdX0BnWJLBsz/DQHcoaECmiZ/BmtimQM8Wyz+JZ4/B2p1KQBNPrUBtqYfBONRX
QDFPzUBW25HBhKlLQE6qgkA3O6TBo9CzQA4nLUHMF6bB2B61QFllJEExd7DB2sbIQH2qIkE/np3B
Av7fQACwwTgk24bBJIwJQQMe0D/2mX/BMfwFQXAuD7+1tm7BsVnZQBH+kD9DS6vB2j2hQN9o0b6p
hqXBmDvgQHqgBkEA4qnBW0jkQD0yo789uKzBdAbzQPNZpD+CRYfBTN3sQOQQbr+R8X3B6+DKQF33
EEGNVLLB/ssPQTbQND9yvG/B4UewQBBqaD9p8qbBlnPzQFgOKj0lFa7BBRS7QIfCv79bfqjB8kPf
QO5xD0Gihp/BewHlQONEEUDQUI/Bh+7XQCATEMDCKnzBYG6qQFZg/EC8PorBspu/QEctv0BtVJbB
NKOKQB6d3kBZrYTBU1+eQPkbo0A1bpDBHR/NQNG3B0FSd73BCBkgQQy3jT/IC1/B4V91QODeQsAB
R47BwGUZQbwQgcALfofBbfWTQGmpBEC59KPBpYWVQFrAisA0t47BNroJQS0khMDE8JDBaHO4QOsr
i8AqAYbB2eTwQNLhQcA9XpDBbayJQEKAgUD8w5fBXFSqQHxbQUDh+pvBPn/NQKSD40Cjd4/BDBO7
QCMsDkB4AZPBMxbVQFIgSsDouobBwPR2QFwvvkAbRYzB2wD+QFsdSEBghJLBTGLIQHBzIsBivmrB
5YcBQZ91EEFLTIzBuWgLQeQv5EDA9pjBwBdqQG2GlkA4hKDBdHYNQerFhD5UJrLBzymsQGCEMMCH
V6fBNb32QJXYAEHYhpTBcMCiQH7lO0E5pKTB23WlQM+NLEG2/7bBJanHQCNTKUF5ppXBR5PHQCXk
ib4BlIzBuw0RQcU+JkCDLIDBgWUKQRcPoL+ZMGLBorbkQHEVCUAUeqzBaeSBQD3BFL/wKKLBAGLx
QAHT70AlWKvB9Tz4QBU7B8AL6q7BMnGZQP2MB0EgXpDBymm4QAgXCUE/SYTBEaHbQN9/q0D7XpjB
MSuxQPjXy0BCtJ3BTXqaQNm/zkAVyXvBo4deQINh8UCtvoHBkF6uQMaikkDDwonBUUrpQJMuDkE/
o8HBo7fPQCRj7EAy+bzBlfuvQBUIDEEw6MHBn+MXQXlDyT9NX1HBkdMoQcUyXD6YlVnBQnErQdar
6T+YCmbB21ZEQIyJRMCWlpTBJyJWQCXXPcCaaobBkaqPQMI1C8Acg4/BYXYlQYmOmsAQJ4jBmGEh
QUlmQ8DDn4fBqI8QQY26hMDS33/BZN+LQFevKEDLPavBQO5sQNz91z/FRaDBRESAQMdlpsCxhI3B
wd2kQBUVjcAznZbBHrQSQbGdgMBfdZjBLuIBQRqlo8CFxZDBGveoQA5ei8A8NHzBlN/LQDxKqMD4
74bBlmYAQewaA8CmJpDBl7PcQN8jRsB5jpfBkTtjQNcaYEC2DJPBXJDEQKoXY0A+D6DBrNWmQOTH
zD8BT4/BflJMQLp2q0DEkYjBecVaQIcAzUBrbJLBQXhQQALKgUDqDqXB

>  <OMEGA_E>  (168) 
YGWXPWDXPD0=

>  <OMEGA_NBR>  (168) 
     57223

$$$$
50147865
     RDKit          3D

 73 76  0  0  1  0  0  0  0  0999 V2000
    4.9839   10.3216  -22.0650 C   0  0  0  0  0  0  0  0  0  0  0  0
    5.2320   10.9574  -20.8321 C   0  0  0  0  0  0  0  0  0  0  0  0
    5.4742    9.0217  -22.3003 C   0  0  0  0  0  0  0  0  0  0  0  0
    5.9715   10.2953  -19.8347 C   0  0  0  0  0  0  0  0  0  0  0  0
    6.2183    8.3595  -21.3051 C   0  0  0  0  0  0  0  0  0  0  0  0
    6.7846    1.0333  -21.3391 C   0  0  0  0  0  0  0  0  0  0  0  0
    5.0556   -0.4323  -20.4246 C   0  0  0  0  0  0  0  0  0  0  0  0
    7.1313   -1.3787  -21.2863 C   0  0  0  0  0  0  0  0  0  0  0  0
    6.4785    9.0003  -20.0716 C   0  0  0  0  0  0  0  0  0  0  0  0
    5.5172    0.8596  -20.7447 C   0  0  0  0  0  0  0  0  0  0  0  0
    7.5949   -0.0847  -21.5996 C   0  0  0  0  0  0  0  0  0  0  0  0
    5.8612   -1.5509  -20.6988 C   0  0  0  0  0  0  0  0  0  0  0  0
    8.4778   -0.4548  -15.2432 C   0  0  0  0  0  0  0  0  0  0  0  0
    6.1174    6.0568  -18.7389 C   0  0  0  0  0  0  0  0  0  0  0  0
    7.0476    2.1952  -17.5737 C   0  0  0  0  0  0  0  0  0  0  0  0
    8.5266    1.0124  -15.7358 C   0  0  0  0  0  0  0  0  0  0  0  0
    5.2576    7.9845  -17.4120 C   0  0  0  0  0  0  0  0  0  0  0  0
    7.0176   -0.2329  -17.0515 C   0  0  0  0  0  0  0  0  0  0  0  0
    4.5413    6.9579  -16.5320 C   0  0  0  0  0  0  0  0  0  0  0  0
    5.1296    5.1033  -18.0071 C   0  0  2  0  0  0  0  0  0  0  0  0
    7.1936    1.1529  -16.4598 C   0  0  2  0  0  0  0  0  0  0  0  0
    9.3231   -3.3080  -17.3999 C   0  0  0  0  0  0  0  0  0  0  0  0
    4.6789    2.0599  -20.3971 C   0  0  0  0  0  0  0  0  0  0  0  0
    7.2205    8.2801  -18.9650 C   0  0  0  0  0  0  0  0  0  0  0  0
    7.7862   -3.2573  -17.3434 C   0  0  0  0  0  0  0  0  0  0  0  0
    7.2693   -2.5853  -16.0435 C   0  0  0  0  0  0  0  0  0  0  0  0
    4.4515    4.0750  -18.9242 C   0  0  2  0  0  0  0  0  0  0  0  0
    5.4182    2.9662  -19.3904 C   0  0  1  0  0  0  0  0  0  0  0  0
    6.2957    7.3651  -18.2682 N   0  0  0  0  0  0  0  0  0  0  0  0
    7.5116   -1.1284  -16.0143 N   0  0  0  0  0  0  0  0  0  0  0  0
    5.8207    2.1662  -18.2306 N   0  0  0  0  0  0  0  0  0  0  0  0
    4.0408    5.8826  -17.3906 N   0  0  0  0  0  0  0  0  0  0  0  0
    9.1228   -0.9145  -14.3085 O   0  0  0  0  0  0  0  0  0  0  0  0
    6.8476    5.6262  -19.6245 O   0  0  0  0  0  0  0  0  0  0  0  0
    7.9194    3.0224  -17.8238 O   0  0  0  0  0  0  0  0  0  0  0  0
    3.8565    4.7534  -20.0310 O   0  0  0  0  0  0  0  0  0  0  0  0
    8.8244    0.0874  -22.1344 F   0  0  0  0  0  0  0  0  0  0  0  0
    5.4225   -2.7882  -20.3778 F   0  0  0  0  0  0  0  0  0  0  0  0
    4.4174   10.8313  -22.8303 H   0  0  0  0  0  0  0  0  0  0  0  0
    4.8543   11.9532  -20.6526 H   0  0  0  0  0  0  0  0  0  0  0  0
    5.2793    8.5334  -23.2437 H   0  0  0  0  0  0  0  0  0  0  0  0
    6.1513   10.7794  -18.8862 H   0  0  0  0  0  0  0  0  0  0  0  0
    6.5906    7.3616  -21.4839 H   0  0  0  0  0  0  0  0  0  0  0  0
    7.1315    2.0239  -21.5935 H   0  0  0  0  0  0  0  0  0  0  0  0
    4.0849   -0.5629  -19.9695 H   0  0  0  0  0  0  0  0  0  0  0  0
    7.7496   -2.2389  -21.4966 H   0  0  0  0  0  0  0  0  0  0  0  0
    8.5982    1.7144  -14.8920 H   0  0  0  0  0  0  0  0  0  0  0  0
    9.3717    1.1753  -16.4209 H   0  0  0  0  0  0  0  0  0  0  0  0
    4.5149    8.4770  -18.0568 H   0  0  0  0  0  0  0  0  0  0  0  0
    5.7349    8.7341  -16.7638 H   0  0  0  0  0  0  0  0  0  0  0  0
    5.9579   -0.4332  -17.2680 H   0  0  0  0  0  0  0  0  0  0  0  0
    7.6071   -0.3412  -17.9739 H   0  0  0  0  0  0  0  0  0  0  0  0
    5.2448    6.5465  -15.7932 H   0  0  0  0  0  0  0  0  0  0  0  0
    3.7006    7.4383  -16.0099 H   0  0  0  0  0  0  0  0  0  0  0  0
    5.6833    4.5647  -17.2240 H   0  0  0  0  0  0  0  0  0  0  0  0
    6.4030    1.3230  -15.7141 H   0  0  0  0  0  0  0  0  0  0  0  0
    9.6403   -3.7911  -18.3359 H   0  0  0  0  0  0  0  0  0  0  0  0
    9.7253   -2.2850  -17.3609 H   0  0  0  0  0  0  0  0  0  0  0  0
    9.7026   -3.8842  -16.5432 H   0  0  0  0  0  0  0  0  0  0  0  0
    4.4699    2.6323  -21.3129 H   0  0  0  0  0  0  0  0  0  0  0  0
    3.7315    1.7223  -19.9514 H   0  0  0  0  0  0  0  0  0  0  0  0
    8.0520    7.7032  -19.3960 H   0  0  0  0  0  0  0  0  0  0  0  0
    7.6166    9.0160  -18.2498 H   0  0  0  0  0  0  0  0  0  0  0  0
    7.4185   -2.6854  -18.2081 H   0  0  0  0  0  0  0  0  0  0  0  0
    7.3958   -4.2847  -17.3904 H   0  0  0  0  0  0  0  0  0  0  0  0
    6.1867   -2.7628  -15.9631 H   0  0  0  0  0  0  0  0  0  0  0  0
    7.7808   -3.0435  -15.1842 H   0  0  0  0  0  0  0  0  0  0  0  0
    3.6561    3.5893  -18.3399 H   0  0  0  0  0  0  0  0  0  0  0  0
    6.2955    3.4194  -19.8750 H   0  0  0  0  0  0  0  0  0  0  0  0
    5.1387    1.5291  -17.8714 H   0  0  0  0  0  0  0  0  0  0  0  0
    3.4776    5.2671  -16.8392 H   0  0  0  0  0  0  0  0  0  0  0  0
    3.4826    6.2846  -18.1164 H   0  0  0  0  0  0  0  0  0  0  0  0
    3.4356    4.1211  -20.6015 H   0  0  0  0  0  0  0  0  0  0  0  0
  1  2  2  0
  1  3  1  0
  2  4  1  0
  3  5  2  0
  4  9  2  0
  5  9  1  0
  6 10  2  0
  6 11  1  0
  7 10  1  0
  7 12  2  0
  8 11  2  0
  8 12  1  0
  9 24  1  0
 10 23  1  0
 11 37  1  0
 12 38  1  0
 13 16  1  0
 13 30  1  0
 13 33  2  0
 14 20  1  0
 14 29  1  0
 14 34  2  0
 15 21  1  0
 15 31  1  0
 15 35  2  0
 16 21  1  0
 17 19  1  0
 17 29  1  0
 18 21  1  0
 18 30  1  0
 19 32  1  0
 20 27  1  0
 20 32  1  0
 22 25  1  0
 23 28  1  0
 24 29  1  0
 25 26  1  0
 26 30  1  0
 27 28  1  0
 27 36  1  0
 28 31  1  0
  1 39  1  0
  2 40  1  0
  3 41  1  0
  4 42  1  0
  5 43  1  0
  6 44  1  0
  7 45  1  0
  8 46  1  0
 16 47  1  0
 16 48  1  0
 17 49  1  0
 17 50  1  0
 18 51  1  0
 18 52  1  0
 19 53  1  0
 19 54  1  0
 20 55  1  1
 21 56  1  1
 22 57  1  0
 22 58  1  0
 22 59  1  0
 23 60  1  0
 23 61  1  0
 24 62  1  0
 24 63  1  0
 25 64  1  0
 25 65  1  0
 26 66  1  0
 26 67  1  0
 27 68  1  1
 28 69  1  6
 31 70  1  0
 32 71  1  0
 32 72  1  0
 36 73  1  0
M  CHG  1  32   1
M  END
>  <OMEGA_C>  (169) 
YXyfQHMlJUEJhbDBQWynQHlRL0EhqKbB0iyvQNpYEEELZ7LBnBa/QJC5JEGDrZ7Bo/zGQIPABUHg
cKrBgRvZQMdChD9stqrBYMehQL5b3b6GZaPBmDPkQPd4sL9rSqrB7E/PQB0BEEGhkqDBy4ywQKwN
XD8T9aXBxgnzQFh0rb30y6zBx467QCuExr8el6XBMaUHQZra6L7843PBycHDQK7RwUBL6ZXBKobh
QN5+DEDrlozBGG0IQe6WgT/7xXvB9T2oQAyB/0CzS4vBdpDgQEB/br6MaYjBN1KRQGen3kCKQYTB
eyWkQBFOo0CWDpDBDjLmQLSRkz+hrYPBTisVQfq2U8AQM4vBermVQErVA0AqLaPBCg7nQH17BEFY
uJfBSSj5QNp3UMAzv4rBPJ7oQB52JcAeWYDB7HKOQBlmgkC6ZJfB5GGtQL7VPUByH5vB/HXJQASv
60BeJZLBs17wQNdwkL84HYDBC0O6QByjCkBA2JHBL06BQHo+vEDbH4vBCfcRQbQaar+B72TB4R/b
QJ8JtEDg/pzBpmv9QIhvQUAOl47BXNF2QP0bmEBrP6DBkjANQaT5sj0wE7HBPoWtQKpyMsDDBaPB
sFuNQN5MLUF9pLbBjVabQC1AP0GTOKXBGPCoQPiICEEk87nBmNfEQHR4LEHrFpfBeubSQC2S60Ad
36vBpzXkQHeHAUB9v6zBareCQOccEL+KwZ/BbPz3QOpJD8AM+avBJ5IJQUhx2z+BRW7BivIVQf9u
lj8EXoPB1XmQQM+hB0FjdJDBZYS3QA2/C0EqHIbBNae+QGLO3b7lJIrBmW3zQKKzrr6Qyo/BotWn
QDB90UAXsXzBHtdsQDMG7kBHFIDBUN21QLkRkkCzyonBuOXMQDlYqT/kbHvBtz4aQbehcsDhr5LB
rZobQaE8EsAX44rBwz0bQR2WeMBkWITBegmPQOx2KEDDgKrBj9FuQLd03D+QnJ/B7tQAQbuA9kDv
KpvBk7vzQH9BEEGG/5HBkmTtQF3eK8A5qpHBv6rsQOwbicCGH4vBivnFQGjSMMANaX/BRfz4QErJ
QsBv8nLBFP1pQMW3ZUAPuJLBFHXJQEfXWkD2/57BgHCkQNS5wz+J+I7BsJFeQHiMqECVtobBneNe
QJUbyUBq7pDBneBbQODfg0DGz6TBWLGjQD2JJ0EMxq/BMH+yQDKnEkGM37HBK/yqQFD4MEHCsqXB
JNHIQLE8B0FO66nBGCfBQIqOJUFwup3BmenVQIwahj92GKvBAo+gQKBo477aO6PBG1HiQDjprb/y
yKrByYvQQEHBEEGo15/BzyuuQDgYWz+k8qXB4QrwQGCCcL2rc63B/nu6QPhxxr9Gu6XBnB4IQQQt
Pb4HvHLBNnLCQGXywUA7tZXBXKrhQOkXDUDh0I3BKfgJQRJvkz98y37B4HinQGU6/0Ce1IrB4KHb
QOhGCb6/wYbByoWQQIUB3kC95oPBPi+iQLxfo0ACE5DBnkXnQGAepz+gBoTB75LAQNLMXcDU5YrB
L5SSQEnIAkCQIKPBb/3mQAxoBEEhDZfBPjTmQCIgV8BU/4LBuE3fQBuQD8CULXXBkRCMQOdcg0DE
ppfB8IiqQOUdP0B+cJvBX3DIQC6S60C3xpHBhfTuQKF7a78KTHzBa624QPUcDkCQGpLBYKh/QJpd
vEAV7orBj5ISQZcvAL/Y8WLB2kTaQLYotEAAspzBSj3+QDqHPEDGA5HBi0J0QCbmmUBzgqDB6BsL
QR7aAT68ULLBdAKtQAUWM8BuVKPB6L6SQLdQMEFG5LXBA7qsQAhnC0EAlbnBT5CfQJX1QEFnF6TB
nAfUQIJq7kDVhKvBZ2TGQP27LEGR+pXBRz3gQBrIAkDxOK3BhkSCQPMxF78TPp/Bvlb2QLpbDcB8
nazBd9oNQUMp/T/71nPBCR0WQeOrjD++wIXBH7ePQCm3B0Hd54/B+vW2QC9oC0HNkYXBVrK4QCgO
ib7e4YbBhwfpQGDj174BkI7BaCinQKoU0ED+QnzBRvNrQJBG7UBcIH/BVp2zQOoskUAO7onBdLXR
QM1s1D99WHvBCe3GQPCiiMD9r5DBUACjQB8nbMCReYbBrOO8QGS6IMBdLY/Bc2mKQPLXJUDheqrB
tCFqQIRc2D9vQJ/B6q8AQdUZ9kC3hZrBh9jzQPixD0EvHZHBobbpQEhUisA8oH3B/swBQdU7ScDq
g4fBU9i8QP2KCsChz3HBlWXwQF5fIcBoc2bBPg9kQEgWaEBDIpPB1xfGQDerW0BRl5/B5rCiQLK7
0z9jdo7B4mBbQAWIqEC0lobBFulbQKj2yUD+oJDBMflYQC0yhkB1L6XB+fKnQF0uJ0GgJa/BG4Wz
QNXoMEHzZaXBQuyxQKOEEUFCArHBbffIQGv8JEGnfp3B7cHHQKCfBUHfJ6nBVP3TQA5rdz8nE6vB
2lueQEt1/L7V86LBHLLfQN/MuL+4c6rBT43TQL9fD0EPYJ/BHkSsQO5FTD8v3aXBqa3tQHA1Hb5F
Wa3BeBK4QMRbzr8MPKXBPWAKQaDL072D3nTB5rnCQPCev0B1hZXBxZbdQHBrFUC1yozBBQ0HQdkF
rz9/DHvBJFCpQBwr/UDjhorBs7roQND7Sr1hpYnBXWOQQCVx3EC23oPBZg6hQOMBokCqH5DB3Szl
QLbOpT/AGITBixrWQL0+jMCMd4LBegWRQPsNAEB7KKPBoV3pQGicAkFHoZbBBOzbQO+eO8DPmH3B
0EoCQUYRFcBn0oPBfuOKQF28gkAt4ZfB2wKpQCznPEAwhJvBHPvJQGy56EB5bJHBBuIBQXw3X78s
0ILBYKK2QE48DUCcDZLBbz5+QKHju0BAIIvBMuATQQbzAb9r/WTBJ0naQMx/sUDxhZzBOLf5QKbb
RkDvv4/BX9d0QEvXmUAX0KDBkeMJQaA9MDxrTbLBT/mqQIgnNsAURaLBgmuXQCNXMEFjMrXBjOyr
QLOHQUF8/aPBidKoQMYJCkEtdbjBpVXRQAtmLEHF+ZXBBoTPQEAR6kBDmarBMqfeQOw5+j+NUK3B
ofB/QAZ2H7+H+J7BAFrzQC9xE8AkO6zB5vUEQe4JAEBtz2zByH8UQT+S3z99UoLB+6qSQO9iB0G8
oI/B+165QNbSCUG9EoXBUujIQK/OAb/Sg4rBFm/3QPPzjD3IlZHBzeClQJdPzUBHCHzBEQpsQBp7
7EDdRn/Bo2KxQDwuj0C16InBEIHJQOv+oz9CUX3B/vq4QDucmcBMpn3BoyvTQFEvjcC1O4vBQf7x
QCxGn8DK9H/BiCeJQOqYIkDKkarBw6pmQF2p1D+kSZ/Bl50BQU/k8UAeIprB/9P2QCKiDUHXppDB
fPS/QPbHFcD5SIHBGsfeQKz1OcBSD2zBTXcQQcthLsA1WX/B6wUDQV2PJsCMVozB6StgQAfIZ0Ar
jJPBBNDEQMR7WEBXq5/B9+6hQLBCxT/XE4/BD51XQDCBqECd+obBZL5cQFp5ykCj4pDBkoJZQB2Q
hkAYmKXB6r2gQFBgKkFn7a3BIt2tQIPCFUGNGrHB2JurQAwoMkHNs6PB5DDGQNn7CEEgF6rBRr3D
QGZfJUF0qpzBIqPUQCRXiD+/9avBHkOhQDaE8L6pz6PBaifjQCM1qr8Qs6vBKHrRQGjVEEFo3Z/B
HHytQPAjVz+jnqbBZIDvQJgrmbwJda7BSBS8QDLcxr92WqbBcTMKQYZDqj1QiXHBQhDCQAS8wEBo
x5bBTLXeQKCFEEB7ao3B/RoHQUQ3vj9n/XrBAFSuQMm4/EBbjYrBtovmQAbxu722cYfBUBiVQBrh
20Cr+oPB8CKjQJhlokD9qJDBGsnkQN9VrD9ewYPBNZoaQZyWesB7VYjB6nyRQNx4AECkg6PBPszp
QH7qAkF+A5jBkBERQVVqIMAXz4jB7IsBQQ4UEMCPvn7B5paLQITlgUBfz5fBxoOpQCy8O0Ajt5vB
ftDLQMfn6ED6bJLBQjb6QEa5T79VCn3B3F63QOa3CUCkdpLBQT+CQPQVvEACNYvBRnIWQduYQL5v
22LB0LXUQKJWtEDx1Z7BRoX6QCaSQkBMaZDBk4RwQBLXl0AckqDBx6YKQR93Tj7xabPBpIuwQFKr
M8AdhqPBwFaOQLs4NEHuVbPBc0SlQJzBD0FP6rjBR2uhQJruQUG6Q6HBVDrQQENd8kCOhqzBXMPL
QMtKK0HkzJTBd/PdQNJvBEBdIK7B/1aDQO0xJL82tp/Bw6P3QEN2CsDdrq3Bgo4FQcxmD0AjR27B
QHsUQQrA4D+UyoLBUnWXQD+JCEFS5Y7Bz0DBQGBGCEHwB4XBpSzGQPYp876CConBEi36QGsGPr7F
tY7BALuqQHTRy0A9onzBLwF3QEI57ECoDn/BzNC1QHehkED/qorBxYzJQI7TvD+ijXzBt4QlQaP5
gcALI4/BXn4jQbk/gcDWzYDB06QNQVkQlcCJt4jB/cmIQP66JECuvKrBepFoQPzY0D/doJ/B9tcA
QQS38kBOXZzBLw/6QCklDUFQHpLBgyIeQVSp4r/0dojB90gIQen1GMCnYJDBAv3kQFrJMsDnxoDB
yeIIQS3HJsDByW/BKrNkQJ/0ZUC18JLBOkTFQGwSWEAgz5/Bc7GiQJfTvT/JhY/BZuVeQGiJqEAU
9obBHmhhQB5Gy0A+t5DBAmpTQLrcg0Dn/qTB

>  <OMEGA_E>  (169) 
AL8TP0r4FD+WXCA/lOQJPw==

>  <OMEGA_NBR>  (169) 
      4892

$$$$
50147881
     RDKit          3D

 76 79  0  0  1  0  0  0  0  0999 V2000
    4.9826   10.3035  -22.0587 C   0  0  0  0  0  0  0  0  0  0  0  0
    5.2214   10.9432  -20.8260 C   0  0  0  0  0  0  0  0  0  0  0  0
    5.4782    9.0044  -22.2877 C   0  0  0  0  0  0  0  0  0  0  0  0
    5.9559   10.2855  -19.8220 C   0  0  0  0  0  0  0  0  0  0  0  0
    6.2181    8.3469  -21.2861 C   0  0  0  0  0  0  0  0  0  0  0  0
    6.8016    1.0287  -21.3152 C   0  0  0  0  0  0  0  0  0  0  0  0
    5.0876   -0.4547  -20.4016 C   0  0  0  0  0  0  0  0  0  0  0  0
    7.1719   -1.3800  -21.2662 C   0  0  0  0  0  0  0  0  0  0  0  0
    6.4682    8.9913  -20.0523 C   0  0  0  0  0  0  0  0  0  0  0  0
    5.5346    0.8425  -20.7215 C   0  0  0  0  0  0  0  0  0  0  0  0
    7.6226   -0.0815  -21.5786 C   0  0  0  0  0  0  0  0  0  0  0  0
    5.9041   -1.5651  -20.6781 C   0  0  0  0  0  0  0  0  0  0  0  0
    8.5197   -0.1804  -15.0970 C   0  0  0  0  0  0  0  0  0  0  0  0
    6.1098    6.0493  -18.7216 C   0  0  0  0  0  0  0  0  0  0  0  0
    7.0572    2.2675  -17.5893 C   0  0  0  0  0  0  0  0  0  0  0  0
    8.5611    1.2282  -15.7129 C   0  0  0  0  0  0  0  0  0  0  0  0
    5.2407    7.9711  -17.3914 C   0  0  0  0  0  0  0  0  0  0  0  0
    7.0389   -0.1285  -16.9168 C   0  0  0  0  0  0  0  0  0  0  0  0
    4.5237    6.9386  -16.5188 C   0  0  0  0  0  0  0  0  0  0  0  0
    5.1108    5.0941  -18.0067 C   0  0  2  0  0  0  0  0  0  0  0  0
    7.2179    1.2968  -16.4177 C   0  0  2  0  0  0  0  0  0  0  0  0
    9.4161   -3.6701  -17.3557 C   0  0  0  0  0  0  0  0  0  0  0  0
    4.6742    2.0341  -20.3863 C   0  0  0  0  0  0  0  0  0  0  0  0
    7.2063    8.2765  -18.9393 C   0  0  0  0  0  0  0  0  0  0  0  0
    8.0491   -3.2440  -17.9202 C   0  0  0  0  0  0  0  0  0  0  0  0
    6.9271   -3.2068  -16.8454 C   0  0  0  0  0  0  0  0  0  0  0  0
    7.2626   -2.3517  -15.5896 C   0  0  0  0  0  0  0  0  0  0  0  0
    4.4359    4.0748  -18.9395 C   0  0  2  0  0  0  0  0  0  0  0  0
    5.4057    2.9687  -19.4033 C   0  0  1  0  0  0  0  0  0  0  0  0
    6.2819    7.3572  -18.2474 N   0  0  0  0  0  0  0  0  0  0  0  0
    7.6918   -0.9734  -15.9111 N   0  0  0  0  0  0  0  0  0  0  0  0
    5.8295    2.1936  -18.2366 N   0  0  0  0  0  0  0  0  0  0  0  0
    4.0225    5.8707  -17.3866 N   0  0  0  0  0  0  0  0  0  0  0  0
    9.0952   -0.5285  -14.0729 O   0  0  0  0  0  0  0  0  0  0  0  0
    6.8555    5.6189  -19.5943 O   0  0  0  0  0  0  0  0  0  0  0  0
    7.9178    3.0916  -17.8844 O   0  0  0  0  0  0  0  0  0  0  0  0
    3.8558    4.7602  -20.0489 O   0  0  0  0  0  0  0  0  0  0  0  0
    8.8451    0.1005  -22.1259 F   0  0  0  0  0  0  0  0  0  0  0  0
    5.4741   -2.8081  -20.3677 F   0  0  0  0  0  0  0  0  0  0  0  0
    4.4192   10.8094  -22.8288 H   0  0  0  0  0  0  0  0  0  0  0  0
    4.8405   11.9387  -20.6518 H   0  0  0  0  0  0  0  0  0  0  0  0
    5.2906    8.5132  -23.2310 H   0  0  0  0  0  0  0  0  0  0  0  0
    6.1278   10.7723  -18.8734 H   0  0  0  0  0  0  0  0  0  0  0  0
    6.5948    7.3499  -21.4603 H   0  0  0  0  0  0  0  0  0  0  0  0
    7.1399    2.0231  -21.5667 H   0  0  0  0  0  0  0  0  0  0  0  0
    4.1192   -0.5959  -19.9447 H   0  0  0  0  0  0  0  0  0  0  0  0
    7.7985   -2.2339  -21.4775 H   0  0  0  0  0  0  0  0  0  0  0  0
    8.6463    2.0027  -14.9364 H   0  0  0  0  0  0  0  0  0  0  0  0
    9.3931    1.3300  -16.4251 H   0  0  0  0  0  0  0  0  0  0  0  0
    4.4991    8.4658  -18.0359 H   0  0  0  0  0  0  0  0  0  0  0  0
    5.7150    8.7182  -16.7380 H   0  0  0  0  0  0  0  0  0  0  0  0
    5.9705   -0.3782  -16.9955 H   0  0  0  0  0  0  0  0  0  0  0  0
    7.5186   -0.2565  -17.8983 H   0  0  0  0  0  0  0  0  0  0  0  0
    5.2269    6.5207  -15.7834 H   0  0  0  0  0  0  0  0  0  0  0  0
    3.6834    7.4154  -15.9929 H   0  0  0  0  0  0  0  0  0  0  0  0
    5.6572    4.5447  -17.2259 H   0  0  0  0  0  0  0  0  0  0  0  0
    6.4373    1.5118  -15.6730 H   0  0  0  0  0  0  0  0  0  0  0  0
   10.1617   -3.6756  -18.1644 H   0  0  0  0  0  0  0  0  0  0  0  0
    9.7275   -2.9605  -16.5749 H   0  0  0  0  0  0  0  0  0  0  0  0
    9.3362   -4.6786  -16.9239 H   0  0  0  0  0  0  0  0  0  0  0  0
    4.4459    2.5869  -21.3094 H   0  0  0  0  0  0  0  0  0  0  0  0
    3.7376    1.6863  -19.9260 H   0  0  0  0  0  0  0  0  0  0  0  0
    8.0439    7.7036  -19.3637 H   0  0  0  0  0  0  0  0  0  0  0  0
    7.5935    9.0155  -18.2224 H   0  0  0  0  0  0  0  0  0  0  0  0
    8.1488   -2.2391  -18.3563 H   0  0  0  0  0  0  0  0  0  0  0  0
    7.7575   -3.9572  -18.7053 H   0  0  0  0  0  0  0  0  0  0  0  0
    6.0201   -2.7929  -17.3102 H   0  0  0  0  0  0  0  0  0  0  0  0
    6.7325   -4.2383  -16.5164 H   0  0  0  0  0  0  0  0  0  0  0  0
    6.3655   -2.2979  -14.9553 H   0  0  0  0  0  0  0  0  0  0  0  0
    8.0734   -2.8486  -15.0366 H   0  0  0  0  0  0  0  0  0  0  0  0
    3.6335    3.5870  -18.3667 H   0  0  0  0  0  0  0  0  0  0  0  0
    6.2731    3.4244  -19.9032 H   0  0  0  0  0  0  0  0  0  0  0  0
    5.1665    1.5429  -17.8664 H   0  0  0  0  0  0  0  0  0  0  0  0
    3.4569    5.2523  -16.8411 H   0  0  0  0  0  0  0  0  0  0  0  0
    3.4666    6.2794  -18.1105 H   0  0  0  0  0  0  0  0  0  0  0  0
    3.4383    4.1322  -20.6266 H   0  0  0  0  0  0  0  0  0  0  0  0
  1  2  2  0
  1  3  1  0
  2  4  1  0
  3  5  2  0
  4  9  2  0
  5  9  1  0
  6 10  2  0
  6 11  1  0
  7 10  1  0
  7 12  2  0
  8 11  2  0
  8 12  1  0
  9 24  1  0
 10 23  1  0
 11 38  1  0
 12 39  1  0
 13 16  1  0
 13 31  1  0
 13 34  2  0
 14 20  1  0
 14 30  1  0
 14 35  2  0
 15 21  1  0
 15 32  1  0
 15 36  2  0
 16 21  1  0
 17 19  1  0
 17 30  1  0
 18 21  1  0
 18 31  1  0
 19 33  1  0
 20 28  1  0
 20 33  1  0
 22 25  1  0
 23 29  1  0
 24 30  1  0
 25 26  1  0
 26 27  1  0
 27 31  1  0
 28 29  1  0
 28 37  1  0
 29 32  1  0
  1 40  1  0
  2 41  1  0
  3 42  1  0
  4 43  1  0
  5 44  1  0
  6 45  1  0
  7 46  1  0
  8 47  1  0
 16 48  1  0
 16 49  1  0
 17 50  1  0
 17 51  1  0
 18 52  1  0
 18 53  1  0
 19 54  1  0
 19 55  1  0
 20 56  1  1
 21 57  1  1
 22 58  1  0
 22 59  1  0
 22 60  1  0
 23 61  1  0
 23 62  1  0
 24 63  1  0
 24 64  1  0
 25 65  1  0
 25 66  1  0
 26 67  1  0
 26 68  1  0
 27 69  1  0
 27 70  1  0
 28 71  1  1
 29 72  1  6
 32 73  1  0
 33 74  1  0
 33 75  1  0
 37 76  1  0
M  CHG  1  33   1
M  END
>  <OMEGA_C>  (170) 
ZHGfQEPbJEE5eLDBnhWnQFQXL0G0m6bBcU2vQDMSEEEcTbLB35a+QEKRJEF6k57BevrGQPyMBUH0
SarBrabZQOqtgz9uharBPs2iQAHU6L57NqPBdIDlQH+isL8ZIarBZfvOQF7cD0EXa6DBLhuxQByx
Vz+0xaXBCOzzQLz1pr3ioKzBme68QLJUyL+pbKXBpVAIQVrAOL5hjXHBhoPDQCmUwUDpxZXBidTh
QCsfEUDitozBNPoIQQs2nT/XZ3vBo7OnQF8T/0B/IYvBgz7hQPKTA76PVYfB4MGQQMgI3kCMJoTB
YYujQKsCo0C9DZDB3vjmQBH9pT9yV4PBbagWQS3iasBo2IrBBZOVQNUuAkAVF6PBF5rmQKlsBEHI
g5fBFckAQVmeT8B4XI/B7ardQDI8TcBpw4bBamfoQHuCFsD3bnnBJfONQMNkgkAWhJfBqPusQHP/
PUDdOZvBMAXJQBxu60Cx+pHBGSP2QKwyeb8LlH7BBou6QFFkDECB5JHBIriAQCzdu0DUF4vBvYUR
QQBJB79lKmHBEWDbQFvOs0AVwZzBXF79QCvdRUAnE4/BnsV2QNtTmEA5ZKDBuYUNQUDUzT3xAbHB
eCuvQFG3M8Ai8aLBs2mNQHnzLEFOobbBc+WaQMgEP0HTNqXB8UypQDM2CEEe2bnBDRfEQElbLEG7
/JbBkAjTQP0x60CrrqvBH3rkQPB5AUCRiKzBRdCDQAqKGL/Sjp/BE435QM73DsD50avBNVcKQews
AECV+27BTUoWQeU7qj+oZoPBx/iPQMlzB0F5SZDBjuG2QKd9C0Fo54XBWA6/QBaowb6+9ofBo5jw
QGVWg77IL4/BjEKnQMGp0ECmiHzBPL1rQE5L7UDw4n/BbAe1QHFukUCfzonBhv7NQHaBwT/IxHrB
fpYiQTY9a8CnUJHB36MbQVV5PcBgmYTBEWEVQRW3lcAUZIfByESOQHqQJUC/earB3zRvQPDX1z+M
aJ/B+7MAQcuD9kDz6JrB+v3yQJg/EEGLx5HBl2ECQeNND8Cp2ZLBkj34QLhCfcBdpJXBzKTAQP2+
MsBXe4rB0HDXQMSfh8CiIYTBPrLLQJMQE8AJSW/BeCwBQeVPNsDylXDB6YpoQOGRZUDn7pLBQ73I
QBIqW0DIOZ/BH1SlQAp9xT9l7o7BPT5dQKoSqECCuobBfd1dQPDwyEBl4pDBhgxcQNM6hEBKA6XB
qN2mQJ36JUFVb6/BFTK1QMj/EEHgerHBQAmvQEKfL0Gbc6XBj8TLQDyrBUF2jKnBQXvFQKxLJEHp
gJ3BWFbUQA41gj/izarBbcOaQIh42r7wWqTBmxjdQOHAs7+eBqvBuDTUQERaD0Eui5/BnRCrQOyh
XD/lXabBv3ztQED/670YA63BPqSzQH1ox786wqbBxdcIQWC7ajwZMHHBcXjDQLFawEA9lJXBN7He
QHYmEECecY3BtWcHQUuasz9ml3vB8BiqQLX+/UA+n4rBDpfkQAzaBL7xfIfBRSeRQOVv3UDY74PB
BOyhQJ21okB2HZDBis3kQDLUqD9c34PBQ96hQDJUh8A+L43BaZ6QQIWYBEC8gqPBdTHqQBn5AkGV
spbBKl/NQPSuYcBL+YvBU2HTQMZlRcBmRIDB8s/9QJiRFMD8O33BPlGLQChzg0AxxZfB2xipQGh7
PkB0o5vB/97KQMlv6UCkd5HBSV/3QMZyXL817XzBqve2QCx/C0DYaJLBNvN/QMe1vEB3JIvBlA8U
QSRcir5sxGHBQPLaQJc6skD7mJzBIDr6QELHQ0AOKZDBsMRzQOrFmkBvkaDB27MKQXg2FD1PALHB
Ka6jQHivMsAD86TBypmVQOetLkGGhrXBrt2uQOecCUEBIbnBMBGkQEW2P0FP5qPBaKbWQAwi60A8
G6vBF3LLQBqmK0EO1JXBGI/gQNVRAEDAf6zBcGJ2QIGVC7+I+KDBQ0/wQAuaEcA7xqzBGu8GQYuq
DEDAbm/BpusUQcclyj/pQIPBfXyTQFK5B0HNw4/BgRG6QP9PCkEHMYXBTLzDQD8J8r5rDYnBXRD4
QNEyhL4Mv47BXpqmQDV3zkC5GHzBY3ptQHKQ7UAdfX/BaFSyQMD/j0Az5InBIEPKQPbVvD8qdXzB
yIedQD5zkcD5ipXBBtigQPCKo8DE7YfBZRqIQGApYsAD8orBP3WJQC73KEBj1KrBAQ9lQEgc3z8K
x5/BtSsCQWO18kCbGZrBTUj3QPw3DkGQxZDBZCXnQD0Vh8DoNY7Bw2fOQPo9KcAoOpHB4qK4QLVb
G8DfAXzBJVzTQE59fsCYPHbBCP8FQVNsKMDN6G3B4OUJQdnFJMBHL4XBK+VhQDbmaEC1TpPBB/PE
QHqLWkASuJ/BMu6hQNY2wz8pbI/BQ19ZQPxlqUB394bBpmdeQB0ly0DX65DBMs5XQPuRh0ChT6XB
8TuoQC8cJ0EK9K/BGl+vQOK1MEEb6aXB16S2QLEbEkH16bHBNPnEQAVYJUHS1J3Bh2bMQEq9BkHS
2anBLI3VQMBTjT802KrBkEebQIafq74kuqTBeabdQMbnqL+LTqvBcPXTQPJqEEFNzZ/B6AmsQBiz
cz9Qj6bBZHjuQEDuAL2DHa3BN++zQJwVvL9eMKfBt2IFQTPSCL9Zj3bBnB/DQMx7wkBSpZXBonLa
QHgMCkAtpYzBZ5kDQfKadj85UnvBuASpQAtBAEED8YrBMgviQKp+o77O2orB4D2QQO8e4EDCKoTB
GoWhQHHxpEDoKJDBJnjfQKwVgD+brYTBitSMQLc8dsAkNorBzcKRQEiGCkAbvKPBTJPpQIsbBEFg
35bBBQ28QOnnacAlOI3BAN7XQGHwV8AXRoPBX+UAQQ3QKcDrcobBjjGLQBychUCzz5fBjP2oQKK2
QUCwUpvBriHKQH/R60DRp5HBGYf+QJoqmb+iqYTBImWzQI2cDEDL+5HB2rZ+QLP7vkDMSovB+DML
QY72hL9qq2XBLLXaQPU0tEDcn5zBYfb3QDENO0A+xI7B5ot1QOa6nEA/xqDBnEMLQVwt7T0xBrHB
nmijQJv6LMB7pKXBNrSXQEfbL0FgJ7bBgUKkQPbLQEHjaaTBmACxQKG7CkFcmbnBQRfKQC2nLEGI
G5bBClLXQK887UDEV6vBGCbiQAPaBUA4YKzBsRN3QMqS5r6Rb6HBjrzwQNxODMDJE63BclsBQbEY
xj9IlGzBY8ERQRnBqj+M94HBEF2SQNW1CEEhL5DBMaa4QDnQC0H+k4XBrxLCQD12Rb9YjIvBV0bv
QHbAF77F5JLBb72lQJKP0UBXc3zByGBrQFVE8EC5CIDBY9CxQMZmkkDX4onBIgPDQG9QeT+UAX/B
8wx0QOBwgcAJe5HBDNCJQG9elsBEsYTBlM6AQH7tO8BxTYbBEnGMQJ7uMEAq/arBXYZlQE5V6z8z
e6DBC+kBQXTj9EAhMprBonz2QPFpD0F/85DB3r3HQNUsksDkKJHBZby+QEqKM8AQxZLBY9HFQEc/
L8D+X3vB+MXfQPB5isAgtX7BGB8OQbRVQ8AEmYHBeiYEQZq7NcDE947Bw4VgQEpgbkCzcJPBDlHG
QK6VXEBh2J7BCi6cQFpJzT88MY/BjjlYQMHBq0BGFIfB5y5dQJ4PzUCGIJHBFd5ZQLF4iUB7h6XB
Wv+qQC8ZJkH+8K7BdL+4QCkWEUFrJrHB40OyQN0hL0FBxqTBIQvOQD0nBUE4N6nB81jHQJ4wI0E8
0ZzBnp/RQMhpiT/T8avBinifQFeRBb/GE6TB/MPhQOi1p79RP6zB/LrVQB9CDkG3CZ/BbtuqQDLA
Tj9niabBEiftQGS2jjzstq7B5uy6QNYfyr9+76bBxT0LQbgVmT5dKXHBUqfCQHTfvUBZc5XBhM3e
QK8bFUC1w43BSw8JQSuk0j/wr3zBPMOqQGsO+0CJJIrBXiTiQIKqqD0L5oXBbpyRQChY2kCMioPB
D82gQEhXoEDaDZDBGf3lQKarxj9EcoPBrcLeQA7bk8Bhx4jB4ECOQN6M+T+DF6PBGuHqQBtZAUHk
P5bB8NcGQVKvhMAU7IfBgm0IQRBCJ8BEK4fBLXj7QDlVA8DMsnnBPrKJQIyVgUAB0JfBRB2nQM9q
OkCvvZvBoO/KQEB55kBSJ5HBXfb4QFC6Fr+aenrB4tm2QH/yCkA7dZLBrAl/QMl4ukDI3YrB0YIX
QSIImD2KTWLBH5jZQMTxr0DkmZzB8z76QPfNREB+dZHB0RRyQDxUmUDZnaDBClUJQY65jz7iq7PB
/l2wQAh4NsDAZ6TBFN+aQNdJL0EbDLXBhPSyQM8iCkE37bjB+6anQEY6P0F3FqPBuIPYQBQS6kBg
56rBxobMQJQPKkEE/5TBBh/aQIa/BUAm9K3BtbeBQNeAOr88AaDB9872QJrWB8Bgba7Bzd4JQe/e
HkB6SnHBbZIVQUgi4j/JdITBnDaUQOiZBkGYJo/BnEe7QJ6HCEFSp4TBK1fAQBmbZb7cBYbBRPjw
QPH1GL5VqY3B6xqnQPGKykCumXvBK1tvQNKL6kBCXX7BIjGxQJwGjUC08YnBvorNQLpt6z/BF3vB
6OPdQLv7tsCWTInBgO3MQPpYicA4qYHBBQrQQIsHhsB9/I/BbCmDQJS6H0CiNarBwgFlQCIWxj+n
vJ7BDloCQZMh70CUsJnBikr4QFxFDEEDOJDBDhUOQb/UksABuYDBUaMPQVCDj8BGDI/BWWwZQRj3
FMDaK4fB13MAQUQSC8CMLY7BP/faQDfAHcAFR3jBr0MHQX+NFsAZtGvB+QJeQD6qZUDmapPBJA/C
QI0hVkBYOKDBZzWjQKQgvz+WOI/BMCtYQPYnp0Dwu4bBbn5dQAumyUB0hpDBL6BVQFx4hkBcZqXB
SvegQJgxJ0F7pbDBWvevQOtKEkFxm7LBINWoQN0PMUHps6bBAATHQC9JB0E9pKrB9Me/QO4RJkHv
uZ7BgjLYQKRejz9kF6vBEF2fQHIkp76jQqTBKFbhQBxopr+yKavBXlLPQG4+EUEPs6DBIkivQCC/
dT8dhabBolnxQEDVHrzdVK3Bmky4QJhtur+DoqbBuSQIQWchCL/OdHTBeqzCQByiw0DCEJbBUqjd
QCyGBUCxVozBPMEEQc78dD88xnnBcgGnQHvZAEF6nYvBUD3tQJgyvL6ProrBEAaQQLwk4UD7f4TB
oj6jQD8qpUBjGZDBbtLjQFIbaD/9ioTBhJm0QP7dXcAyv4XBeEKVQLiyCkDInqPB3HPmQCZWBUF2
35fBEMTWQEKahcBlj4zBQj79QF7fUcCXuY/BFfUJQYVlJcCCF4bBFHyNQFUShEAXWpfBPBysQJfh
P0D87JrBJlzIQPug7UBHYJLBJAUAQcj6pb/JzoLBcq62QHEnCEABw5HBRkOAQIA6vkAPP4vBeLIQ
QYO0c79zJWTBfpzZQCTNtUDYO53Bxvv5QLJtOkCj8I3BAQ52QHTqmUDLSqDBW34MQegKFz7XeLHB
GgKpQGUnLMAdbaTBdWyPQACoL0FrxbbBSsmpQJu3CkGqN7rBZz+dQEUQQUEDNKXBj1nSQAl47kCu
IKzBO4LFQM+WLUF+FJfBSyvkQKbzBkC43azBshOAQJdE475VtqDB7YT0QBHZCsC1+KzBo9oAQTit
xD8zVWvBOvoSQQOwsT+XwYDBtEqPQKeWCEGR15DBeSm2QBL6DEE/fIbB4ZLPQKduSb/DBo7B2AUC
QWepLb77MZHBn3KmQHxr1EB4BH3BEfFpQMup8ECLa4DBDQy1QDM6lEBZzInBSDDGQAGORT/81X/B
oqSaQAOChcCO4YPBKCrDQJD9RsDLhnzBeJCnQCUnJ8BUOYrBRLmQQIeIMkBsyarBC81rQF/I6z+8
laDBVGcAQbrn90DTVpvBaW3zQIflEEGLFZLB2wnjQNAJocDH+ofBK3DHQJsekcC18JPBR3UKQav5
ecDv4ZPBdZ7xQO/YH8BCMZXB3IQJQUpNUcDIbn7BF7AaQXLrGMCrVYjBsUxnQNgzakARsZLB6GXJ
QIowXEDWSZ7BfLmfQGgawT+JM4/Bl7hcQKquqkCYw4bBVKZcQPqlykA7GZHB+9ZaQLPIhUDs26TB
So+oQGCoJkE5Uq/BPj+3QKXDEUE3cLHBAz+vQODnL0FmLaXBlM7MQLwlBkGdbanBZpfEQAhHJEFh
JZ3BqNTUQHKQdj+k0arBawigQPBZ/L6RU6LBRPPhQObkt7/rkKnBpdLTQM1zD0ElRJ/BLxutQDkr
Sz87maXBLSzvQMRMG74zzqzBCni6QHiEzb/YSaTBNJQMQawpA75up3jBtFfCQKQUwECEe5XBbDXd
QDfPFEDSFY3BxpUIQd5nqj+tRX7BFAGpQMgr/UDWUorB6cPjQMRbq70Il4nBW0mQQLoo3EAdtYPB
ZbWgQBA4okCWIJDBnHflQNKhpT8EaITBksbqQCJSMMACo1nBRDCRQDg//z+MJqPB0C3pQB/ZAkGC
ZJbByKjJQE9NH8D1bGvBPSHYQK0CQsA3xIDBJTwBQe3OGMAJq4TBAWOKQL4Xg0CL7ZfBCGmoQM95
PUCKgZvBFKbJQI4H6UBwSJHB3LEAQSjWar8FjoPBqJq1QOSdDkCg+pHB98N9QEjeu0D6BIvB4aoZ
QfgG974vPGvBk+jZQKAxskAsg5zBAR75QJAeRkBaNZDB57R0QH4ymkAv5aDBZ5sKQUD8RDx8yrHB
jEWuQM5PNcDc7qDBcyqYQMKWL0F0erXBdvixQPqoCkEBNLnBD/2jQPrrP0GSkKPBYP3XQAU+7EBA
DKvBh1LJQHRPK0HWV5XBA//eQG9e+T9lSa3ByreBQP7KH78YUJ7BoxX2QHW3EsAAIavBxV0IQa+2
+j9A0W/BrtEUQSyA2j/hs4TBaDuSQB9sB0G/X4/BdA65QPDFCUGi14TBLSrDQBoo/b7+H4nBvLrt
QPYRvbwfBJLBQfClQLTTzEAj2XvBdQFsQFT/60D+yn7BFyqxQJQsj0Cy+YnBmHDMQJL+rj/0fXzB
DdveQCZwFsCjZErB7ervQFisdcD8CljBT5gEQVEBEcARyV3BxrWJQHZFIUCfpqrBcaRmQIt/0z+H
YZ/BlbcBQZR/8kDgwZnBVQz2QHf6DUH8YZDBQF6rQCR9PsAWAGfB8aPEQDuks78rvmzBo8XcQK/O
g8CMI4DBXei+QGtoNMApqobBUZEOQZI7MsD2w3/BZbIDQcYxKcAuI43BasxeQOvWaECHoZPB3GbE
QErwWEA9l5/BTkigQG1nzT+AtY7BiFtXQElOqEB25IbBb/pbQJWpykAJuJDBHUZZQKn5hkB5rqXB
bOGgQHAPJUHEZbDB/nKwQPA8EEFGR7LB7qeoQCMsL0HwgqbB5PLHQFeNBUG1SarBkQvAQFB/JEEI
gp7BCoDYQMgzhT+D1KrBwTiiQNTn6b5/cKPBKMjkQC7crr9mk6rBdxfQQPG8D0GxZKDBJTKwQPU5
WD/a+qXBcNvyQIg+gr0CEK3B9ny8QKzTx78IwKXBWvEHQfynR77qlnHBoIzDQDQpwUAPypXBObbh
QIChD0CX4ozBBQkJQY6zmT/G2nvBIeqnQIrt/kAFPovB86LgQJxYF77fYIfBDPeQQDAo3kCsL4TB
ao+jQNy1okAfBZDBSfXmQODBoz9lfIPB0xAXQQRsZsCgeIrB0LCUQEr4AUCfIKPBXU/nQDEVBEH3
fpfBkAMBQTXEUMAaQo/B5pbdQDWdTsAey4bBt3PnQLhfF8B2c3nBRrKNQHsqgkBPdpfBsnGsQEVD
PUAiQpvBVkzJQLkA60ADA5LBgV/1QMVffb9mmH7BZUW6QI0NC0BZ/5HBCNiAQBu1u0BwCYvBN9QQ
QSHwB7839mDBNzbbQFBIs0CVzJzBHAz9QFfYREAbOY/BKUZ2QM5TmECXTaDBrOcMQVLkAz66gbHB
wz+vQDqqM8CsMKPBb/iOQP1GLUEQirbBOVyqQAZ6CEGm2LnBA6mcQDEfP0GHE6XB08LTQPwh60Cg
t6vB+LjFQOo1LEFo6JbBoxPjQC5xAkD20qzBL2ODQDsZG79FuZ/BaeL4QAvLDcBwXqzBWb0KQcR7
/j/Orm/BfUoWQaPWoj8esIPBPDaQQJk/B0GVdJDB5gS3QMWKC0H0EobB3Fm+QLfQxb7C84fBfczv
QDBYlL4TPY/BSHunQID90EDgjXzBYjhsQBaa7UASAoDBrBO1QGMWkUBuyYnBEEPOQDHIwD9+93rB
BSgjQYTdZsCm3ZDB8V0bQSoCNsCJdITBw2wWQZnuksCMq4bB2f6MQMrjJUB7cqrBotdtQHmV1j88
Yp/BXfcAQXaQ9UDA45rB4OnzQDTID0HUuZHBrfsBQfuDEcBxF5PBABX6QIGvgMB0TpXBA7PAQLi0
NMCIo4rBy3TXQFFRiMCkJoTB2FDKQFm0E8A0nm/BPoIAQVTsNsARR3DBdgdoQKNQZUD+25LBJCPI
QNVUWkDbS5/BYCylQNhFwj8SC4/B19FdQM8FqEDEmYbBzbtdQK2QyEB20pDBfSpbQBhfhECF7aTB

>  <OMEGA_E>  (170) 
1N0BP8xLCj+sFhU/ODwWP8otJj8QvCY/MDX+Pg==

>  <OMEGA_NBR>  (170) 
     13426

$$$$
50162063
     RDKit          3D

 89 92  0  0  1  0  0  0  0  0999 V2000
    5.4662   10.2432  -21.8898 C   0  0  0  0  0  0  0  0  0  0  0  0
    5.9401    8.9419  -22.1498 C   0  0  0  0  0  0  0  0  0  0  0  0
    5.6645   10.8255  -20.6219 C   0  0  0  0  0  0  0  0  0  0  0  0
    6.6179    8.2251  -21.1441 C   0  0  0  0  0  0  0  0  0  0  0  0
    6.3299   10.1047  -19.6111 C   0  0  0  0  0  0  0  0  0  0  0  0
    6.9189    0.0213  -16.8098 C   0  0  0  0  0  0  0  0  0  0  0  0
    8.4683    1.6370  -15.8341 C   0  0  0  0  0  0  0  0  0  0  0  0
    8.2554   -0.5890  -14.8631 C   0  0  0  0  0  0  0  0  0  0  0  0
    6.7093    1.0685  -21.3976 C   0  0  0  0  0  0  0  0  0  0  0  0
    4.8686   -0.3645  -20.6691 C   0  0  0  0  0  0  0  0  0  0  0  0
    6.9353   -1.3576  -21.4976 C   0  0  0  0  0  0  0  0  0  0  0  0
    7.5023    1.3090  -16.8122 C   0  0  0  0  0  0  0  0  0  0  0  0
    7.3138   -0.9355  -15.8528 C   0  0  0  0  0  0  0  0  0  0  0  0
    6.8100    8.8010  -19.8667 C   0  0  0  0  0  0  0  0  0  0  0  0
    8.8217    0.6999  -14.8427 C   0  0  0  0  0  0  0  0  0  0  0  0
    5.4052    0.9213  -20.8767 C   0  0  0  0  0  0  0  0  0  0  0  0
    7.4768   -0.0717  -21.6976 C   0  0  0  0  0  0  0  0  0  0  0  0
    5.6292   -1.5016  -20.9874 C   0  0  0  0  0  0  0  0  0  0  0  0
    7.0828    2.3061  -17.8147 C   0  0  0  0  0  0  0  0  0  0  0  0
    6.6832   -2.2668  -15.8187 C   0  0  0  0  0  0  0  0  0  0  0  0
    5.4042    7.8966  -17.3250 C   0  0  0  0  0  0  0  0  0  0  0  0
    5.9871    5.9985  -18.8398 C   0  0  0  0  0  0  0  0  0  0  0  0
    4.5100    6.9524  -16.5146 C   0  0  0  0  0  0  0  0  0  0  0  0
    5.0337    5.0925  -18.0235 C   0  0  2  0  0  0  0  0  0  0  0  0
    9.8559    1.0543  -13.7972 C   0  0  0  0  0  0  0  0  0  0  0  0
    3.8993   -3.3872  -17.6163 C   0  0  0  0  0  0  0  0  0  0  0  0
    9.7203   -3.7902  -17.0886 C   0  0  0  0  0  0  0  0  0  0  0  0
    4.5840    2.1350  -20.5163 C   0  0  0  0  0  0  0  0  0  0  0  0
    7.4664    8.0015  -18.7469 C   0  0  0  0  0  0  0  0  0  0  0  0
    4.8827   -4.5558  -17.8151 C   0  0  0  0  0  0  0  0  0  0  0  0
    8.7623   -3.8689  -18.2884 C   0  0  0  0  0  0  0  0  0  0  0  0
    6.0550   -4.4924  -16.8170 C   0  0  0  0  0  0  0  0  0  0  0  0
    7.5727   -2.9069  -18.1171 C   0  0  0  0  0  0  0  0  0  0  0  0
    4.3288    4.0568  -18.9137 C   0  0  2  0  0  0  0  0  0  0  0  0
    5.3158    3.0250  -19.4888 C   0  0  1  0  0  0  0  0  0  0  0  0
    6.4864    7.1356  -18.0229 N   0  0  0  0  0  0  0  0  0  0  0  0
    5.8282    2.1767  -18.3996 N   0  0  0  0  0  0  0  0  0  0  0  0
    6.7767   -3.1901  -16.8875 N   0  0  0  0  0  0  0  0  0  0  0  0
    3.9756    5.9083  -17.3982 N   0  0  0  0  0  0  0  0  0  0  0  0
    7.8204    3.2435  -18.1002 O   0  0  0  0  0  0  0  0  0  0  0  0
    6.0706   -2.5576  -14.7968 O   0  0  0  0  0  0  0  0  0  0  0  0
    3.6443    4.7296  -19.9749 O   0  0  0  0  0  0  0  0  0  0  0  0
    8.7328    0.0682  -22.1777 F   0  0  0  0  0  0  0  0  0  0  0  0
    5.1034   -2.7319  -20.8011 F   0  0  0  0  0  0  0  0  0  0  0  0
    4.9510   10.7946  -22.6624 H   0  0  0  0  0  0  0  0  0  0  0  0
    5.7836    8.4940  -23.1201 H   0  0  0  0  0  0  0  0  0  0  0  0
    5.3059   11.8250  -20.4250 H   0  0  0  0  0  0  0  0  0  0  0  0
    6.9920    7.2329  -21.3492 H   0  0  0  0  0  0  0  0  0  0  0  0
    6.4736   10.5502  -18.6378 H   0  0  0  0  0  0  0  0  0  0  0  0
    6.1679   -0.2304  -17.5440 H   0  0  0  0  0  0  0  0  0  0  0  0
    8.9376    2.6096  -15.8465 H   0  0  0  0  0  0  0  0  0  0  0  0
    8.5438   -1.3150  -14.1173 H   0  0  0  0  0  0  0  0  0  0  0  0
    7.1168    2.0545  -21.5654 H   0  0  0  0  0  0  0  0  0  0  0  0
    3.8730   -0.4759  -20.2655 H   0  0  0  0  0  0  0  0  0  0  0  0
    7.5214   -2.2330  -21.7354 H   0  0  0  0  0  0  0  0  0  0  0  0
    4.7911    8.4198  -18.0736 H   0  0  0  0  0  0  0  0  0  0  0  0
    5.8607    8.6319  -16.6461 H   0  0  0  0  0  0  0  0  0  0  0  0
    6.8443    5.3999  -19.1818 H   0  0  0  0  0  0  0  0  0  0  0  0
    5.4455    6.3946  -19.7114 H   0  0  0  0  0  0  0  0  0  0  0  0
    5.1003    6.4868  -15.7117 H   0  0  0  0  0  0  0  0  0  0  0  0
    3.6781    7.5221  -16.0749 H   0  0  0  0  0  0  0  0  0  0  0  0
    5.6126    4.5687  -17.2486 H   0  0  0  0  0  0  0  0  0  0  0  0
    9.3559    1.4852  -12.9173 H   0  0  0  0  0  0  0  0  0  0  0  0
   10.4028    0.1472  -13.5004 H   0  0  0  0  0  0  0  0  0  0  0  0
   10.5616    1.7881  -14.2138 H   0  0  0  0  0  0  0  0  0  0  0  0
    3.0799   -3.4688  -18.3457 H   0  0  0  0  0  0  0  0  0  0  0  0
    3.4877   -3.4239  -16.5969 H   0  0  0  0  0  0  0  0  0  0  0  0
    4.4280   -2.4340  -17.7642 H   0  0  0  0  0  0  0  0  0  0  0  0
   10.5574   -4.4874  -17.2408 H   0  0  0  0  0  0  0  0  0  0  0  0
   10.1090   -2.7653  -16.9966 H   0  0  0  0  0  0  0  0  0  0  0  0
    9.1800   -4.0613  -16.1697 H   0  0  0  0  0  0  0  0  0  0  0  0
    4.3939    2.7218  -21.4271 H   0  0  0  0  0  0  0  0  0  0  0  0
    3.6268    1.8048  -20.0865 H   0  0  0  0  0  0  0  0  0  0  0  0
    8.2509    7.3634  -19.1798 H   0  0  0  0  0  0  0  0  0  0  0  0
    7.9182    8.7021  -18.0292 H   0  0  0  0  0  0  0  0  0  0  0  0
    4.3433   -5.5036  -17.6712 H   0  0  0  0  0  0  0  0  0  0  0  0
    5.2837   -4.5137  -18.8385 H   0  0  0  0  0  0  0  0  0  0  0  0
    9.3109   -3.6013  -19.2035 H   0  0  0  0  0  0  0  0  0  0  0  0
    8.3818   -4.8973  -18.3765 H   0  0  0  0  0  0  0  0  0  0  0  0
    5.6622   -4.6264  -15.7983 H   0  0  0  0  0  0  0  0  0  0  0  0
    6.7618   -5.3033  -17.0470 H   0  0  0  0  0  0  0  0  0  0  0  0
    7.9576   -1.8781  -18.0582 H   0  0  0  0  0  0  0  0  0  0  0  0
    6.9139   -3.0023  -18.9928 H   0  0  0  0  0  0  0  0  0  0  0  0
    3.5982    3.5173  -18.2931 H   0  0  0  0  0  0  0  0  0  0  0  0
    6.1447    3.5499  -19.9863 H   0  0  0  0  0  0  0  0  0  0  0  0
    5.2292    1.4539  -18.0550 H   0  0  0  0  0  0  0  0  0  0  0  0
    3.3839    5.3072  -16.8611 H   0  0  0  0  0  0  0  0  0  0  0  0
    3.4396    6.3448  -18.1209 H   0  0  0  0  0  0  0  0  0  0  0  0
    3.2080    4.0906  -20.5262 H   0  0  0  0  0  0  0  0  0  0  0  0
  1  2  2  0
  1  3  1  0
  2  4  1  0
  3  5  2  0
  4 14  2  0
  5 14  1  0
  6 12  2  0
  6 13  1  0
  7 12  1  0
  7 15  2  0
  8 13  2  0
  8 15  1  0
  9 16  2  0
  9 17  1  0
 10 16  1  0
 10 18  2  0
 11 17  2  0
 11 18  1  0
 12 19  1  0
 13 20  1  0
 14 29  1  0
 15 25  1  0
 16 28  1  0
 17 43  1  0
 18 44  1  0
 19 37  1  0
 19 40  2  0
 20 38  1  0
 20 41  2  0
 21 23  1  0
 21 36  1  0
 22 24  1  0
 22 36  1  0
 23 39  1  0
 24 34  1  0
 24 39  1  0
 26 30  1  0
 27 31  1  0
 28 35  1  0
 29 36  1  0
 30 32  1  0
 31 33  1  0
 32 38  1  0
 33 38  1  0
 34 35  1  0
 34 42  1  0
 35 37  1  0
  1 45  1  0
  2 46  1  0
  3 47  1  0
  4 48  1  0
  5 49  1  0
  6 50  1  0
  7 51  1  0
  8 52  1  0
  9 53  1  0
 10 54  1  0
 11 55  1  0
 21 56  1  0
 21 57  1  0
 22 58  1  0
 22 59  1  0
 23 60  1  0
 23 61  1  0
 24 62  1  1
 25 63  1  0
 25 64  1  0
 25 65  1  0
 26 66  1  0
 26 67  1  0
 26 68  1  0
 27 69  1  0
 27 70  1  0
 27 71  1  0
 28 72  1  0
 28 73  1  0
 29 74  1  0
 29 75  1  0
 30 76  1  0
 30 77  1  0
 31 78  1  0
 31 79  1  0
 32 80  1  0
 32 81  1  0
 33 82  1  0
 33 83  1  0
 34 84  1  1
 35 85  1  6
 37 86  1  0
 39 87  1  0
 39 88  1  0
 42 89  1  0
M  CHG  1  39   1
M  END
>  <OMEGA_C>  (171) 
SOuuQFTkI0FTHq/BFxW+QOoRD0HZMrHBOEO1QBE1LUGV+aTBG8bTQOGZA0EtJ6nB0Y7KQOusIUGi
45zB0GfdQPBwrjySeobBSH4HQZ2I0T9XWH3BLxYEQRvIFr8Xz23BXrLWQLvEiD9ILqvBTcubQCCj
ur5VWqXBy+3dQN7Erb8p+6vB/xLwQD6Opz9ef4bBxQrqQAR7b7/spH3BkevZQObQDEEG757BfyUN
QWotMz+Xe23BPvesQG7aaz94A6fBukHvQBTlkr2+lK3BYiK0QPszwL9I5qfB+KXiQPOXE0CMhI7B
ytzVQAwUEcB4GX3BCu+sQMWw/ECVmYrBNZa/QFrzv0D1t5bBh1GQQAl63kD4HYTBRhShQLj1okAa
MJDB8rEdQcHzhj93wVzBUI55QN7HWMBH7ozBg4YbQUeScsCEtYjBS7CSQMKjCEB8IaTBF+3uQFEG
AEGi+ZXBWT+cQMbIkcA/hY7BQTIMQcycd8CuTpLBpsLBQBfCj8BGiYbB4VPyQJIKOsDq75DBuoWK
QGHRgUAwT5fBVhuqQHqZQUAg6ZvBsJDPQCJX5EDQLpDBVIC6QPNOC0BYMpPBpNrYQFkqTMCUGYfB
dnB+QCcRvUCVL4vBwUD6QDaWT0AczZDBcELCQIevI8DRv2zB2jxpQLdYl0CozJ/BfLkLQbi/iz3s
a7HB706jQAPXLsCmaKbBjm6eQKO2LEGtTLXBPxO5QHPnB0Hd9bjBmMmpQCEzPUFoZqPBg77fQNNz
50Ajy6rBvCfPQHnNKEFKGpXBgV/FQMvya74rWozBZAAPQRsEJ0Asi33BU7MIQY9SqL+K4GHBlLzj
QP58A0DlhazB4N93QFOu8762H6LBMa/wQAvpDsAq4q3BqVCZQIS3BkGqlpDB7Iq7QE4cCkFAK4XB
JQTbQJjLrEBIdJnBJ0GuQFqgzEAKsZ3BCDajQCyUz0AnY3vBXmVrQGK18EBumYDBOZqzQG4ykkAJ
/YnBzrEVQWccvj9MrU7BBnImQajBFj7AAVjBdPwoQUzh5D+xa2PB7hxFQCMBXsDmw5LBUjZfQIkg
W8B/xoTBarKNQKnGG8AlHY7BSesoQbCYj8Aq7YnBqL4hQSH6MMAc+YfBKOESQcr1gcBzW4HBHJuM
QMYyLkC1aqvBNB5oQEwE5z8XsaDBrgMEQU+h60BVcJnBSmL9QLg7C0HAO5DBjfyKQEYdsMCpXo3B
zhOpQFZwkMBOtZbBifkUQfF7ZsC/oJnBCRwGQbK2nMAWA5PBWDC1QKkLlMAIxnzBrGDYQOe0qcBW
YIjB7qT+QCVm8L86d5DBeT7dQIAlQMBK8ZfBbEhmQHEbYUBQWJLBD6HEQAUyY0D745/BflWnQP4X
uj+ocJDBE5JYQDfUqUCf44bBLiJcQHsIy0CH95DBc1BNQDvmgkCRNaTB3latQGioJEFM9K7BHeKz
QMfULUEeyaTBEW68QBPcD0FcH7HBLErJQFAsIkHLwpzBnCnSQGxBBEFgIqnB+OvcQGz+ajydfobB
SlkHQcK80D9Wi33Bt7kDQWzyFb9EtG3B2efWQDZnhz8/ZavBulucQPcAvr54SqXB0FneQLs9r7+z
96vBiN3vQOw2pj/wl4bBc1bpQI75b78RiX3BjJfYQARWDUG15Z7B/EMNQZHEMD+K123BhVitQLkB
aj86HafB5nnvQFuZrL1ov63BNLi0QN5Kwb85x6fB0QLjQBtcEkBcuo7BVXXVQHadEcDWDn3Ba+is
QABn/EBkiorBpBzAQEz4v0DovZbBBTaRQCSk3UCg/YPBGNOhQIqhokBfOZDB6v4cQcuXiT+jgFzB
Rnt6QPM3V8BizYzB8YMbQa8ucsC+ZYjBUhuTQFtrCEA1QqTBOVPuQASCAEFIDpbBQgScQLSNkcDJ
dY7B5Y4MQYDMdsDOJJLBhwHCQCYRkMAinIbBbavyQFATOsBq3pDB9giLQIitgUBlX5fBxICqQN1t
QUCrCZzBCa7PQEit5EAFOZDB6bW6QF4hC0A0UpPBbP7YQLWkTMDPFIfB3wmAQDpavEBrE4vBbEj7
QMPMTED3M5HBcgjCQNgJJcCItmzB8sJpQDdSl0DVzJ/BPcALQXLxVz1vtLHB9hCkQHhSL8DaIKbB
SsGcQBKSLUERFrXBrXqoQDjPPUHcJKPBiFW3QOHQCEGZ6LjBUQTOQEQvKUH785TBFfTdQFa+6EBU
1arBBdzEQNNIdL5rW4zBIqIOQcQLJ0BFn33BD/YHQSIepr/8a2HB9tDjQOe7AkDU3KzBqT95QA0A
9r6W+6HBTCLxQIO6D8Bw0K3BkrSYQGhmBkGgd5DBmFa7QDsXCkHGJYXB+8fbQEYYrUC1cpnBr7au
QOpizEDRu53BCcakQH65zkCyZHvB8UZtQF9k70AATYDBjJi0QFylkUASHIrBK0wUQRljwT9U4k7B
wLwlQXynOD79KlfBmWUoQREV6D8z2WLBxlVFQHHCW8Cki5LBWvxgQIHhWMAvmoTBbpeOQJbQGsCz
Eo7BIg0pQdoaj8DfjonBKY8hQcBzMMCngIfBFaMSQVVIgsCqJ4HBiiCNQC/lLUB/jqvBm9loQH3u
5j/l1KDBfcIDQQgO7UCDpJnBlsX8QGu1C0H6TpDBzFCKQLGSr8C3OI3BDWqoQDyKkMA8sZbBq5IV
QXykZMBdWpnBl6YGQbRgnMBhAZPBdPC1QC/zlMAT3nzBw4nYQDTZqcCopojBh5j+QN7m779sY5DB
AdrdQIvDQMBW6pfBPY1nQOuoYEALZJLBjRDFQCYCY0DiAKDBJEOnQGI/uz/7fZDBqdlaQEXaqEDp
w4bBihJdQNliykDcx5DBXaVNQOzugkBCNaTBhJ6rQCMqJUFs8q7BuN+6QJZtEEECMrHBxCOyQNgz
LkGUv6TB3MTQQOi/BEEMQqnBgcrHQKV+IkHwyJzBSUHgQIjMB7zawIXBtP4JQVTW0D92jH7B8t0G
QZKrB7+Rz2zBndfXQO7gij+BjqvBxQqeQKC1vL4jX6XBTFbgQPNTq7/3HqzB1XPzQK7Poj+MlobB
zW3tQGNaZ7+gQHvBtU/XQDS7DUE/AZ/BKZ0QQXCPOz8tgm7BK3quQIJubD9eNKfBAtrwQMTSP73s
7a3BEuC2QAewv79K4qfBkvzkQAr6D0CdvY7BJO7VQAT0CcDEn3fBwQ6sQA7b/EBQtIrBKEHAQEoE
wEBXs5bB+fSQQK0G3kDcBoTBbnaiQPuBokD9EJDBT8YgQWyclT957l3B4Zx/QPNXjcB4FZLBhJga
QQafZMB+65bBHSCUQBFCCEAzKaTBI3ntQGfoAEHvOpbBUBqbQOp2XMBGnYvBtAAFQVXwScACPJLB
KGy7QKD4hsBcmoTBOHkEQRiAY8D0ZIbBdPaLQD7qgEAJGJfBkpCrQLwSQEAaz5vBozLPQBRc5UAV
UJDBSFG8QHJ2CECsL5PB1KzeQLsyVMDhpoHBOk6AQJ4EvEAG+orBB2j8QNaeS0A6SZHB/oe3QDY+
CMCkPmvBlIdqQBo8lkBhf5/Bc2YMQUOJ2T3p47HBduimQMwJL8AEOKbBr+2aQJghLkGECrXB7se1
QGN8CUEbAbnBvYemQEkdPkF2CaPBbpbcQLvJ6UCNAqvBJ4vMQF1pKUH69JTBT43HQO/tmb4bU4vB
TWoRQQ6tJkAPr3/BZM4LQeJdm7+sYWDBrkPkQGrOBEDID63Bc8t8QJl++742CqLBfXrzQOs/DcAB
/K3B/YiXQBFFBkHQrpDBxR26QG6aCkEIaYXBqj3cQHB4rUAqWJnBoaGuQGe7y0CRu53BB9OkQLzU
z0BoYHvBRjhsQPyI70CjY4DBRom1QIgWkkD66YnBeW8YQXzZ0j9wdFDBIqcpQdIalT7zHljBewEs
QYRW8T9GJ2XBYvJRQDKSdsD2B5fBP5mUQJCyoMDpR5fBF1RcQEJ/osDUmozBdkAbQRG8UsDAbJ/B
rIknQU0GRMCtkJLBVYkcQfMnlcB3I5bBEAeOQLnTLkD7XKvBcwJrQOIn5T9HxaDBVUcDQa7v7UCR
5JnBUh78QNsdDEGyhJDByqKsQFIuMsA6HpHBljOGQLbHNcAlcYbBgAMDQZ4+BMDg+pLBUAbwQDiI
asCqjZbBal6rQPGFksCXpXrBtCbIQH9iosAOHYnBQFoIQbb4k8DCsoXBR3YQQTSlPcCcBYLBWhpq
QKzxXkBcCJLBpwzGQAcxYkAZvJ/BUyapQNvitD8FXpDBdyVcQAl4qEBClIbBfgFdQOxpyUAauJDB
F5tOQPWjgUBG3aPB

>  <OMEGA_E>  (171) 
QAniPMDxvDzYdZ4+

>  <OMEGA_NBR>  (171) 
     17833

$$$$
50147908
     RDKit          3D

 74 78  0  0  1  0  0  0  0  0999 V2000
    5.1343   10.4854  -21.8949 C   0  0  0  0  0  0  0  0  0  0  0  0
    5.5102   11.0936  -20.6806 C   0  0  0  0  0  0  0  0  0  0  0  0
    5.4588    9.1362  -22.1383 C   0  0  0  0  0  0  0  0  0  0  0  0
    6.2084   10.3535  -19.7081 C   0  0  0  0  0  0  0  0  0  0  0  0
    6.1659    8.3970  -21.1708 C   0  0  0  0  0  0  0  0  0  0  0  0
    6.6152    1.0000  -21.4450 C   0  0  0  0  0  0  0  0  0  0  0  0
    5.0017   -0.4639  -20.3380 C   0  0  0  0  0  0  0  0  0  0  0  0
    7.0364   -1.3976  -21.3063 C   0  0  0  0  0  0  0  0  0  0  0  0
    6.5497    9.0071  -19.9535 C   0  0  0  0  0  0  0  0  0  0  0  0
    5.3951    0.8231  -20.7581 C   0  0  0  0  0  0  0  0  0  0  0  0
    7.4347   -0.1098  -21.7179 C   0  0  0  0  0  0  0  0  0  0  0  0
    5.8230   -1.5729  -20.6105 C   0  0  0  0  0  0  0  0  0  0  0  0
    8.5769   -0.0947  -15.1955 C   0  0  0  0  0  0  0  0  0  0  0  0
    6.0933    6.0135  -18.7124 C   0  0  0  0  0  0  0  0  0  0  0  0
    7.0137    2.2589  -17.7107 C   0  0  0  0  0  0  0  0  0  0  0  0
    8.5865    1.2873  -15.8678 C   0  0  0  0  0  0  0  0  0  0  0  0
    8.5548   -2.7765  -18.0163 C   0  0  0  0  0  0  0  0  0  0  0  0
    8.8807   -3.9395  -17.0888 C   0  0  0  0  0  0  0  0  0  0  0  0
    5.2835    7.9303  -17.3348 C   0  0  0  0  0  0  0  0  0  0  0  0
    6.9366   -0.0887  -16.8811 C   0  0  0  0  0  0  0  0  0  0  0  0
    4.5443    6.8958  -16.4822 C   0  0  0  0  0  0  0  0  0  0  0  0
    5.0674    5.0706  -18.0200 C   0  0  2  0  0  0  0  0  0  0  0  0
    7.2003    1.3580  -16.4899 C   0  0  2  0  0  0  0  0  0  0  0  0
    7.5477   -3.1822  -16.9181 C   0  0  0  0  0  0  0  0  0  0  0  0
    4.5423    2.0201  -20.4121 C   0  0  0  0  0  0  0  0  0  0  0  0
    7.2593    8.2128  -18.8760 C   0  0  0  0  0  0  0  0  0  0  0  0
    7.3725   -2.3202  -15.6362 C   0  0  0  0  0  0  0  0  0  0  0  0
    4.3665    4.0886  -18.9797 C   0  0  2  0  0  0  0  0  0  0  0  0
    5.3057    2.9620  -19.4609 C   0  0  1  0  0  0  0  0  0  0  0  0
    6.3011    7.3070  -18.2118 N   0  0  0  0  0  0  0  0  0  0  0  0
    7.6191   -0.8817  -15.8589 N   0  0  0  0  0  0  0  0  0  0  0  0
    5.7564    2.1980  -18.2972 N   0  0  0  0  0  0  0  0  0  0  0  0
    4.0059    5.8641  -17.3738 N   0  0  0  0  0  0  0  0  0  0  0  0
    9.2813   -0.4281  -14.2503 O   0  0  0  0  0  0  0  0  0  0  0  0
    6.8288    5.5788  -19.5916 O   0  0  0  0  0  0  0  0  0  0  0  0
    7.8864    3.0327  -18.0928 O   0  0  0  0  0  0  0  0  0  0  0  0
    3.8225    4.8100  -20.0836 O   0  0  0  0  0  0  0  0  0  0  0  0
    8.6057    0.0627  -22.3712 F   0  0  0  0  0  0  0  0  0  0  0  0
    5.4579   -2.8017  -20.1812 F   0  0  0  0  0  0  0  0  0  0  0  0
    4.5971   11.0540  -22.6395 H   0  0  0  0  0  0  0  0  0  0  0  0
    5.2623   12.1284  -20.4961 H   0  0  0  0  0  0  0  0  0  0  0  0
    5.1653    8.6691  -23.0668 H   0  0  0  0  0  0  0  0  0  0  0  0
    6.4833   10.8174  -18.7724 H   0  0  0  0  0  0  0  0  0  0  0  0
    6.4156    7.3631  -21.3582 H   0  0  0  0  0  0  0  0  0  0  0  0
    6.9194    1.9870  -21.7608 H   0  0  0  0  0  0  0  0  0  0  0  0
    4.0707   -0.5982  -19.8074 H   0  0  0  0  0  0  0  0  0  0  0  0
    7.6614   -2.2510  -21.5243 H   0  0  0  0  0  0  0  0  0  0  0  0
    8.7322    2.0885  -15.1283 H   0  0  0  0  0  0  0  0  0  0  0  0
    9.3711    1.3505  -16.6362 H   0  0  0  0  0  0  0  0  0  0  0  0
    9.1115   -1.8318  -17.9287 H   0  0  0  0  0  0  0  0  0  0  0  0
    8.3200   -2.9670  -19.0740 H   0  0  0  0  0  0  0  0  0  0  0  0
    8.8813   -4.9682  -17.4782 H   0  0  0  0  0  0  0  0  0  0  0  0
    9.6728   -3.8331  -16.3329 H   0  0  0  0  0  0  0  0  0  0  0  0
    4.5518    8.4604  -17.9622 H   0  0  0  0  0  0  0  0  0  0  0  0
    5.7826    8.6482  -16.6674 H   0  0  0  0  0  0  0  0  0  0  0  0
    5.8572   -0.3002  -16.8792 H   0  0  0  0  0  0  0  0  0  0  0  0
    7.3503   -0.3023  -17.8777 H   0  0  0  0  0  0  0  0  0  0  0  0
    5.2412    6.4397  -15.7637 H   0  0  0  0  0  0  0  0  0  0  0  0
    3.7220    7.3823  -15.9370 H   0  0  0  0  0  0  0  0  0  0  0  0
    5.5999    4.4867  -17.2548 H   0  0  0  0  0  0  0  0  0  0  0  0
    6.4772    1.6552  -15.7160 H   0  0  0  0  0  0  0  0  0  0  0  0
    6.6471   -3.7106  -17.2642 H   0  0  0  0  0  0  0  0  0  0  0  0
    4.2879    2.5634  -21.3342 H   0  0  0  0  0  0  0  0  0  0  0  0
    3.6191    1.6785  -19.9212 H   0  0  0  0  0  0  0  0  0  0  0  0
    8.0671    7.6205  -19.3307 H   0  0  0  0  0  0  0  0  0  0  0  0
    7.6846    8.9035  -18.1331 H   0  0  0  0  0  0  0  0  0  0  0  0
    6.3427   -2.4449  -15.2701 H   0  0  0  0  0  0  0  0  0  0  0  0
    8.0788   -2.6812  -14.8740 H   0  0  0  0  0  0  0  0  0  0  0  0
    3.5437    3.6156  -18.4236 H   0  0  0  0  0  0  0  0  0  0  0  0
    6.1638    3.4017  -19.9904 H   0  0  0  0  0  0  0  0  0  0  0  0
    5.0953    1.5716  -17.8844 H   0  0  0  0  0  0  0  0  0  0  0  0
    3.4251    5.2494  -16.8401 H   0  0  0  0  0  0  0  0  0  0  0  0
    3.4585    6.3069  -18.0839 H   0  0  0  0  0  0  0  0  0  0  0  0
    3.3904    4.2055  -20.6755 H   0  0  0  0  0  0  0  0  0  0  0  0
  1  2  2  0
  1  3  1  0
  2  4  1  0
  3  5  2  0
  4  9  2  0
  5  9  1  0
  6 10  2  0
  6 11  1  0
  7 10  1  0
  7 12  2  0
  8 11  2  0
  8 12  1  0
  9 26  1  0
 10 25  1  0
 11 38  1  0
 12 39  1  0
 13 16  1  0
 13 31  1  0
 13 34  2  0
 14 22  1  0
 14 30  1  0
 14 35  2  0
 15 23  1  0
 15 32  1  0
 15 36  2  0
 16 23  1  0
 17 18  1  0
 17 24  1  0
 18 24  1  0
 19 21  1  0
 19 30  1  0
 20 23  1  0
 20 31  1  0
 21 33  1  0
 22 28  1  0
 22 33  1  0
 24 27  1  0
 25 29  1  0
 26 30  1  0
 27 31  1  0
 28 29  1  0
 28 37  1  0
 29 32  1  0
  1 40  1  0
  2 41  1  0
  3 42  1  0
  4 43  1  0
  5 44  1  0
  6 45  1  0
  7 46  1  0
  8 47  1  0
 16 48  1  0
 16 49  1  0
 17 50  1  0
 17 51  1  0
 18 52  1  0
 18 53  1  0
 19 54  1  0
 19 55  1  0
 20 56  1  0
 20 57  1  0
 21 58  1  0
 21 59  1  0
 22 60  1  1
 23 61  1  1
 24 62  1  0
 25 63  1  0
 25 64  1  0
 26 65  1  0
 26 66  1  0
 27 67  1  0
 27 68  1  0
 28 69  1  1
 29 70  1  6
 32 71  1  0
 33 72  1  0
 33 73  1  0
 37 74  1  0
M  CHG  1  33   1
M  END
>  <OMEGA_C>  (172) 
kUykQFHEJ0HBKK/BglOwQFZ/MUHucaXBkK6uQPItEkFWG7HB56rGQBGoJUFJqp3BOU/FQBxaBkHH
XanBD7DTQAAAgD9Vj6vBIg6gQB6F7b4ntKLBNyrhQOHjsr9ic6rB3JbRQPQcEEHRoJ/BeaSsQPC1
Uj+REKbBVuntQPLP4L1Xvq3BqFW6QJZTyb9I4qTBATsJQbb+wb3cIHPBevzCQLluwEAVs5XB9G/g
QFiREECQr43BcGIJQUTGpD+14n3Bh+AIQbaxMcByIZDBXhcOQVEgfMDOtYjBWRKpQL7E/UDArYrB
0fjdQM6ftb2KDIfBCmuRQG6q3EB524PBhSiiQC9CokDsKJDB/2jmQGzUrT8764PB+obxQOapS8BY
WIfBnVqRQE9JAUAGTKPBSUzoQIdnA0EjApfBxOvrQF1+FMCvLXrBObqLQJXVgkBb1pfBpcipQM+R
PUDhr5vBrKLJQD/T6UCvsZHBB9DzQFO5Yb/rvX3BzDS4QEOsDECeYJLBHTCAQIGmu0CR/YrBB4AU
QaQz274NAWTBP4XaQPCFskCTu5zBJ138QGUYQkANvpDBIaR0QDrrmUAsq6DB17AJQVZggD0t+LLB
f6euQIBPM8Awc6HBrxuTQEzdMEHIHbXB5WSoQAgOQkHr96PB00mlQJq0CkHPiLjB9XbPQAcULUHV
LZbBjEzNQIee60CS3arBm2vdQABW/j8WFq7BHEOCQLckGb97dZ7Bbir1QLEPEMCtMazB97YLQRiq
BUC4DXLBF/AVQQjdrD8IF4XBvcgRQTV46r8Bbo/B4R4FQfPiPcB6l5jBxxkOQdz7nsBJ04vBo8Ma
QeBQdcDPqYLBcKiRQMddB0Giso/BKwu5QAJfCkHeVoXBxm27QGyymb6MCIfByTXrQLbFmr6YBY/B
TbinQJ0RzkAQOHzB2zVuQOs77EAZ/n7BszKzQMOSj0DXCYrBbUXPQOLe0z/adHvBTLXUQJx6bcAV
HYrBhTaJQDEOJEBXrKrBQZ9nQLXZ1j+jXp/BwhIBQUDb80BVpZrBl+j1QLB0DkGHEJHBqPfKQCF5
HMB4UnTBukIBQaSYK8Df+23BvctiQFFlZ0BvY5PBxD3FQGu1WUBv7J/BXAyjQJApyT8tE4/BETVb
QBD7p0ByuIbBz1ddQHzSyUDWq5DBwvtYQB2ThkBWZ6XBpuapQIBjJ0HdWa7Bfvy3QPeNEkFm1bDB
UVmxQCH7L0HAGKTBo6TNQANUBkGVEqnBT+HGQO3CI0ExUpzB4pHSQD1QeT8h+6vByBKcQJKb+r5G
RaTBjZ3dQLtGuL9yp6vBjXHVQAz6DkE6zZ7B6XWqQNijTT/g86bBWCXsQKqHFr4zTK7B36C1QE7y
zb+SnabB1eIKQdRLAj//527BRg/DQNpQvkBkpJXBuZ/dQL/UEkCN4Y3Br4oFQTvH6T8aF3rBetnw
QOCfQMBRkI7BCw0FQYWKgsCDcojB8v2qQEml+kCeEYrBNoLsQBT65Dwdg4bBXBCSQIpq2UDGk4PB
RLmhQFQfoECqSJDBZSrkQOWZvD/eu4PBupX0QLSWO8CXToLBn6OPQMNjAEDbAaTBeuvqQFi2AUEw
MZbBD0EJQbDR8r8H6XnBPNOKQC59gUAiHJjBZkyoQGCsOkB9OZzBFzfLQLit5kCaLpHB818AQSXQ
CL+W03nB3O62QJCWB0DvGpPB3TqAQMmyuUB9/YrByvkXQXiezD4Ra2DB+pLZQPQjsUBB95zBP3j4
QN2DRkCP+ZDBEEVzQPqTmUCuyqDBQ14JQaBomjwTAbPBevOnQHsWNsAw5qPByWGZQJ7HMEEpULTB
ciyyQNL2C0Hur7jByYemQCLzP0EWNKLB3k3YQIGq7EBH96rBPUTMQKZOKkFtcJTBwZjdQMFv+z/K
C67ByNt6QMXLHr9VaqDBMyHxQBxDE8Bqfa3BMroBQX4wJ0DZYW7Bo+ESQfYiCkBfIoLBnugAQVX0
EcDZmpPBNwbSQIP0UMBESpLBbWP9QK1Co8ACy4fBOpcWQZbCg8CXG4nBt0yUQNN9BkED/o7BjnO7
QBcyCEFYgYTBfVnOQJnP/L4DS4jBAAsBQV4WQ71IcI3B6KinQDaHyUAOwHvBYfhvQMQ26UAtXH7B
RnWyQKC7jEBLP4rBkUbHQLBhxT8LeX3B0ZrXQNl0TMDIjnvBtt6HQGSaJECrTKvB8cFjQGVl1T88
K6DBLVcCQYk58EB4yZnBT3j4QEFkDEGCEpDBkhUMQeI8DcD4QmnBAogYQd8j8b/GUoHB3rlgQGOj
ZEC3t5PBpczDQMUhV0DraKDB25WjQDVwsj8tdZDB9hBaQPb9pUBx54bBsH5eQPn5yECul5DBiwhX
QJPYhkBLoKXBUeagQNRqJUGM9K/B1aCwQJOsEEGl9rHBYKuoQIBRL0ENBKbBbj/IQIbZBUFdC6rB
ICzAQFqAJEEIFZ7BHGTWQDgqhz/NTKvBZwafQOms1L4IFaTBkyThQFXTrb/kMavBmWDQQLLSD0FP
GKDBL+GtQEpAYT/VgabBoB/wQPCDfb2Qjq3BzJO4QMpBxL93dqbBWhQHQZI6VL7Z3XLBY6jDQEdQ
wUAOyZXBteDgQMadEEBieI3BsyMIQQp7mj9vqXzBhpYLQcwOiMA6BIvBB2YAQd6DVMDXApPB/y+p
QMN7/kCn1IrBDofeQBz96L13tofBVhmSQFFT3UBF64PBlWWjQCTYokD2IpDBdFXlQOXFpz//9YPB
R3UIQamvMcARSYjBSAqTQMUUBUArmqPBl9/nQEgKBEHASZfB7EPvQO7tGMDbo3/BBv+MQPAig0AB
tJfBDmCrQJdzP0DMvZvBJ//JQDHH6kDH0JHByzXuQHxAbr/zu33BNXq5QFBiDEAEmZLBMDSBQF/i
u0Dm9YrBarkSQXL6Ir/Iq2TBfhrbQEmps0AQ3pzB9G78QA1yRUCYyI/BPmN0QGQOmkC4YqDB7acL
QRwT4z1k7LHBjkKqQEmHMcCaG6TBt96OQI68LUFfCrbBYJGqQHkUCUE2k7nBwpScQBg3P0GGfKTB
RCrUQH/W60DJkavBy9DFQEQLLEETcJbBl5rhQLIcA0AlO63BDg6AQEmUDL9qZqDBhcH0QN/vDcD1
Aq3BmMcJQZLe/D/mLXDBQ3cVQQK+pT8uCYTBSlQCQamqoMBRwYbB57IbQdZflMC0xIzBv3wIQVZT
QsAWfZrBRDzeQP3oWsCzeZTBoHqRQFpyB0Hb4I/B0Nm4QMXzCkFWjoXB22W8QFbSnb6mM4nBxujw
QAkdoL79C4/BZq+oQKM2z0BwVHzB409vQDix7ED9H3/Bg9W0QDJ/kEBwBYrBFaHMQGuqxz8OCXzB
c9gWQec3CcARm4jBcYWLQLdiKUBd56rB+0xqQKCX3j/t1Z/BiDIBQZeU9UDQw5rBT6X0QBumD0Ha
fpHBh5zPQCuBMMDmS4LBdeb3QORdNcAoIXDBDdBmQPTOZkCmHZPB6+jGQNewXEDc05/B04SkQDWr
wz9fuY/BBwdeQNURqEB2oIbB/a9eQHyiyUCeo5DB1q5YQLqGhkCCEaXBRMahQDq7JUGHZrDBDVup
QH68L0FEeqbBIR+xQM3eEEECS7LBZVbAQKfqJEE9c57BakLIQH8MBkE/SKrBCkjYQLbYiD/hd6rB
PE+fQJmv1L7BRqTB65nhQISMrL+wYKvBokLQQEIkEEEtW6DBhjWvQAy3Yj/k/qXBCJ3xQEhkQr3p
Ca3BMF64QLLgw7+MDqfBhCQIQUjpBb94J3jBeAfDQKAywkAzy5XBb7jeQI+tDkDsWYzB3DwHQTAr
fT+kJ3zBRlCvQMx0XMDnxonBECbMQA1KlMCU3IbBVy+oQDUFAEHPIYvBkErfQBLMYr7Mw4nBFqaQ
QINa30DaK4TBy6yiQIIZpEB6DZDBjQ3kQNCgjz9U/oPBFFnXQIPgTsAi2ILBvhmUQPQEBUC4FKPB
N2PnQLhrBEFod5fB8SL/QH9TI8A5rofB8sGMQFKrg0B+e5fBZXKrQPWMP0D7CpvB4T7JQI7k60AQ
+JHBKn3/QPjLjr8xSoXB1om3QI1ZDUCTo5HBZCiAQGR0vUCsIIvB9tcOQdPair8+FGjBEYPaQGsq
tEDm0pzBlzv7QFnqQUBpfo7BNH11QI+smUCFa6DB0aIMQXriBD7/HbHBnq6oQMi3McD2qqXByi6Q
QFoPLkHrj7bBFYadQIq2P0GICKXBpCOrQC8vCUGo4rnBNszFQNeHLEGv0JbBYObTQJ8R7EAsuKvB
LzrkQHQ+BEDc6avBm+B/QL9ODr9z1KDBJPL0QHMtDcD0aq3BSx0HQTvFxj9eC23BVrkUQVCzqT9X
DIPBU4euQM9hRMBLC5LBgkaPQMC2VsACNIbBS7nAQCC6rMBoNYHBHPrfQKePo8CwDI3BrMGQQGUi
CEH/S5DB27O3QAHXC0Ex5IXB9hS/QK7HIb/DaojBD6TkQHAnvL2NZpLBmd+mQGKf0UD5i3zBvulr
QMIG70BQ9n/BT+2zQMhqkkCzyInBgi3KQCVfmz8zJXzBBZPRQMStQsDKmHTBV/eMQM6/KUCUX6rB
OA9sQLMQ3T/geJ/BOe8AQQQR9kCL3prBhC30QLQVEEFGtJHBSAkOQUzpQMCfTITBluL+QBRPLMCN
aJDBLXllQO0jaUDn6ZLBLd3HQO60W0CP3J7BG0ahQLi7yz86so7BfGNbQAjxqUDZx4bBFVFdQC/P
ykAa75DBx1RaQOCshUBQB6XBJDCmQPTbJUGG26/BFJW0QLbiEEGb5rHB3rutQJ9hL0Gb0KXB7s3K
QAd7BUGq7anBqLnDQK32I0F30Z3BKGrTQIcTkD+C1avBKB6iQM99975dzaPBNTvkQIpLoL+KLqzB
wcTSQM0UD0Hw4J/BfgCtQKY8WT/OUKbB9BvvQIQCnz2Vrq7BT7e9QJ4YxL+MxqbB+oMIQXjsAL2g
6HHBwcTCQICzv0DVqZXBPHTgQKYgEkAojY3BMGoJQVcOqj9uXH3B0B/OQBwTjsAVgIXB+/CuQNHW
VcAQDInBmc2pQIlf/UB+qorB7XXcQPDor7ydZIbBeAaSQEqq3ECiwIPBu+KhQOXdoUCOAJDBmWXm
QLhCtj8ok4PBQwPeQAXXP8CJp4bBjzuQQFLe/T8O3aLBPAjpQBDCAkFtDJfB+uHoQADlDsBAa3jB
7feKQNlQgkBkkJfBtNuoQFODPECzc5vBBhzKQDH56ECoq5HBBizyQK4HUL8tenzBEh64QH6lDEDB
K5LBwUqAQA2ju0DWzYrBoMgTQWNBvb7gzmLBb7HZQFeqsUD5zZzB/2H8QNCnQkDg15DBA55yQPxI
mUCTYaDB+RoKQbc7sz5oyrPBfHqzQADFM8AiY6TBoluVQJOkLkF//rXBupKuQOSOCUF6lLnBU6Oi
QCxyP0EDQaTBC8XVQKnJ6kB9favB8hjJQIAzK0GiFpbBloTbQBU7CUBG3q3BBrKEQEfGMr/Dm5/B
Ym75QMq9A8AZaa7BHEoMQeZvCUCH93HBI+QVQXh3qz8D44TBkgLLQE15nMAoBHvBao3YQE+hpsC/
PYvB7BGjQGhwVMBoVJHBFIeVQGMgQMC9mIPB4W2SQNwqB0F5so/BTAW6QH40CkHoY4XBEsC5QB/W
Tr4vKYbBkc/oQLq4iL5hZY7BVlioQJoAzkD/CXzBXPVvQP+W7EBYvn7B6wSzQKRCj0DS4YnB5cfP
QBWI4T+Ry3rBH3LyQKMLMsAGnI3BDy+FQHEOIkDr+KnBhe5oQBakyT8OjZ7BDokBQbZD8kCNf5rB
pVT2QH4SDkFLL5HB03bNQD5nE8CNcG3ByYsCQfqrLMDO+XDBnqBhQPKgZkDoBZPBxurDQISUWEBi
2p/BCnejQByxxz//zY7B+l5bQAE3qEBAeIbBwGtdQB/TyUA/eJDB+FhWQN/nhUDdDKXB

>  <OMEGA_E>  (172) 
wGkOPw4LDz9MdRA/0sYaP5SHBT8=

>  <OMEGA_NBR>  (172) 
     23918

$$$$
50147896
     RDKit          3D

 82 85  0  0  1  0  0  0  0  0999 V2000
    5.0395   10.3237  -22.0081 C   0  0  0  0  0  0  0  0  0  0  0  0
    5.2989   10.9476  -20.7716 C   0  0  0  0  0  0  0  0  0  0  0  0
    5.5266    9.0256  -22.2598 C   0  0  0  0  0  0  0  0  0  0  0  0
    6.0437   10.2743  -19.7856 C   0  0  0  0  0  0  0  0  0  0  0  0
    6.2761    8.3522  -21.2761 C   0  0  0  0  0  0  0  0  0  0  0  0
    6.7089    1.0444  -21.3747 C   0  0  0  0  0  0  0  0  0  0  0  0
    4.9624   -0.4023  -20.4645 C   0  0  0  0  0  0  0  0  0  0  0  0
    7.0349   -1.3708  -21.3108 C   0  0  0  0  0  0  0  0  0  0  0  0
    6.5437    8.9791  -20.0370 C   0  0  0  0  0  0  0  0  0  0  0  0
    5.4344    0.8849  -20.7898 C   0  0  0  0  0  0  0  0  0  0  0  0
    7.5112   -0.0822  -21.6272 C   0  0  0  0  0  0  0  0  0  0  0  0
    5.7595   -1.5292  -20.7311 C   0  0  0  0  0  0  0  0  0  0  0  0
    8.0987   -0.7974  -15.4524 C   0  0  0  0  0  0  0  0  0  0  0  0
    6.1402    6.0343  -18.7285 C   0  0  0  0  0  0  0  0  0  0  0  0
    6.9138    2.0625  -17.6570 C   0  0  0  0  0  0  0  0  0  0  0  0
    5.3282    7.9603  -17.3687 C   0  0  0  0  0  0  0  0  0  0  0  0
    6.5523   -0.3362  -17.1494 C   0  0  0  0  0  0  0  0  0  0  0  0
    4.6019    6.9342  -16.4968 C   0  0  0  0  0  0  0  0  0  0  0  0
    8.3735    0.6296  -16.0065 C   0  0  1  0  0  0  0  0  0  0  0  0
    5.1220    5.0956  -18.0166 C   0  0  2  0  0  0  0  0  0  0  0  0
    7.0026    0.9903  -16.5684 C   0  0  1  0  0  0  0  0  0  0  0  0
   10.1787    1.3568  -14.2921 C   0  0  0  0  0  0  0  0  0  0  0  0
    9.7821   -3.4488  -17.1810 C   0  0  0  0  0  0  0  0  0  0  0  0
    4.6007    2.0964  -20.4544 C   0  0  0  0  0  0  0  0  0  0  0  0
    7.2807    8.2414  -18.9381 C   0  0  0  0  0  0  0  0  0  0  0  0
    8.8313    1.6848  -14.9603 C   0  0  0  0  0  0  0  0  0  0  0  0
    8.5381   -4.2281  -17.6337 C   0  0  0  0  0  0  0  0  0  0  0  0
    7.2847   -3.3379  -17.7512 C   0  0  0  0  0  0  0  0  0  0  0  0
    6.7737   -2.7829  -16.3883 C   0  0  0  0  0  0  0  0  0  0  0  0
    4.4044    4.1162  -18.9600 C   0  0  2  0  0  0  0  0  0  0  0  0
    5.3328    2.9797  -19.4262 C   0  0  1  0  0  0  0  0  0  0  0  0
    6.3458    7.3338  -18.2437 N   0  0  0  0  0  0  0  0  0  0  0  0
    7.0549   -1.3443  -16.2177 N   0  0  0  0  0  0  0  0  0  0  0  0
    5.6696    2.1667  -18.2617 N   0  0  0  0  0  0  0  0  0  0  0  0
    4.0631    5.8898  -17.3696 N   0  0  0  0  0  0  0  0  0  0  0  0
    8.6290   -1.3412  -14.4914 O   0  0  0  0  0  0  0  0  0  0  0  0
    6.8638    5.5968  -19.6163 O   0  0  0  0  0  0  0  0  0  0  0  0
    7.8468    2.8129  -17.9264 O   0  0  0  0  0  0  0  0  0  0  0  0
    3.8527    4.8342  -20.0621 O   0  0  0  0  0  0  0  0  0  0  0  0
    8.7410    0.0753  -22.1661 F   0  0  0  0  0  0  0  0  0  0  0  0
    5.3032   -2.7621  -20.4181 F   0  0  0  0  0  0  0  0  0  0  0  0
    4.4668   10.8409  -22.7637 H   0  0  0  0  0  0  0  0  0  0  0  0
    4.9258   11.9429  -20.5804 H   0  0  0  0  0  0  0  0  0  0  0  0
    5.3251    8.5474  -23.2070 H   0  0  0  0  0  0  0  0  0  0  0  0
    6.2331   10.7499  -18.8346 H   0  0  0  0  0  0  0  0  0  0  0  0
    6.6468    7.3562  -21.4680 H   0  0  0  0  0  0  0  0  0  0  0  0
    7.0677    2.0311  -21.6281 H   0  0  0  0  0  0  0  0  0  0  0  0
    3.9897   -0.5229  -20.0111 H   0  0  0  0  0  0  0  0  0  0  0  0
    7.6474   -2.2371  -21.5125 H   0  0  0  0  0  0  0  0  0  0  0  0
    4.5886    8.4759  -17.9989 H   0  0  0  0  0  0  0  0  0  0  0  0
    5.8258    8.6914  -16.7146 H   0  0  0  0  0  0  0  0  0  0  0  0
    5.4549   -0.3791  -17.2113 H   0  0  0  0  0  0  0  0  0  0  0  0
    6.9821   -0.4860  -18.1508 H   0  0  0  0  0  0  0  0  0  0  0  0
    5.3069    6.4912  -15.7779 H   0  0  0  0  0  0  0  0  0  0  0  0
    3.7813    7.4235  -15.9517 H   0  0  0  0  0  0  0  0  0  0  0  0
    9.1109    0.5734  -16.8208 H   0  0  0  0  0  0  0  0  0  0  0  0
    5.6615    4.5153  -17.2536 H   0  0  0  0  0  0  0  0  0  0  0  0
    6.3354    1.2665  -15.7386 H   0  0  0  0  0  0  0  0  0  0  0  0
   10.4318    2.1462  -13.5691 H   0  0  0  0  0  0  0  0  0  0  0  0
   10.1035    0.3917  -13.7697 H   0  0  0  0  0  0  0  0  0  0  0  0
   10.9640    1.2978  -15.0602 H   0  0  0  0  0  0  0  0  0  0  0  0
   10.6406   -4.1333  -17.1157 H   0  0  0  0  0  0  0  0  0  0  0  0
   10.0016   -2.6539  -17.9090 H   0  0  0  0  0  0  0  0  0  0  0  0
    9.5947   -3.0006  -16.1941 H   0  0  0  0  0  0  0  0  0  0  0  0
    4.4208    2.6784  -21.3704 H   0  0  0  0  0  0  0  0  0  0  0  0
    3.6386    1.7697  -20.0328 H   0  0  0  0  0  0  0  0  0  0  0  0
    8.1027    7.6563  -19.3764 H   0  0  0  0  0  0  0  0  0  0  0  0
    7.6896    8.9669  -18.2195 H   0  0  0  0  0  0  0  0  0  0  0  0
    8.9234    2.6571  -15.4665 H   0  0  0  0  0  0  0  0  0  0  0  0
    8.0628    1.7510  -14.1761 H   0  0  0  0  0  0  0  0  0  0  0  0
    8.7434   -4.6773  -18.6166 H   0  0  0  0  0  0  0  0  0  0  0  0
    8.3365   -5.0240  -16.9017 H   0  0  0  0  0  0  0  0  0  0  0  0
    7.5253   -2.4857  -18.4037 H   0  0  0  0  0  0  0  0  0  0  0  0
    6.4792   -3.9326  -18.2067 H   0  0  0  0  0  0  0  0  0  0  0  0
    5.6862   -2.9381  -16.3307 H   0  0  0  0  0  0  0  0  0  0  0  0
    7.2667   -3.3367  -15.5757 H   0  0  0  0  0  0  0  0  0  0  0  0
    3.5830    3.6556  -18.3915 H   0  0  0  0  0  0  0  0  0  0  0  0
    6.2393    3.4049  -19.8818 H   0  0  0  0  0  0  0  0  0  0  0  0
    4.9281    1.6303  -17.8588 H   0  0  0  0  0  0  0  0  0  0  0  0
    3.4916    5.2779  -16.8228 H   0  0  0  0  0  0  0  0  0  0  0  0
    3.5058    6.3207  -18.0794 H   0  0  0  0  0  0  0  0  0  0  0  0
    3.4093    4.2289  -20.6449 H   0  0  0  0  0  0  0  0  0  0  0  0
  1  2  2  0
  1  3  1  0
  2  4  1  0
  3  5  2  0
  4  9  2  0
  5  9  1  0
  6 10  2  0
  6 11  1  0
  7 10  1  0
  7 12  2  0
  8 11  2  0
  8 12  1  0
  9 25  1  0
 10 24  1  0
 11 40  1  0
 12 41  1  0
 13 19  1  0
 13 33  1  0
 13 36  2  0
 14 20  1  0
 14 32  1  0
 14 37  2  0
 15 21  1  0
 15 34  1  0
 15 38  2  0
 16 18  1  0
 16 32  1  0
 17 21  1  0
 17 33  1  0
 18 35  1  0
 19 21  1  0
 19 26  1  0
 20 30  1  0
 20 35  1  0
 22 26  1  0
 23 27  1  0
 24 31  1  0
 25 32  1  0
 27 28  1  0
 28 29  1  0
 29 33  1  0
 30 31  1  0
 30 39  1  0
 31 34  1  0
  1 42  1  0
  2 43  1  0
  3 44  1  0
  4 45  1  0
  5 46  1  0
  6 47  1  0
  7 48  1  0
  8 49  1  0
 16 50  1  0
 16 51  1  0
 17 52  1  0
 17 53  1  0
 18 54  1  0
 18 55  1  0
 19 56  1  6
 20 57  1  1
 21 58  1  1
 22 59  1  0
 22 60  1  0
 22 61  1  0
 23 62  1  0
 23 63  1  0
 23 64  1  0
 24 65  1  0
 24 66  1  0
 25 67  1  0
 25 68  1  0
 26 69  1  0
 26 70  1  0
 27 71  1  0
 27 72  1  0
 28 73  1  0
 28 74  1  0
 29 75  1  0
 29 76  1  0
 30 77  1  1
 31 78  1  6
 34 79  1  0
 35 80  1  0
 35 81  1  0
 39 82  1  0
M  CHG  1  35   1
M  END
>  <OMEGA_C>  (173) 
QUOhQPQtJUGiELDBQJCpQFopL0EqLKbBqNmwQANpEEEmFLLBZGbBQF5jJEHgSJ7BmNXIQKeiBUFi
NarBrK/WQDmvhT9Y/6rBQMyeQPnzzb5it6PBQB7hQPR1r79yfKrBtGXRQHiqD0GwS6DBs+atQNyL
Yj+WUabBlFvwQDxoqL1qBK3Bw024QN68w7822aXBWpQBQYYiTL8yPXfBnnzEQK0YwUDq05XBMj7d
QGD/A0COQY3Bw4CqQLS6/kAI84rBZazRQOkbrL4SMonBn0KTQP/k3UCC+YPBuvkFQXQqIT9aDYDB
NeejQBEPo0AOIpDBEhXgQCqEfT8ojITBDdwiQT+srT+OrGTBS4McQaK4XMC8conBlziTQHYrBkCo
oqPBsfvoQNLcA0FGgZfBFk0NQR2o1z9yXW/BH5wIQWhMh8DmEY3BiBzpQL+gVcBeAo7BN8LYQD4b
MsBKG4PBxvCMQPO3g0AMrpfBr6aqQJuzPkDgaJvBxxDLQG6u6kAw85HBGcLhQDQRrL/IvYHBhG21
QDirCkD0F5LBigSCQJ55vEDc9IrBlhAKQYitq7+U3GfBPaTbQNEYs0A87pzBXRn7QPUGNEBeaY/B
W5J2QL6xmkBIf6DBA9sLQWRJmj0sVLHB+rOpQJ3FMMBMWKPBnu+OQIR0LUEIHLbBiqCdQFAWP0Gx
pKTBl2eqQPfBCEHkp7nBiHXHQHX/K0FKrZbB6bLUQMZl60B+vqvBjiriQAn9AUBEBq3BIld/QEPe
Bb+4FqDBvrf0QBwtD8CtGazBLtaSQC2dB0HF/Y/BOG26QPEPC0Fmt4XBVo6uQEwbwr69sInBmW3f
QIXX+L7rNJHButGpQD24z0BycnzBrAByQH6N7UANOn/BHsYRQdLHEj8JkYbB1Sq1QO98kEB4B4rB
VbvKQE8boj9w0XvBx+gmQd9bCUAMG1nBzachQX2PyD68UFzBbmwvQdccpj959nDB4z8qQVZEhMAC
7YjBpQYgQf3YKcCYRY/BAIQZQdQJQMB7jYHBaXeNQD1qK0CM9qrBcN9oQG2F4j8jQ6DBjqQBQa8A
9UDaApvBcxH2QHZ4D0F+wZHBDMYOQYoNKkDddnfBagEBQR0i4D8f0WLB2OQLQUqslcDf7pTBM2IF
QbXEoMDCNofBJs/wQLkVH8DNOpPB3FXPQEOwe8BIp5HBsvW1QGsKPMA2pYLB/ojoQL+LVcAzNnnB
g1BlQFT1aUC0IZPBrajHQCLpWUDWDZ/BrbKdQBSt0D/E3o7BGHZfQKPkqEAUlYbBq19gQO9CykCn
opDByDJaQIdTh0DOKKXBnoKdQMfbJUGAZbDB1n6tQIwkEUGaWrLBb3WlQJLzL0Fwg6bB157FQOKN
BkG+cqrBDm+9QHxcJUHVlp7BHQPZQJARjT8K5qrBr06iQD1kxr6jm6PBxVblQIHopr9qZ6rBnPzN
QGu7EEGckKDB/22wQHZJaT8+MabBOYvzQEBOg7sY7qzBNrC8QN5Iv79+wqXBUXsDQXAhMb+dX3XB
O2zDQAjxwkBC8JXBk5HgQOhzAkCcmY3BnhaoQIguAEGUL4vB2+fYQLkuz76xX4nBAQWSQBI830Dr
EITBzJwHQSIpND+TSn/BnPajQAkypECXFJDBwebjQB4geD/m2YTBG4IjQaJyyj+nK2TBVt4ZQaRT
ZMCtHInBKA6VQA2cBkClbKPBqTLmQOM0BUGKypfBro4NQemS5z9l227BNeMFQftBWcCZMZDBEbfg
QOaHZsC3J4rBYNjaQJxGL8Ap83/BR66NQKzKg0DVepfB0zOsQG7tP0BLOJvBLQXJQOvZ7EAaK5LB
XSbpQKSJq7+nSYHBMPK3QEC7C0BJ8pHBrYOBQKPzvECR6IrBgpAKQW6qkb/simTB4LHaQBNJtUAF
D53BE2j+QNoGMkCF7o/BPwp2QLb5mUDJTqDBxmINQeL9PD7COrHByBivQBJNL8CtSKPB+SWLQCcC
LkEZerbB0T6nQJRjCUFf6rnByCWZQLDRP0EJBaXB9L3RQIhL7UBc76vBMyzDQJYJLUGL+5bBtK3j
QCQ5BkAn8KzBdkiDQE9JCL9T+5/BFJ35QPDmCcAaB6zBcNKPQAvyB0EIPpDBTHa3QHk/DEF5D4bB
Fx22QPb+A79DX4rBzdroQLzEEL/GHJHBwCepQCAC0kBHonzBC+puQOxa7kD5Zn/BBiQUQQzCIT+u
zIXBMvq1QAt5kkBW9InBn7TMQGwOmz81C33B/rkmQaVOGUBfxljBZmMjQWTIHj9SnlvByhAwQZ6G
yD/9f3DBMVYoQez2WcDW843BmGsZQVd3NcBwjILBwR0aQd+6ksBOxoXBOaqOQKXJK0B1uarBrDht
QO+w4D+N/p/BDGQAQU0r+ECBUpvB7fTyQG35EEHYE5LBQeUNQSbGMUCEMXfB3TcBQd9p6j/YT2LB
cAoGQesYGMA1hpPBmLwGQakLhMATwJbBA37GQLRBV8DbtI/BvqDeQN8dlcC0zIfBS7C4QDTzLsB3
snvBPl/tQJh+TMCI43LBD/pnQEETaUDt05LBY8zIQCtjXEAE657BN0mgQI3q1j+cYI7B09tfQOkX
qUD1bobBMT1eQP/tyUAPmJDBrXJaQGQNhkB+5aTB

>  <OMEGA_E>  (173) 
AtoSP5C5ED8=

>  <OMEGA_NBR>  (173) 
     26815

$$$$
50147894
     RDKit          3D

 90 93  0  0  1  0  0  0  0  0999 V2000
    6.2978   10.8969  -20.0904 C   0  0  0  0  0  0  0  0  0  0  0  0
    8.9592   10.4504  -17.4849 C   0  0  0  0  0  0  0  0  0  0  0  0
    9.2279    9.0728  -17.5899 C   0  0  0  0  0  0  0  0  0  0  0  0
    7.9802   11.0461  -18.3062 C   0  0  0  0  0  0  0  0  0  0  0  0
    8.4972    8.2843  -18.4937 C   0  0  0  0  0  0  0  0  0  0  0  0
    6.8861    0.0649  -16.6383 C   0  0  0  0  0  0  0  0  0  0  0  0
    8.5346    1.6339  -15.7634 C   0  0  0  0  0  0  0  0  0  0  0  0
    8.1791   -0.5110  -14.6534 C   0  0  0  0  0  0  0  0  0  0  0  0
    6.7810    1.1393  -21.4602 C   0  0  0  0  0  0  0  0  0  0  0  0
    5.1193   -0.4267  -20.5883 C   0  0  0  0  0  0  0  0  0  0  0  0
    7.2101   -1.2595  -21.5278 C   0  0  0  0  0  0  0  0  0  0  0  0
    7.2427   10.2608  -19.2167 C   0  0  0  0  0  0  0  0  0  0  0  0
    7.5400    1.3119  -16.7166 C   0  0  0  0  0  0  0  0  0  0  0  0
    7.2071   -0.8401  -15.6130 C   0  0  0  0  0  0  0  0  0  0  0  0
    7.4773    8.8616  -19.2836 C   0  0  0  0  0  0  0  0  0  0  0  0
    8.8371    0.7310  -14.7202 C   0  0  0  0  0  0  0  0  0  0  0  0
    5.5276    0.8949  -20.8554 C   0  0  0  0  0  0  0  0  0  0  0  0
    7.6241    0.0615  -21.7876 C   0  0  0  0  0  0  0  0  0  0  0  0
    5.9564   -1.5017  -20.9337 C   0  0  0  0  0  0  0  0  0  0  0  0
    7.1408    2.2730  -17.7620 C   0  0  0  0  0  0  0  0  0  0  0  0
    6.4658   -2.0938  -15.5081 C   0  0  0  0  0  0  0  0  0  0  0  0
    5.1660    7.9772  -17.8060 C   0  0  0  0  0  0  0  0  0  0  0  0
    6.1854    5.8457  -18.6520 C   0  0  0  0  0  0  0  0  0  0  0  0
    4.5977    7.0609  -16.7067 C   0  0  0  0  0  0  0  0  0  0  0  0
    5.0899    4.9924  -17.9426 C   0  0  2  0  0  0  0  0  0  0  0  0
    9.8974    1.0714  -13.6979 C   0  0  0  0  0  0  0  0  0  0  0  0
    3.3759   -4.7937  -17.4786 C   0  0  0  0  0  0  0  0  0  0  0  0
    9.9516   -4.0489  -17.8513 C   0  0  0  0  0  0  0  0  0  0  0  0
    4.6367    2.0454  -20.4522 C   0  0  0  0  0  0  0  0  0  0  0  0
    6.5051    7.9358  -19.9956 C   0  0  0  0  0  0  0  0  0  0  0  0
    4.4530   -3.7193  -17.4474 C   0  0  0  0  0  0  0  0  0  0  0  0
    8.8978   -3.7193  -16.7992 C   0  0  0  0  0  0  0  0  0  0  0  0
    5.6126   -4.1787  -16.5633 C   0  0  0  0  0  0  0  0  0  0  0  0
    7.6729   -3.0898  -17.4720 C   0  0  0  0  0  0  0  0  0  0  0  0
    4.3791    4.0074  -18.8841 C   0  0  2  0  0  0  0  0  0  0  0  0
    5.3598    2.9544  -19.4430 C   0  0  1  0  0  0  0  0  0  0  0  0
    5.5485   11.3898  -20.8356 N   0  0  0  0  0  0  0  0  0  0  0  0
    5.6734    7.1873  -18.9956 N   0  0  0  0  0  0  0  0  0  0  0  0
    5.8804    2.1334  -18.3392 N   0  0  0  0  0  0  0  0  0  0  0  0
    6.5739   -3.0795  -16.4976 N   0  0  0  0  0  0  0  0  0  0  0  0
    4.0480    5.8424  -17.3137 N   0  0  0  0  0  0  0  0  0  0  0  0
    7.8924    3.1861  -18.0873 O   0  0  0  0  0  0  0  0  0  0  0  0
    5.6690   -2.2110  -14.5835 O   0  0  0  0  0  0  0  0  0  0  0  0
    3.7493    4.7276  -19.9435 O   0  0  0  0  0  0  0  0  0  0  0  0
    8.8304    0.2939  -22.3521 F   0  0  0  0  0  0  0  0  0  0  0  0
    5.5554   -2.7686  -20.6993 F   0  0  0  0  0  0  0  0  0  0  0  0
    9.5044   11.0528  -16.7734 H   0  0  0  0  0  0  0  0  0  0  0  0
    9.9946    8.6228  -16.9765 H   0  0  0  0  0  0  0  0  0  0  0  0
    7.7942   12.1078  -18.2379 H   0  0  0  0  0  0  0  0  0  0  0  0
    8.7159    7.2306  -18.5856 H   0  0  0  0  0  0  0  0  0  0  0  0
    6.1353   -0.1955  -17.3697 H   0  0  0  0  0  0  0  0  0  0  0  0
    9.0639    2.5727  -15.8335 H   0  0  0  0  0  0  0  0  0  0  0  0
    8.4207   -1.2098  -13.8662 H   0  0  0  0  0  0  0  0  0  0  0  0
    7.0914    2.1520  -21.6708 H   0  0  0  0  0  0  0  0  0  0  0  0
    4.1648   -0.6135  -20.1189 H   0  0  0  0  0  0  0  0  0  0  0  0
    7.8545   -2.0873  -21.7845 H   0  0  0  0  0  0  0  0  0  0  0  0
    4.3728    8.6598  -18.1449 H   0  0  0  0  0  0  0  0  0  0  0  0
    5.9982    8.5616  -17.3864 H   0  0  0  0  0  0  0  0  0  0  0  0
    7.0495    5.9521  -17.9797 H   0  0  0  0  0  0  0  0  0  0  0  0
    6.4988    5.3338  -19.5738 H   0  0  0  0  0  0  0  0  0  0  0  0
    5.4006    6.7899  -16.0053 H   0  0  0  0  0  0  0  0  0  0  0  0
    3.8008    7.5911  -16.1647 H   0  0  0  0  0  0  0  0  0  0  0  0
    5.5847    4.4066  -17.1539 H   0  0  0  0  0  0  0  0  0  0  0  0
    9.4326    1.5867  -12.8444 H   0  0  0  0  0  0  0  0  0  0  0  0
   10.3805    0.1468  -13.3490 H   0  0  0  0  0  0  0  0  0  0  0  0
   10.6512    1.7284  -14.1564 H   0  0  0  0  0  0  0  0  0  0  0  0
    2.5431   -4.4604  -18.1153 H   0  0  0  0  0  0  0  0  0  0  0  0
    3.7983   -5.7245  -17.8850 H   0  0  0  0  0  0  0  0  0  0  0  0
    3.0077   -4.9732  -16.4577 H   0  0  0  0  0  0  0  0  0  0  0  0
   10.8284   -4.5002  -17.3641 H   0  0  0  0  0  0  0  0  0  0  0  0
    9.5322   -4.7576  -18.5806 H   0  0  0  0  0  0  0  0  0  0  0  0
   10.2540   -3.1264  -18.3686 H   0  0  0  0  0  0  0  0  0  0  0  0
    4.3748    2.6316  -21.3454 H   0  0  0  0  0  0  0  0  0  0  0  0
    3.7195    1.6497  -19.9914 H   0  0  0  0  0  0  0  0  0  0  0  0
    5.8451    8.5311  -20.6437 H   0  0  0  0  0  0  0  0  0  0  0  0
    7.0700    7.2177  -20.6082 H   0  0  0  0  0  0  0  0  0  0  0  0
    4.8205   -3.5400  -18.4686 H   0  0  0  0  0  0  0  0  0  0  0  0
    4.0298   -2.7887  -17.0414 H   0  0  0  0  0  0  0  0  0  0  0  0
    8.5966   -4.6423  -16.2821 H   0  0  0  0  0  0  0  0  0  0  0  0
    9.3185   -3.0112  -16.0701 H   0  0  0  0  0  0  0  0  0  0  0  0
    5.2447   -4.4173  -15.5544 H   0  0  0  0  0  0  0  0  0  0  0  0
    6.0887   -5.0690  -17.0000 H   0  0  0  0  0  0  0  0  0  0  0  0
    7.9056   -2.0606  -17.7828 H   0  0  0  0  0  0  0  0  0  0  0  0
    7.3851   -3.6826  -18.3528 H   0  0  0  0  0  0  0  0  0  0  0  0
    3.6128    3.4762  -18.3005 H   0  0  0  0  0  0  0  0  0  0  0  0
    6.1878    3.4697  -19.9518 H   0  0  0  0  0  0  0  0  0  0  0  0
    5.2830    1.4193  -17.9744 H   0  0  0  0  0  0  0  0  0  0  0  0
    3.5883    5.3106  -16.6024 H   0  0  0  0  0  0  0  0  0  0  0  0
    3.3847    6.1056  -18.0142 H   0  0  0  0  0  0  0  0  0  0  0  0
    3.3104    4.1175  -20.5247 H   0  0  0  0  0  0  0  0  0  0  0  0
  1 12  1  0
  1 37  3  0
  2  3  2  0
  2  4  1  0
  3  5  1  0
  4 12  2  0
  5 15  2  0
  6 13  2  0
  6 14  1  0
  7 13  1  0
  7 16  2  0
  8 14  2  0
  8 16  1  0
  9 17  2  0
  9 18  1  0
 10 17  1  0
 10 19  2  0
 11 18  2  0
 11 19  1  0
 12 15  1  0
 13 20  1  0
 14 21  1  0
 15 30  1  0
 16 26  1  0
 17 29  1  0
 18 45  1  0
 19 46  1  0
 20 39  1  0
 20 42  2  0
 21 40  1  0
 21 43  2  0
 22 24  1  0
 22 38  1  0
 23 25  1  0
 23 38  1  0
 24 41  1  0
 25 35  1  0
 25 41  1  0
 27 31  1  0
 28 32  1  0
 29 36  1  0
 30 38  1  0
 31 33  1  0
 32 34  1  0
 33 40  1  0
 34 40  1  0
 35 36  1  0
 35 44  1  0
 36 39  1  0
  2 47  1  0
  3 48  1  0
  4 49  1  0
  5 50  1  0
  6 51  1  0
  7 52  1  0
  8 53  1  0
  9 54  1  0
 10 55  1  0
 11 56  1  0
 22 57  1  0
 22 58  1  0
 23 59  1  0
 23 60  1  0
 24 61  1  0
 24 62  1  0
 25 63  1  1
 26 64  1  0
 26 65  1  0
 26 66  1  0
 27 67  1  0
 27 68  1  0
 27 69  1  0
 28 70  1  0
 28 71  1  0
 28 72  1  0
 29 73  1  0
 29 74  1  0
 30 75  1  0
 30 76  1  0
 31 77  1  0
 31 78  1  0
 32 79  1  0
 32 80  1  0
 33 81  1  0
 33 82  1  0
 34 83  1  0
 34 84  1  0
 35 85  1  1
 36 86  1  6
 39 87  1  0
 41 88  1  0
 41 89  1  0
 44 90  1  0
M  CHG  1  41   1
M  END
>  <OMEGA_C>  (174) 
1IfJQI9ZLkEMuaDB61gPQb40J0Es4YvBpKUTQQMqEUELuIzBpF3/QNu8MEERc5LBX/QHQVuMBEEU
85PBE1vcQBzjhD0mG4XBl40IQSEl0T+8NnzBit0CQbnRAr9sdGrBv/3YQAjTkT9xrqvBktGjQCR1
2r7atKTBHrnmQBI3ob8JOazBR8TnQCQsJEHNu5nBb0fxQNztpz+ou4XB0aDmQLYQV7+yznnBukXv
QCLJDUHfRJrB0WQNQfIgOz/JhWvBzOGwQBwZZT/w16bBsvjzQPDxez0QTa7BwZq+QFc3wL88eKfB
WIHkQAl5EUClGI7BhefOQIEBBsACIXjBQFClQA5F/0Coco7B7e7FQCAQu0BeN5XBwyCTQCrz4UBe
p4XBhOCiQMrBn0Bdio/B8lseQYAkiT+BKlvBvw5YQNplmcAj1IvBkzkfQWqQgcCKz47Bnl+UQGbo
AkARnqPBjynQQMbx/UAV95/BVn+OQMMIbsBglIvBcl0OQYkJbsC/ZIbBvpqzQEK4hcCLgYTBVIj1
QGe/RcCtxovBhCGMQLw8gEC9EpfB5IOrQC4UPUA9i5vB7oyxQIE8NkE1r6bBg4y1QFr+5UDq9pfB
Kiy8QDiKCECYtpLBAV3SQMgWRcAb+4PBWomBQLz0ukBbgorB7I78QDPpS0CxspDBG2i1QPeADcAK
VmnB9fRvQHhIl0BjjJ/BJkkNQfFzlj4A0bLBesWxQJYwMcAcmKXBLxIYQRXYMEH5L4bB++kfQS73
CUHxz4fB7Gn5QHG5QUEi55HBKXQLQWth50BLr5TBxFTEQBUrSL4S9YrBzgURQTenJED+VX3BO7sG
QTHbmr8G3F3BH+3iQE26CUDIXa3B+kWFQNkPHb+D86DBc1j7QPeVBcCbRq7BIe6LQHyOCkGtKJHB
HvG/QD38CEFrF4vBzJXhQKV3vkCD1o/BdvbPQBauqkAml5zB69GsQD9H2UDoCoDBB0BzQPPp8kBD
UYHBz7WyQDEDjUAWO4nBGuwWQdsZyz+qgk3BiBYmQR1VFj5YlVXBR2sqQZI73T/JgGLBy8IiQJS7
jsAr7JDBCxdzQBkvt8B7FI/BX31AQIckn8BoqYPBD0EtQf4BkMCW6YrB8oMYQRY+mMArpZTBlRAk
QVsXSMDu8pLBXf6LQLxsKEBSw6rBDA1uQFUp0z997p/Bdgu7QIV/CEFlJqXBLz3iQAv35kCV3aTB
SUGaQCGPYsDLv5PBc/SAQP15MsC4VIjBzosJQQaOlMDOQYLBchgVQTq3QMCRj4DBstSnQLFajcD5
3njBzNbCQIY1osD0/4fB/fr8QC/hA8A1Q47B4VLsQOava8CC0pLBfjhnQGZ6XkBkZ5LBpQLGQI4P
XkBFnZ/B9Q2pQD+rtT+Iy4/BNadlQEXwqUC10YTBPp9YQB5hw0AMHZDBMd5TQMjCg0CBMqTB

>  <OMEGA_E>  (174) 
zhglPw==

>  <OMEGA_NBR>  (174) 
     28602

$$$$
50147910
     RDKit          3D

 89 93  0  0  1  0  0  0  0  0999 V2000
    8.0479   -5.0107  -17.3421 C   0  0  0  0  0  0  0  0  0  0  0  0
    5.1733   10.3936  -21.8805 C   0  0  0  0  0  0  0  0  0  0  0  0
    9.1947   -4.2038  -17.4816 C   0  0  0  0  0  0  0  0  0  0  0  0
    6.7638   -4.4290  -17.3767 C   0  0  0  0  0  0  0  0  0  0  0  0
    5.6259    9.0896  -22.1647 C   0  0  0  0  0  0  0  0  0  0  0  0
    5.4227   10.9679  -20.6181 C   0  0  0  0  0  0  0  0  0  0  0  0
    9.0592   -2.8150  -17.6557 C   0  0  0  0  0  0  0  0  0  0  0  0
    6.6260   -3.0376  -17.5518 C   0  0  0  0  0  0  0  0  0  0  0  0
    6.3349    8.3621  -21.1894 C   0  0  0  0  0  0  0  0  0  0  0  0
    6.1273   10.2403  -19.6404 C   0  0  0  0  0  0  0  0  0  0  0  0
    6.6149    1.1564  -21.5333 C   0  0  0  0  0  0  0  0  0  0  0  0
    5.0733   -0.4743  -20.5672 C   0  0  0  0  0  0  0  0  0  0  0  0
    7.1824   -1.2137  -21.5521 C   0  0  0  0  0  0  0  0  0  0  0  0
    7.7767   -2.2265  -17.6912 C   0  0  0  0  0  0  0  0  0  0  0  0
    6.5987    8.9411  -19.9271 C   0  0  0  0  0  0  0  0  0  0  0  0
    5.3961    0.8631  -20.8809 C   0  0  0  0  0  0  0  0  0  0  0  0
    7.5081    0.1212  -21.8611 C   0  0  0  0  0  0  0  0  0  0  0  0
    5.9654   -1.5113  -20.9067 C   0  0  0  0  0  0  0  0  0  0  0  0
    7.9661   -0.4483  -15.2532 C   0  0  0  0  0  0  0  0  0  0  0  0
    6.1164    5.9568  -18.6977 C   0  0  0  0  0  0  0  0  0  0  0  0
    6.8983    2.1174  -17.8153 C   0  0  0  0  0  0  0  0  0  0  0  0
    5.3526    7.8697  -17.2859 C   0  0  0  0  0  0  0  0  0  0  0  0
    8.3763    1.7571  -15.8208 C   0  0  0  0  0  0  0  0  0  0  0  0
    4.6193    6.8337  -16.4330 C   0  0  0  0  0  0  0  0  0  0  0  0
    7.0765   -0.1141  -16.4774 C   0  0  1  0  0  0  0  0  0  0  0  0
    5.0723    5.0194  -18.0122 C   0  0  2  0  0  0  0  0  0  0  0  0
    7.0684    1.4276  -16.4687 C   0  0  2  0  0  0  0  0  0  0  0  0
   13.2593    1.0635  -13.8167 C   0  0  0  0  0  0  0  0  0  0  0  0
    7.6543   -0.7170  -17.7851 C   0  0  0  0  0  0  0  0  0  0  0  0
    4.4708    1.9907  -20.4624 C   0  0  0  0  0  0  0  0  0  0  0  0
    7.3092    8.1490  -18.8482 C   0  0  0  0  0  0  0  0  0  0  0  0
   11.8566    1.0977  -13.2033 C   0  0  0  0  0  0  0  0  0  0  0  0
   10.8265    0.9075  -14.3075 C   0  0  0  0  0  0  0  0  0  0  0  0
    9.4273    0.8958  -13.6965 C   0  0  0  0  0  0  0  0  0  0  0  0
    4.3196    4.0722  -18.9818 C   0  0  2  0  0  0  0  0  0  0  0  0
    5.2103    2.9176  -19.4839 C   0  0  1  0  0  0  0  0  0  0  0  0
    6.3496    7.2438  -18.1832 N   0  0  0  0  0  0  0  0  0  0  0  0
    8.4547    0.7676  -14.7631 N   0  0  0  0  0  0  0  0  0  0  0  0
    5.6238    2.1193  -18.3351 N   0  0  0  0  0  0  0  0  0  0  0  0
    4.0430    5.8256  -17.3290 N   0  0  0  0  0  0  0  0  0  0  0  0
    8.1647   -1.5575  -14.7693 O   0  0  0  0  0  0  0  0  0  0  0  0
    6.8413    5.5188  -19.5839 O   0  0  0  0  0  0  0  0  0  0  0  0
    7.7980    2.7927  -18.3092 O   0  0  0  0  0  0  0  0  0  0  0  0
    3.8076    4.8282  -20.0750 O   0  0  0  0  0  0  0  0  0  0  0  0
    8.6807    0.4110  -22.4684 F   0  0  0  0  0  0  0  0  0  0  0  0
    5.6700   -2.7895  -20.5826 F   0  0  0  0  0  0  0  0  0  0  0  0
    8.1527   -6.0773  -17.2085 H   0  0  0  0  0  0  0  0  0  0  0  0
    4.6349   10.9534  -22.6310 H   0  0  0  0  0  0  0  0  0  0  0  0
   10.1771   -4.6517  -17.4547 H   0  0  0  0  0  0  0  0  0  0  0  0
    5.8864   -5.0495  -17.2691 H   0  0  0  0  0  0  0  0  0  0  0  0
    5.4290    8.6482  -23.1305 H   0  0  0  0  0  0  0  0  0  0  0  0
    5.0732   11.9663  -20.4005 H   0  0  0  0  0  0  0  0  0  0  0  0
    9.9385   -2.1971  -17.7624 H   0  0  0  0  0  0  0  0  0  0  0  0
    5.6431   -2.5910  -17.5796 H   0  0  0  0  0  0  0  0  0  0  0  0
    6.6773    7.3609  -21.4060 H   0  0  0  0  0  0  0  0  0  0  0  0
    6.3076   10.6770  -18.6692 H   0  0  0  0  0  0  0  0  0  0  0  0
    6.8610    2.1784  -21.7807 H   0  0  0  0  0  0  0  0  0  0  0  0
    4.1436   -0.7031  -20.0675 H   0  0  0  0  0  0  0  0  0  0  0  0
    7.8655   -2.0095  -21.8098 H   0  0  0  0  0  0  0  0  0  0  0  0
    4.6161    8.4121  -17.8969 H   0  0  0  0  0  0  0  0  0  0  0  0
    5.8686    8.5769  -16.6200 H   0  0  0  0  0  0  0  0  0  0  0  0
    9.2104    1.6495  -16.5298 H   0  0  0  0  0  0  0  0  0  0  0  0
    8.3722    2.7782  -15.4117 H   0  0  0  0  0  0  0  0  0  0  0  0
    5.3264    6.3547  -15.7398 H   0  0  0  0  0  0  0  0  0  0  0  0
    3.8184    7.3233  -15.8596 H   0  0  0  0  0  0  0  0  0  0  0  0
    6.0576   -0.4942  -16.3116 H   0  0  0  0  0  0  0  0  0  0  0  0
    5.6012    4.4034  -17.2700 H   0  0  0  0  0  0  0  0  0  0  0  0
    6.2555    1.7599  -15.8062 H   0  0  0  0  0  0  0  0  0  0  0  0
   14.0100    1.2004  -13.0244 H   0  0  0  0  0  0  0  0  0  0  0  0
   13.4199    0.0936  -14.3102 H   0  0  0  0  0  0  0  0  0  0  0  0
   13.3556    1.8718  -14.5566 H   0  0  0  0  0  0  0  0  0  0  0  0
    8.6505   -0.2877  -17.9676 H   0  0  0  0  0  0  0  0  0  0  0  0
    6.9868   -0.4633  -18.6218 H   0  0  0  0  0  0  0  0  0  0  0  0
    4.1641    2.5632  -21.3502 H   0  0  0  0  0  0  0  0  0  0  0  0
    3.5805    1.5722  -19.9704 H   0  0  0  0  0  0  0  0  0  0  0  0
    8.1174    7.5564  -19.3017 H   0  0  0  0  0  0  0  0  0  0  0  0
    7.7340    8.8410  -18.1061 H   0  0  0  0  0  0  0  0  0  0  0  0
   11.7578    0.2893  -12.4639 H   0  0  0  0  0  0  0  0  0  0  0  0
   11.6935    2.0675  -12.7103 H   0  0  0  0  0  0  0  0  0  0  0  0
   10.9052    1.7336  -15.0295 H   0  0  0  0  0  0  0  0  0  0  0  0
   11.0110   -0.0474  -14.8213 H   0  0  0  0  0  0  0  0  0  0  0  0
    9.3325    0.0455  -13.0052 H   0  0  0  0  0  0  0  0  0  0  0  0
    9.2547    1.8343  -13.1493 H   0  0  0  0  0  0  0  0  0  0  0  0
    3.4806    3.6280  -18.4263 H   0  0  0  0  0  0  0  0  0  0  0  0
    6.0924    3.3399  -19.9875 H   0  0  0  0  0  0  0  0  0  0  0  0
    4.9384    1.5371  -17.8978 H   0  0  0  0  0  0  0  0  0  0  0  0
    3.4617    5.2143  -16.7919 H   0  0  0  0  0  0  0  0  0  0  0  0
    3.4892    6.2902  -18.0200 H   0  0  0  0  0  0  0  0  0  0  0  0
    3.3457    4.2507  -20.6713 H   0  0  0  0  0  0  0  0  0  0  0  0
  1  3  2  0
  1  4  1  0
  2  5  2  0
  2  6  1  0
  3  7  1  0
  4  8  2  0
  5  9  1  0
  6 10  2  0
  7 14  2  0
  8 14  1  0
  9 15  2  0
 10 15  1  0
 11 16  2  0
 11 17  1  0
 12 16  1  0
 12 18  2  0
 13 17  2  0
 13 18  1  0
 14 29  1  0
 15 31  1  0
 16 30  1  0
 17 45  1  0
 18 46  1  0
 19 25  1  0
 19 38  1  0
 19 41  2  0
 20 26  1  0
 20 37  1  0
 20 42  2  0
 21 27  1  0
 21 39  1  0
 21 43  2  0
 22 24  1  0
 22 37  1  0
 23 27  1  0
 23 38  1  0
 24 40  1  0
 25 27  1  0
 25 29  1  0
 26 35  1  0
 26 40  1  0
 28 32  1  0
 30 36  1  0
 31 37  1  0
 32 33  1  0
 33 34  1  0
 34 38  1  0
 35 36  1  0
 35 44  1  0
 36 39  1  0
  1 47  1  0
  2 48  1  0
  3 49  1  0
  4 50  1  0
  5 51  1  0
  6 52  1  0
  7 53  1  0
  8 54  1  0
  9 55  1  0
 10 56  1  0
 11 57  1  0
 12 58  1  0
 13 59  1  0
 22 60  1  0
 22 61  1  0
 23 62  1  0
 23 63  1  0
 24 64  1  0
 24 65  1  0
 25 66  1  1
 26 67  1  1
 27 68  1  1
 28 69  1  0
 28 70  1  0
 28 71  1  0
 29 72  1  0
 29 73  1  0
 30 74  1  0
 30 75  1  0
 31 76  1  0
 31 77  1  0
 32 78  1  0
 32 79  1  0
 33 80  1  0
 33 81  1  0
 34 82  1  0
 34 83  1  0
 35 84  1  1
 36 85  1  6
 39 86  1  0
 40 87  1  0
 40 88  1  0
 44 89  1  0
M  CHG  1  40   1
M  END
>  <OMEGA_C>  (175) 
SMQAQcRXoMC2vIrBuYulQGJMJkFaC6/Bex0TQWKFhsA42ovB33DYQAe6jcCKA4vBFge0QCJvEUFI
UbHBAIetQGR8L0HG8aTBTPIQQXwoNMDIPo3BgwjUQKxoQsAiaozBN7fKQPXKBUHUg6nBPBPEQFrY
I0GGH53Baa3TQGoDlD80RKzByliiQGLb8r6uiaTBatblQKJZm7+waqzBntr4QLN+DsCMh43ByCjT
QMUOD0Gwap/BfqysQCr1XD8mDKfBj0LwQDlK+D2S467BuuS+QHZxwb/oQKfBWur+QDaJ5b4vDXTB
TrnDQCievkDmlJXBOb/cQM6DB0C0hY7BJkirQHvU+0CcSYrBKwUGQT3q4D8lIn3BRdGTQE6t2kDO
doPBiHLiQOWd6b2+0YPBclCiQDufoEDmGJDBrzDiQLi8tj/Mv4PB9SVUQZAgiD9UEV3B6+/0QA2M
N7/YR47BHxGPQIzQ/j8As6PBJuXpQHZiAkEeyZbBg7Q9QQSDjD+wQFPBiTktQVNTaD9k62TBKtYW
QRRWZT/7JFvBkTqKQD1PgkDO2pfB67qmQKi5OkAa35vBTjDLQOrM50Amd5HBWUYHQRqARD+RNWzB
+fWzQPCiB0AyrpLBDGCBQP9qukDgoYrBxaICQZFcx7/uTmzBMuzaQMWZsEDkq5zBSIn5QDC7MkBG
eZLBL7BzQPiAmkCmmaDBKOQKQVBt0j40v7PB63C1QNqHMsAyqaTBhHECQQt5wsD9qonB1VCUQBZB
L0FFDLXBVdUiQW3alMA7o4vBeF28QEOVocAPJ4rB9rmtQBZfCkE/C7nB5VeiQBZ2P0E+NKPBFgQf
QXKdDMB9GY7BiZS0QEzSJcAJo4zBCqzVQKuM60BqP6vBx9fJQArVKkGGWpXB7ozbQHZrC0DvPq7B
wJiEQMz9M782iqDBPLL7QCGcAMB1eq7BvbaTQBiYBkHwLI/Bicu7QBc7CUGz9YTB0l0TQa8j0z8F
PYTBgPQFQYHOMUBllnbBtnGqQGNZy0AO1nvBamB0QHBY6kDxwH3BNNjBQIYD/b4ofoLB+DyzQELo
jEANKYrBPy3IQKdD4T9l5nzBzyhgQfimmT8kZFDB9rdWQTO/vz299mTBi7BVQZyW7z/H52jBWGgK
QcBLk76rvY/BpZPfQDMz7b5m+ZTBi0CFQAsLJEBIzarBpCZlQG48yT9ow5/BxOABQbbN8UDMaZrB
CX33QL10DUFC2ZDBEyA8QacflD46bEfBqBg7QUlRBEBFXUvB1nsuQYLn3T/peHDBBi0wQeo+Qr0y
JG3BCVIVQYRyOj00FVDBJBMUQTrL6j+MY1LBfsFeQN4xaED2aJPBA/XCQE3AVUBw5p/BJQeeQCW/
xD+hLo/B0YxdQNvbpkDBVYbBv09fQJJJyUAEKZDB+x9WQKcFiEDXXqXB

>  <OMEGA_E>  (175) 
jGQmPw==

>  <OMEGA_NBR>  (175) 
     30379

$$$$
50147916
     RDKit          3D

 77 81  0  0  1  0  0  0  0  0999 V2000
    6.9979   -4.3308  -18.5535 C   0  0  0  0  0  0  0  0  0  0  0  0
    5.2703   10.3939  -21.8643 C   0  0  0  0  0  0  0  0  0  0  0  0
    5.9061   -4.0768  -17.6992 C   0  0  0  0  0  0  0  0  0  0  0  0
    8.2934   -3.9068  -18.1947 C   0  0  0  0  0  0  0  0  0  0  0  0
    5.4942   10.9692  -20.5976 C   0  0  0  0  0  0  0  0  0  0  0  0
    5.7233    9.0878  -22.1366 C   0  0  0  0  0  0  0  0  0  0  0  0
    6.1028   -3.3599  -16.5045 C   0  0  0  0  0  0  0  0  0  0  0  0
    8.4939   -3.1969  -16.9952 C   0  0  0  0  0  0  0  0  0  0  0  0
    6.1712   10.2398  -19.6027 C   0  0  0  0  0  0  0  0  0  0  0  0
    6.4048    8.3581  -21.1437 C   0  0  0  0  0  0  0  0  0  0  0  0
    6.6647    1.0105  -21.3984 C   0  0  0  0  0  0  0  0  0  0  0  0
    4.8608   -0.4408  -20.6171 C   0  0  0  0  0  0  0  0  0  0  0  0
    6.9544   -1.4101  -21.4073 C   0  0  0  0  0  0  0  0  0  0  0  0
    7.3927   -2.8983  -16.1607 C   0  0  0  0  0  0  0  0  0  0  0  0
    6.6394    8.9372  -19.8748 C   0  0  0  0  0  0  0  0  0  0  0  0
    5.3655    0.8494  -20.8656 C   0  0  0  0  0  0  0  0  0  0  0  0
    7.4630   -0.1188  -21.6540 C   0  0  0  0  0  0  0  0  0  0  0  0
    5.6501   -1.5685  -20.8964 C   0  0  0  0  0  0  0  0  0  0  0  0
    8.6630    0.3614  -14.9586 C   0  0  0  0  0  0  0  0  0  0  0  0
    6.1042    5.9684  -18.6791 C   0  0  0  0  0  0  0  0  0  0  0  0
    7.0016    2.2575  -17.7772 C   0  0  0  0  0  0  0  0  0  0  0  0
    8.5708    1.6246  -15.8184 C   0  0  0  0  0  0  0  0  0  0  0  0
    5.3007    7.8679  -17.2804 C   0  0  0  0  0  0  0  0  0  0  0  0
    7.1007   -0.0148  -16.6818 C   0  0  0  0  0  0  0  0  0  0  0  0
    4.5283    6.8325  -16.4603 C   0  0  0  0  0  0  0  0  0  0  0  0
    5.0570    5.0244  -18.0165 C   0  0  2  0  0  0  0  0  0  0  0  0
    7.2049    1.4844  -16.4750 C   0  0  2  0  0  0  0  0  0  0  0  0
    4.5288    2.0534  -20.5078 C   0  0  0  0  0  0  0  0  0  0  0  0
    7.5628   -1.9471  -14.9934 C   0  0  0  0  0  0  0  0  0  0  0  0
    7.3132    8.1460  -18.7727 C   0  0  0  0  0  0  0  0  0  0  0  0
    4.3522    4.0637  -18.9948 C   0  0  2  0  0  0  0  0  0  0  0  0
    5.2870    2.9494  -19.5139 C   0  0  1  0  0  0  0  0  0  0  0  0
    7.7702   -0.5775  -15.4973 N   0  0  0  0  0  0  0  0  0  0  0  0
    6.3302    7.2433  -18.1417 N   0  0  0  0  0  0  0  0  0  0  0  0
    5.7541    2.1408  -18.3781 N   0  0  0  0  0  0  0  0  0  0  0  0
    3.9943    5.8219  -17.3773 N   0  0  0  0  0  0  0  0  0  0  0  0
    9.3946    0.2197  -13.9865 O   0  0  0  0  0  0  0  0  0  0  0  0
    6.8401    5.5481  -19.5645 O   0  0  0  0  0  0  0  0  0  0  0  0
    7.8337    3.0714  -18.1646 O   0  0  0  0  0  0  0  0  0  0  0  0
    3.7980    4.8155  -20.0736 O   0  0  0  0  0  0  0  0  0  0  0  0
    8.7186    0.0375  -22.1305 F   0  0  0  0  0  0  0  0  0  0  0  0
    5.1525   -2.8032  -20.6698 F   0  0  0  0  0  0  0  0  0  0  0  0
    6.8414   -4.8521  -19.4863 H   0  0  0  0  0  0  0  0  0  0  0  0
    4.7508   10.9547  -22.6272 H   0  0  0  0  0  0  0  0  0  0  0  0
    4.9203   -4.4318  -17.9610 H   0  0  0  0  0  0  0  0  0  0  0  0
    9.1317   -4.1263  -18.8393 H   0  0  0  0  0  0  0  0  0  0  0  0
    5.1461   11.9703  -20.3903 H   0  0  0  0  0  0  0  0  0  0  0  0
    5.5479    8.6464  -23.1066 H   0  0  0  0  0  0  0  0  0  0  0  0
    5.2668   -3.1623  -15.8500 H   0  0  0  0  0  0  0  0  0  0  0  0
    9.4874   -2.8811  -16.7133 H   0  0  0  0  0  0  0  0  0  0  0  0
    6.3327   10.6781  -18.6289 H   0  0  0  0  0  0  0  0  0  0  0  0
    6.7485    7.3556  -21.3512 H   0  0  0  0  0  0  0  0  0  0  0  0
    7.0439    1.9996  -21.6089 H   0  0  0  0  0  0  0  0  0  0  0  0
    3.8673   -0.5636  -20.2119 H   0  0  0  0  0  0  0  0  0  0  0  0
    7.5641   -2.2783  -21.6097 H   0  0  0  0  0  0  0  0  0  0  0  0
    8.6211    2.5313  -15.1976 H   0  0  0  0  0  0  0  0  0  0  0  0
    9.3720    1.6509  -16.5716 H   0  0  0  0  0  0  0  0  0  0  0  0
    4.5912    8.4165  -17.9172 H   0  0  0  0  0  0  0  0  0  0  0  0
    5.7934    8.5697  -16.5914 H   0  0  0  0  0  0  0  0  0  0  0  0
    6.0486   -0.3326  -16.7258 H   0  0  0  0  0  0  0  0  0  0  0  0
    7.6149   -0.3201  -17.6051 H   0  0  0  0  0  0  0  0  0  0  0  0
    5.2027    6.3557  -15.7337 H   0  0  0  0  0  0  0  0  0  0  0  0
    3.7015    7.3234  -15.9260 H   0  0  0  0  0  0  0  0  0  0  0  0
    5.5710    4.4247  -17.2509 H   0  0  0  0  0  0  0  0  0  0  0  0
    6.4335    1.7974  -15.7560 H   0  0  0  0  0  0  0  0  0  0  0  0
    4.3089    2.6273  -21.4200 H   0  0  0  0  0  0  0  0  0  0  0  0
    3.5867    1.7181  -20.0495 H   0  0  0  0  0  0  0  0  0  0  0  0
    6.6600   -1.9732  -14.3654 H   0  0  0  0  0  0  0  0  0  0  0  0
    8.4341   -2.2531  -14.3958 H   0  0  0  0  0  0  0  0  0  0  0  0
    8.1357    7.5523  -19.1981 H   0  0  0  0  0  0  0  0  0  0  0  0
    7.7133    8.8379  -18.0169 H   0  0  0  0  0  0  0  0  0  0  0  0
    3.5341    3.5759  -18.4445 H   0  0  0  0  0  0  0  0  0  0  0  0
    6.1444    3.4102  -20.0262 H   0  0  0  0  0  0  0  0  0  0  0  0
    5.1264    1.4548  -18.0102 H   0  0  0  0  0  0  0  0  0  0  0  0
    3.3961    5.2066  -16.8639 H   0  0  0  0  0  0  0  0  0  0  0  0
    3.4658    6.2826  -18.0903 H   0  0  0  0  0  0  0  0  0  0  0  0
    3.3625    4.2273  -20.6793 H   0  0  0  0  0  0  0  0  0  0  0  0
  1  3  2  0
  1  4  1  0
  2  5  2  0
  2  6  1  0
  3  7  1  0
  4  8  2  0
  5  9  1  0
  6 10  2  0
  7 14  2  0
  8 14  1  0
  9 15  2  0
 10 15  1  0
 11 16  2  0
 11 17  1  0
 12 16  1  0
 12 18  2  0
 13 17  2  0
 13 18  1  0
 14 29  1  0
 15 30  1  0
 16 28  1  0
 17 41  1  0
 18 42  1  0
 19 22  1  0
 19 33  1  0
 19 37  2  0
 20 26  1  0
 20 34  1  0
 20 38  2  0
 21 27  1  0
 21 35  1  0
 21 39  2  0
 22 27  1  0
 23 25  1  0
 23 34  1  0
 24 27  1  0
 24 33  1  0
 25 36  1  0
 26 31  1  0
 26 36  1  0
 28 32  1  0
 29 33  1  0
 30 34  1  0
 31 32  1  0
 31 40  1  0
 32 35  1  0
  1 43  1  0
  2 44  1  0
  3 45  1  0
  4 46  1  0
  5 47  1  0
  6 48  1  0
  7 49  1  0
  8 50  1  0
  9 51  1  0
 10 52  1  0
 11 53  1  0
 12 54  1  0
 13 55  1  0
 22 56  1  0
 22 57  1  0
 23 58  1  0
 23 59  1  0
 24 60  1  0
 24 61  1  0
 25 62  1  0
 25 63  1  0
 26 64  1  1
 27 65  1  1
 28 66  1  0
 28 67  1  0
 29 68  1  0
 29 69  1  0
 30 70  1  0
 30 71  1  0
 31 72  1  1
 32 73  1  6
 35 74  1  0
 36 75  1  0
 36 76  1  0
 40 77  1  0
M  CHG  1  36   1
M  END
>  <OMEGA_C>  (176) 
Ju/fQPyVisCTbZTB/KWoQIpNJkEK6q7B9f68QEh1gsDol43B5LEEQUQJesCxjpHBotCvQN2BL0Hm
x6TBXCW3QH9nEUG9F7HBMErDQB4IV8BRCYTB9uYHQc6aTMA29ofBv3rFQEjWI0E/0pzB3vPMQOa6
BUFBJqnB9UTVQKVZgT/aL6vBCYybQHG24b7k76TBKYreQOh+tL8ZQqvBHZHsQGB+OcAlSYHBF3bU
QNL+DkGI/57B9rGrQN5xWT/Z7KbBfdDuQJBk871dO63Bvs20QPjEyL/gK6fBf5sKQUAJuT5NVm/B
WFXDQDr9vkDVbpXBVQ3gQCB6EEC0N47B6SEJQSHyzz8OGH3BuJ+pQJfF+0A8PorBVTnjQBwxcrxr
dIXBD+iQQNSj2kDFroPBjNKhQCjIoEDUIZDBqI7mQDkAvj/fzIPB+OuQQBpqA0D9D6TBJwLyQCI6
+b/z5G/B5QXqQBJWAkFsLpbBM0WLQIoJgkBR9ZfBwC6pQFPCPECMHJzBY6X4QLvWE78M9XfBGJHK
QBfJ50AeIpHB0iG4QHsCCUBxBpPBPKN/QMRMukC8BIvBWVAWQYYCYT6VyF/BHuLaQF6KsUAYhJzB
3q36QACSREAVUZHBHhJzQOMYmkC7lqDBlH8LQVdpGT0yC7HB8OCkQNdnM8CuW6XB8+zaQHZEm8D8
45vBpQaYQJtGL0GGBLXBP3OdQKPRjcAbsI/BkBsSQVEKhMDRtpbBIa2kQHiGP0FHH6PBnYixQMNX
CkFB2rjBromoQDVjSsB7mX3BlMwXQUhkOMDKtIXBbaXKQJbZKkH6B5XBG/TXQKxg60Axz6rBwmfh
QI/z/z/x3qzB5IF3QPJKEL8FsqHBugzyQIXPEcCb4KzBHPAJQcsAIkB+KXPB1fMVQdFQ0z+TkoTB
FOuSQNapBkGDVo/BjGO5QIIdCUEqu4TB6Y3BQGVHqr58zoXBMK3zQEnlo75I14zBb3ymQDNiy0Bs
vXvBL+ZsQOZY6kD00H7Bj0WyQIKXjUDjAYrBh9/NQLYP5j+KGHzBQuKJQCgmKEBAXKvBq4xlQCHr
2z9PZaDByR7VQOGS/L/G2GXBF/IGQcMyEMAzVWbBxSsCQRes8UC7lZnBMtP2QCNoDUGTIpDBKy5i
QMrbZEBsjpPB4J7EQCNBWkClNaDBjwukQC82uj/oFJDBqllZQNycpkA76YbBns9dQBILyUD2uJDB
mzJXQE9Gh0Amb6XBNdKVQNWnhcBXFYrBawekQKXFJkEVd7DBpIy4QEFYlcC+G5DBghidQKXiUsBU
f4HBTh6zQE3fEUH3YbLBhvOqQGiIMEGGc6bBk0jiQLiJhsASC47BpuXGQMhoN8AxXn7BQV/JQGXF
BkEST6rB+QbBQKBtJUHNW57B92DXQGrGjT/GwKrBhbOfQFVCxL6c86PBWd3iQH/Cpr/1oqrBBjHp
QBUwUMAT54XBKsDQQGieEEG6S6DBfXquQKS3aj9XOKbBnKzxQABxk7qK36zBG9e5QK39vr+EMqbB
+NEJQYuUvr6Hn3TB64XCQDlxwkATxpXBpLrcQFckCUBNWIzBeVMEQTjniz8gO3nB6xWnQDtKAEGX
SovBLtXxQI9Qir46H4vBOZ6PQGAB4EBcSYTByhWiQHJNpED3B5DBdobkQNT+dT8MuYTB6VWTQAva
BkCZV6PBi9sJQXMlIsCjOYXBNRjnQH+YBEFGYZfBKheMQCfkg0C6d5fBMVKqQG7LPkBx8ZrB4QYG
QVf9ir+8xIPB+m7IQEhW7EDcBJLBM3y1QCuVCUC/npHBydZ+QPLEvUDHLovBL5UQQVqAUb8PqmPB
2AjaQElatEDpypzBIzT5QLFjPEDuhY7BWNp1QLMwmkDVeqDBLqYMQZwCPz5Z8bDBararQJowL8A9
9qPBgiprQGVKj8BbDozBwSSTQPVQL0EmrbbBpCSzQAPCrMB1UZbBl5aCQBC9PMBwY3nBEZ6tQGhe
CkELC7rBdlCfQKuJQEF2/KTBzOf8QLB0ksB0rZLBvNnMQEl1D8CmlXDBR87UQGF07UCMxKvBbfHF
QHbYLEEFp5bB2XXiQJavBkA6l6zBs12AQKofB7/afqDBzvX2QLf3CcArU6zBqdP9QHshzj9SrGrB
sBcSQShv0D/LCYDBJK6PQKw3CEHViJDB5VC2QAxFDEHPFobB8HPVQF9hVb8+uo3Bo1sCQbNY0Txn
KZLBmdKlQEua0kCFrHzBBYxpQCOt70A8KIDBVzezQIyqkkDRu4nBeZfGQIg3PT8ycoDB4FyNQGwq
LUB9kqrBu1xpQPcH4T/iCaDBTwsTQcj4OsD0x3zBFe4SQS2zLMBMpozB/sQAQTU/9kDsvZrBSNnz
QFcXEEFeh5HBKC9jQCqhakAD95LBcGXHQIJcWkDbgp7BkteeQJh/xD+c1I7BV+9ZQNxYqkCwzobB
BOhbQOXXykD5CJHB/X9aQPhohkAOIaXB3+2VQJFeh8CLG4vBFt2kQDZoJkFpNbDBbE65QBAdlMD8
VJHBOOabQISJWMD2PILB8AWsQIY0MEH1NqbBCcKzQJZ4EUHCHbLBKVPiQCC1g8AUGY/BiQrFQLgT
OsDtg3/B0SHCQFEaJUEhIZ7BqgDKQOZcBkHJC6rBEszWQKZAiD98xarBccidQOF4xr5hIKTB2TXg
QEJqrb+c0qrBePbnQAXOTcCshobBfZTRQH09EEH5C6DBbLatQI7DZj8mRqbB8ivwQGzggb238qzB
JPO2QCPXwb9LcqbBJwwKQUeno76icXTBR8HCQHnkwUB8sJXBN4vdQMbjDED8VIzB0IQFQQzukz/a
f3nBcUunQKvT/0BVK4vBgZzvQBo7Xb6srIrBTzGPQLBG30A6SoTBmh+iQNnDo0COCpDBUU3lQF2H
hj87bITBbE6TQJnDBkBAaKPBmAMJQUD/HsAmMIXB5rrnQNUxBEFpHJfBNmWMQD+Fg0Bui5fB+NCq
QK+3PkBPHJvBbrsEQbIphr8JaoPB3NvIQLaO60AE05HBKcS2QBDzCUD10ZHBYIx+QLQlvUAEQovB
TXARQeaXQr/UtWPBW1naQLHts0C/tJzBHzL5QL5gQkCNUo7BHAp2QDr/mUBYgaDB8PwLQdBdwz0a
/LDBf36nQLnrL8BAaaTBLGtsQD9oksAZJY3BMPGTQPbzLkHBabbBXPW0QKF+qsA705fB++aAQHhg
RsCSsHrB0omgQMI9QEF+wqTBQh2uQIbyCUHow7nBCV79QOsmjcCd7pPB2f7JQHWeE8BUX3HBr0jH
QHCQLEGMcZbBm0jVQKmT7ECifqvBc7fiQO9yA0B9iazBcpV8QPiBAr8ztKDBAZrzQII7DsBBjKzB
WC4BQdxy2z8J+WrBvV0TQfpJ0T+jmIDBi0iQQHb+B0F3dpDBHGy2QAbFC0HV4IXBxvzRQBiMPb+7
6IzB1PIAQSwQ5Dy475HBru6kQCC50UCIgnzB/kxoQGAL70ACRIDBWwKzQAUKkkDYt4nBZufHQJ3m
Yj8CiH/BzWKNQAHJLEAAqqrBezJpQEj74j+gBqDBgbARQZZLOcDJi3zBU8ASQT/+JsA9c4zB9R4B
QRhx9UBAcJrBJlv0QOSpD0G+OpHBaANkQAAvaUDnEpPB+4PHQNnGWkB5zp7BC/ugQJYIwD9VM4/B
WUxZQI+oqUCE8obBsxVcQAtPykAuJJHBGP5aQOpEhkA+MqXBrdCTQNvChsCl54rBizSlQG1oJkFO
KLDBu0qZQOFiUcC8ooLBhLS3QLr5lsBUZZDBxiGsQAw7MEG5KKbBtEe0QGx/EUEdC7LBHH7CQHfM
M8DwEoDBXNjgQBD5hsCwIo7B2iTCQJwqJUH0Cp7B1XvKQEVxBkEU86nBFlfXQEpviD+llKrBGi6e
QMJ4xb4HAaTBGuXgQLotrb++g6rBDwXmQPDiTcBITIbB58jRQO5UEEHc8J/B5RyuQIk5Zz84KqbB
JtPwQFBjfb3PrKzBNoW3QMqfwb8pNKbBOd0JQSYkqr4aw3TB/JvCQFErwkAYqpXBg87dQGsEDUAP
bozBvW4FQc6gkj/csXnBWiynQPn4/0C2FovBX/XvQKQUV75Y64rBQfKOQIdZ30DoQYTB8+6hQBID
pEBkDJDBPVzlQHIghj8dloTBpY2TQErnBkBwY6PBJTwIQZ73H8B1QoXBlcPnQB1NBEF1+ZbBNEeM
QHamg0BlipfB7NaqQGFNP0C/GpvBvoMEQaggh78umIPBxMbIQPe+60D+vZHBlr62QL0TC0CDx5HB
oBx+QJ1cvUBaRYvBQDYRQRexR790D2TBO2/aQFswtEAXoZzB/C/6QAsmQEAnuo7BFjJ1QC7dmUA7
f6DB31YMQfDZxj1drrDBoimoQFzRL8ABGaTBiiVoQGRrkcBlC43B1FKUQIDqLkGzYbbBlLp7QAUE
OsDsh3zBDKezQP+0r8BfWJbBXYugQGVBQEFeuaTBGM6uQPnzCUHlsbnBrg3HQFA1CcAGu3LBS1X8
QFkwk8DEY5LBWRLHQJCiLEF3WZbBhPLVQOjK7EAUY6vBeUjjQG2FA0DRWKzBtRh9QDDvAb+xqaDB
Bmf0QJwZDsDOKazBvAIBQX6E2T8zJWvBRFkTQdEh0D9Hn4DBlD6QQLUgCEGZYZDB6Ei2QLrJC0G1
w4XBx3LSQDvYOb84XY3B4HMBQRqEKz2DDpLBW5mkQLaq0UBDcXzBgsRnQDEY70BlPIDBf8myQOFS
kkChtonBcNXHQGQ5YD+y/n/Bp72NQCSRLEAGrqrBWZlpQDNP4z/qB6DBphkRQYsbOsCHynzBsZ4R
QetgKcBOnIzBQjABQYmv9UAcQ5rBjDj0QCrGD0GEEpHBYhlkQNgraUAcCpPBeYLHQAGRW0BIyp7B
+6+gQLWbxD/3BI/BSrBYQIDVqUC0/obBAthbQICkykDLJ5HBs09aQLr4hUC6KKXBrS2WQGpCiMCL
6orBKQqlQKYXJkFhSrDBwoabQOsWWcACJILBWvC5QNQQlcB7/pDBLmS0QKQ6EUGHKrLBfRWsQGcD
MEGLUqbBsXPEQNzROcDYK3/BCMLiQJ5ZhMCyrI7BFd7KQPVKBkFDFKrBS13CQBcRJUHeNp7B3AzX
QIaoiT9FBKvBKfqeQJThxb6dBKTBGzfgQM4mrL/ReqvBls7nQDASTsB0MIbBPh3SQOU+EEFKFaDB
RIiuQELqZz85OKbBMObvQIBdT72gn63B1sS3QBJTwb+MqqbBF/MJQTxmnb4o8nPB1IDCQDZFwkD+
tZXBzNrdQOyiDEDaTIzBiV4FQf0WlT8jK3nBrRinQHglAEECPovBOabvQCRUY77Sd4rBjv6OQFTe
30BXUoTBtwSiQN0mpEDXApDBU0HlQAy4hj+XUoTBbeeTQNG6BkCsTqPB8eYIQTwcH8Bgw4TBqfDn
QNZEBEGLE5fBK3CMQM6Gg0BdcpfBACKrQGsJP0DpBJvBM5kEQVIlhr97GYPBkMrIQMLf60DC05HB
qPi2QIpjCkDEuZHBHTt+QOeQvUC8P4vB3DARQTkjPb+OFmPBrQXaQE5GtEDHvJzBr9r5QDsdQUCy
Z47BxP90QMqkmUCEZKDB/WALQUjo4z0uMrLB1auoQMnfL8CCkqTBi0xtQNG3k8A//ozBktqTQEh9
LkEbgLbBPTiAQF6aRsBJwHrB3Am2QL28q8AdcZfBXeuuQB6hCUHczbnBKmGgQOgFQEGp56TBSejI
QFpWEsD0KXHBVxv+QOfzjcA6YZPB/5TWQJuU7EAAg6vBxGrHQF2eLEHki5bBQvLiQN5XBECQrqzB
nwuAQEhxA7/xTKDBXzPzQEZ2DcDVhq3Bn+QAQcwX3T+zuGrB4D8TQR5+0j/4ZYDB4B2QQNsdCEH8
lZDBiRi2QEAaDEEY/IXBYg3SQLsRP7+YuYzBlxcBQVbWTTzItZHBEbqkQE920kB1h3zBwdtnQCm0
70DRUoDBngOzQAuykkDcqInBI7THQP8RZT/7a3/BNsmNQD6+LED2jarBV5tqQGfe4T/P6p/BvGcR
Qf0AOcDYinvBP9ESQUyJJ8AF9YvBz0IBQel49UBtU5rBrGr0QCvHD0HLMZHBZLFkQG7SaEAh6JLB
XtDHQBdoW0DRr57BTAGhQO0ewj8DDY/BSxVZQCIfqkCD6YbBS65bQEOVykACJZHBUiVaQC6thUCZ
CaXBkqMLQcoLf8AmbJXB4rSgQI0tJkH236/BcHLqQEp+eMCUkJTB4LoYQSB/a8DZl4zBtAKwQIVj
EUGZ+LHBFtOoQOvnL0H16KXBYrfXQP6dWsDLCovBTXMPQaBPTcDhE4PBiJ/HQHBcBkGnHqrBIkjA
QMrgJEGaCp7BKgHXQLkMij+baKvBoPGdQHITxr7Q/aTBGqrfQD25q79uN6zBQCvyQL44QsCAaILB
iCDQQPwqEEELJqDBnA6uQL74Zz9j1qbBuvXvQLBZOr14/a3ByHu2QMkYwb8czKfBjp4HQX6wsL0E
jXDBAonDQISLwUBp55XBEhjiQBf0DED5zY3BZywJQc/cnz9i53zBhA6pQDOy/kBP8orBggrdQCpv
7L1M/oXB9TaSQMeJ3UB8+4PBRsijQPzaokBBI5DBIJPmQADeqz9lv4PB4oeTQO19BkCSwqPBsjng
QJwnC8DPM3PB8rHnQC4xBEFga5fBxmmNQBXGgkASmpfBVNurQALlPkAUuJvBBPrqQPFrRb+ANnjB
tNfJQMoK60CM8pHBfie6QHvcCUAFtZLBXHiBQPfLu0CC9YrBvKMTQRbb4r4EKWLBqJLaQJwZtEDr
F53BEhj9QImkQkB/NJDB7SR0QCqRmUCUP6DBF7MLQRik+D2BO7LBqAymQLWhL8DWX6bB58sSQfSP
icAK4JzBEryOQEWqLkGh6bXBKWrWQOo6hcDJPJvB1dopQbOsc8ChIY3BwaGpQJ3qCUG4mLnBnQmd
QAfVP0G9T6TBTFa1QMNcVsCCVorBdnAZQTmWPsA+i3jBLz/TQGjO7EDBtqvBjSrGQFNILEHqX5bB
qSDjQIudBEAx66zBcH19QJkfBL/ja6HBdbfyQPI0DcDzPa7B/eMLQUL2BUD683HBjAkWQVrYmz/Z
c4TBxjKRQIV3B0Ef/I/BmLO4QO4gC0EhtYXB6626QJy3jL4HaofBpV7vQPMc9b7d64zBje2oQPG1
z0DGbnzBBmhvQMfX7EDDRn/BqJG1QPvekECUBIrBqYLPQJRv2j+2invBxlWMQAQ8LECo96rBSO1q
QHsP4T9sGaDBeEe9QKTtEsCnYXLB8oLuQAd5HcBjyGPBngUBQYDd9UCZ+JrByLf0QI+vD0G8mpHB
ST1oQJ/YZUAb8JLB7XLHQFyxXECIt5/B5yulQDDivj+G0I/BU/1eQPfzp0Dvk4bBJddeQHxHyUDn
o5DBNl1YQH7thUA65aTBQxrJQAJ8i8DXcZHBkGGrQI8DJkGDi67BWhj1QKuHgcBtCZHBs0itQFoe
ecBTZonBVBGyQFAaL0E8XaTBHrO5QIUVEUFet7DBza8CQQZXUcDZjojBZne9QCE4R8Dz8IDB8QzH
QKpHI0HJWJzB7PHOQFlJBUFYuqjB+DLUQJCOfD8vIqvBgzSaQDAj7r5/C6XB3ALdQBW5t7/keqvB
mobpQMZCM8AMe4DBTfHVQNdrDkEuhp7BVJaqQFplUz/U4qbBiIXtQJlvE76JUK3BDUyzQFXxy7+Z
YafBuTwMQW5wAT/Kcm/BVwHDQLoNvkAFOZXBGTvfQLxXEkDFJ47BgOYIQU8x4z9yn3zBYqapQMWt
+kD68InBerLnQKgd9DwmnYXBxQWQQPyj2UCHkYPBdNugQIcYoECDGJDBV+nmQIU1wz+4v4PBndSP
QO3VAUD3+KPBJt/5QMlB7b+M2m/B4b7qQFyUAUErqZXBw3OKQOjGgUCZDZjBizOoQDaoO0BzGZzB
ZnH/QPawAL/DunjBHa7KQOaA5kDVxZDBQlu3QLLXCEB18JLBiNB9QLfcuUC0DYvBUgAYQRoz0D7M
2V/BhonaQEiosEDmUJzBVqf5QJDXRUDqfpHBErBzQH4vmkAbw6DBP+AKQYCqMTyeGbHBPU2jQO4D
NcD1n6XB67W8QJOZnsAk8ZfBKkObQDAaL0GksLTBxSgFQQn4jMAjOpfBCJ2LQB4+hMCRuInBLhWn
QJYmP0G/tqLB52C0QG4YCkFfgbjBbokTQdk9QsBuO4jBGiSoQI8fMMA5knXBv8LLQIEvKkHIg5TB
G+rZQL576kBnZKrB1YfgQB71/D+ss6zBxbZ0QNaIFr9a1qHBQ1TwQMt3E8AsN63BODEIQUl0KkDN
RHLBZrwVQVJf8z8zP4TBLYaTQGxqBkGKEI/BNXG5QLpPCEFYToTBRgPHQHJIwb6Z2YXBH0T4QHdF
V74GI43B5QClQCjRyUBpbXvB/hNrQFWR6UD/tX7BRMCwQG2QjEBl8onBFA3NQGXh4T+XMHzBBXKI
QBlaJkAfRKvBNbtjQIdz2D9AOqDBcbHiQHpi6L87n2LBv2gMQT7+DcDu1WnB54kCQVj270AG/ZjB
YGb3QAyHDEEuio/Ba2VfQIP4ZEDNzJPBnpzDQKqtWEDoQqDBf6GjQG3vuD8o9I/BjnVWQBxJpkCg
EofBSSFdQGsVyUB1yJDBigFYQDGhh0AzsKXB/CDlQIJNhsD7N5XBXq2nQK8LJkEsKq/BHvAGQVq+
cMDL35HBK4/BQFZFgsDdW47B4Me2QAE6EUHLRbHB32euQNJmL0H/C6XBUmUJQdpzScAp04fB21XG
QCqmXMBkWITBx8jMQJzKBUEHR6nBaDjEQAn1I0G+B53BC2fVQBy1hT85M6vBI0+cQIiK3L5u8qTB
UdjeQF7Pr7/nzqvBp6ruQOlvPMDkOYHB0djTQPUzD0FxJJ/BiCCsQGy2XT/fzqbB7eXuQFJsmb3c
lK3BenW1QEQ0xr+qiafBId0KQWX4mT63dW/BIVDDQHqFv0BCaZXBpBHgQPtwDkANF47BsBgJQd7p
yT/J4XzBk/6oQIOM/ECmZYrB5ZPjQMiThb2nd4XB9l+QQFaP20BXxYPBdfahQJJFoUBHD5DByZLm
QLCYtz8cvoPB+hmRQPq8A0CC1KPBcbjxQPSp/788qG/BKYnpQAq9AkGoRpbBXH6LQFhcgkDE2JfB
OFWpQLUJPUAQ45vBEUX4QNeoH7+ntXfBbDjKQLSF6EDjMZHBBNe3QD0xCUBZxJLB3ml/QMyoukB8
AYvBB/kWQXDpFD6BQWDB//baQEj3sUBGdpzBzQX7QIbKQUCcNpHBQCl0QBQ6mkDbjaDBJ10LQbQF
yT0lk7HBOaOlQNiGMsBA9aXBziLhQLIhlMDbEp3B8+yWQJrXLkFmT7XBBaUUQXWLecDrBJfBX7ei
QP53jsBqyZDBS3uxQP8KCkGnBLnB/tCiQLpcP0GZcaPB3QoZQW5LNcA3KYXBRTKrQHqoVsDUGH7B
m0fYQPuh60AB46rBEgLJQJ0SK0GOP5XBbFnhQM2NAkDHuazBUrp5QPDzEL+4h6HB7T/yQCUED8CT
uK3BK7QJQb5OHkBUsXLBnewVQeZP0D/qc4TB1kKSQPHaBkFAkY/B6X24QNOuCUEH7oTBqQDCQNnX
xr42BIbB0cD0QAZ4u77/wozBRO+lQNTNzEAvv3vBK2FrQAFK60CXLn/BcXqyQFxHjkBi6InB8cjN
QLM63j/Z9XvBpaeJQIS7KED/FKvBYVpmQFYH2z8aH6DBBfHTQM+bAsB3TGbB1m0GQTZREsDjcWXB
MgACQXeP8kAmo5nB8yb2QHzuDUEIQ5DBvkhiQM//ZUBXdJPBKvrEQLUHWkBO9J/BqyyjQIjivT+/
so/BvqFZQFDxpkCn1YbBgjFdQJPsyEDDv5DB5VtYQP1Ph0AsYqXBL2bSQGPii8BEK5PBdMSoQA8N
JkFxrK7ByiazQA9ngMAmkYvBYFn9QJCUfsCFvJHBKj23QPAlEUHx2LDBnv6vQFVGL0H+i6TBVMu+
QIzaT8CWkoLB1YwEQYzvTcAZtojBxx3NQMZ/BUEC6ajBtKzFQDudI0EolpzBarjUQA/KgD9DH6vB
Aw+bQBkg6r4mBaXBysTdQP32tL8Dp6vBtLvpQOYANsA1IYHBxKrUQD7GDkFww57Bnz+rQMc/Vj+X
0abB9iDuQDQF873oZq3B/yS0QNtKyr+Qg6fBYrAKQXJH4T7E6m7BDkzDQJebvkDOTZXB0uTfQGSr
EUC5LY7BUfYIQaMC2T/ZvHzBK5CpQEhC+0DRE4rB5dzjQLxR0zypT4XBLH+QQGog2kD3mIPBKY2h
QOZ1oEDdFZDBjHnmQIdVwz+frYPBMl6QQOJGAkBu4KPBjyD1QMrG87/VC3DBTSfqQCAYAkHA8ZXB
NQyLQGf+gUB++5fBPtaoQIxkPECUEJzB4A/7QN9qCb/6NXjBxJjKQLJI50Di8ZDBpOa3QGqmCUA3
65LBcAZ/QFbsuUCk+4rBqSMWQWbWoz6eIF/B3PTaQEQpsUCKXZzBGO76QGTFQ0D/jZHBteBzQIMz
mkC+qaDB/R4LQRzuPD2cPLHBQSCkQKppNMDN7qXB323JQKVinsAXHZrBzh2YQMUDL0GMxrTB9VWS
QBlcisB9o4zBSZ8KQVdKiMANj5fBGo2xQNMQCkFambjBreOkQAxNP0Hg5KLBhtamQJ4BPsBbhHnB
UQMVQcP0OsAtlofBTyXYQBHt6kAdkqrBHtjKQKahKkErzJTBI+LgQI3U/z9yqKzB0sF2QOAqFr/N
uaHBNCDxQNvWEcCSe63Bl28JQSTCJkDB3XLBINoVQXDW3T9nWoTBIBOTQFuEBkFKL4/Bjku5QMDC
CEGVgoTB41nCQIkcn76SVoXBwkjzQPQfiL6o3ozBJNSlQOW4ykAZgXvBpOxrQCTj6UAku37Btsux
QIQPjUDB94nB3WvNQHCJ6j+VAXzBSKyIQPCdJkD7KavBRSRlQJXT2D9PEqDB/CXbQKFO9L+qK2TB
m3oJQayvD8AAdWjBMEICQbM28UDLVZnBIuD2QCgkDUF04I/BAxZhQOEnZUAHqZPBJDHEQPNtWUBs
P6DBnN2jQFMnvD/O4I/B0Y9YQIgwpkBV6obBN2tdQGPGyECUsJDBFBZYQO6Ah0C9i6XB

>  <OMEGA_E>  (176) 
zFIGPySjID/Avxw/arMcP0A4Gz94Vw0/EN8GP4yaBj8QEwY/

>  <OMEGA_NBR>  (176) 
     41352

$$$$
50162110
     RDKit          3D

 91 95  0  0  1  0  0  0  0  0999 V2000
    5.7044   10.7363  -20.8702 C   0  0  0  0  0  0  0  0  0  0  0  0
    5.8260   10.2046  -22.1684 C   0  0  0  0  0  0  0  0  0  0  0  0
    6.3139   10.0839  -19.7832 C   0  0  0  0  0  0  0  0  0  0  0  0
    6.9032    0.1317  -16.7164 C   0  0  0  0  0  0  0  0  0  0  0  0
    8.1502   -0.3764  -14.6831 C   0  0  0  0  0  0  0  0  0  0  0  0
    8.3915    1.8036  -15.7458 C   0  0  0  0  0  0  0  0  0  0  0  0
    6.8589    1.2829  -21.5208 C   0  0  0  0  0  0  0  0  0  0  0  0
    5.1496   -0.3077  -20.7995 C   0  0  0  0  0  0  0  0  0  0  0  0
    7.1725    8.3660  -21.2921 C   0  0  0  0  0  0  0  0  0  0  0  0
    7.2521   -1.1145  -21.7348 C   0  0  0  0  0  0  0  0  0  0  0  0
    7.2571   -0.7716  -15.6954 C   0  0  0  0  0  0  0  0  0  0  0  0
    7.4721    1.4231  -16.7478 C   0  0  0  0  0  0  0  0  0  0  0  0
    6.5467    9.0094  -22.3800 C   0  0  0  0  0  0  0  0  0  0  0  0
    8.7087    0.9143  -14.7003 C   0  0  0  0  0  0  0  0  0  0  0  0
    5.5854    1.0205  -20.9694 C   0  0  0  0  0  0  0  0  0  0  0  0
    7.6940    0.2146  -21.8961 C   0  0  0  0  0  0  0  0  0  0  0  0
    5.9765   -1.3728  -21.1926 C   0  0  0  0  0  0  0  0  0  0  0  0
    7.0565    8.9025  -19.9915 C   0  0  0  0  0  0  0  0  0  0  0  0
    6.6964   -2.1245  -15.6775 C   0  0  0  0  0  0  0  0  0  0  0  0
    7.0918    2.3670  -17.8102 C   0  0  0  0  0  0  0  0  0  0  0  0
    7.7927   -4.0238  -18.7323 C   0  0  0  0  0  0  0  0  0  0  0  0
    7.2532   -5.0736  -17.7657 C   0  0  0  0  0  0  0  0  0  0  0  0
    7.6724   -2.6929  -17.9744 C   0  0  0  0  0  0  0  0  0  0  0  0
    5.4150    7.8515  -17.2047 C   0  0  0  0  0  0  0  0  0  0  0  0
    6.0037    5.9935  -18.7954 C   0  0  0  0  0  0  0  0  0  0  0  0
    4.4596    6.8962  -16.4825 C   0  0  0  0  0  0  0  0  0  0  0  0
    6.2565   -4.3046  -16.9005 C   0  0  2  0  0  0  0  0  0  0  0  0
    5.0061    5.0869  -18.0354 C   0  0  2  0  0  0  0  0  0  0  0  0
    6.7010    8.4527  -23.7785 C   0  0  0  0  0  0  0  0  0  0  0  0
    9.7024    1.3178  -13.6368 C   0  0  0  0  0  0  0  0  0  0  0  0
    2.6894   -3.2036  -17.2508 C   0  0  0  0  0  0  0  0  0  0  0  0
    4.6773    2.1562  -20.5666 C   0  0  0  0  0  0  0  0  0  0  0  0
    4.8723   -4.1771  -17.5684 C   0  0  0  0  0  0  0  0  0  0  0  0
    4.3322    4.0641  -18.9596 C   0  0  2  0  0  0  0  0  0  0  0  0
    5.3527    3.0581  -19.5189 C   0  0  1  0  0  0  0  0  0  0  0  0
    6.8631   -2.9753  -16.7687 N   0  0  0  0  0  0  0  0  0  0  0  0
    6.4799    7.0909  -17.9222 N   0  0  0  0  0  0  0  0  0  0  0  0
    5.8514    2.2195  -18.4186 N   0  0  0  0  0  0  0  0  0  0  0  0
    3.9397    5.9048  -17.4320 N   0  0  0  0  0  0  0  0  0  0  0  0
    6.1213   -2.5166  -14.6680 O   0  0  0  0  0  0  0  0  0  0  0  0
    7.8532    3.2738  -18.1291 O   0  0  0  0  0  0  0  0  0  0  0  0
    8.1281    9.0379  -17.5651 O   0  0  0  0  0  0  0  0  0  0  0  0
    8.7879    7.0979  -19.0750 O   0  0  0  0  0  0  0  0  0  0  0  0
    3.6682    4.7481  -20.0244 O   0  0  0  0  0  0  0  0  0  0  0  0
    4.0457   -3.2872  -16.7912 O   0  0  0  0  0  0  0  0  0  0  0  0
    8.9133    0.4660  -22.4241 F   0  0  0  0  0  0  0  0  0  0  0  0
    5.5363   -2.6426  -21.0598 F   0  0  0  0  0  0  0  0  0  0  0  0
    7.7675    8.0287  -18.5703 S   0  0  0  0  0  0  0  0  0  0  0  0
    5.1432   11.6448  -20.7091 H   0  0  0  0  0  0  0  0  0  0  0  0
    5.3669   10.7122  -23.0039 H   0  0  0  0  0  0  0  0  0  0  0  0
    6.2133   10.4883  -18.7868 H   0  0  0  0  0  0  0  0  0  0  0  0
    6.1955   -0.1642  -17.4766 H   0  0  0  0  0  0  0  0  0  0  0  0
    8.4073   -1.0649  -13.8917 H   0  0  0  0  0  0  0  0  0  0  0  0
    8.8529    2.7795  -15.7810 H   0  0  0  0  0  0  0  0  0  0  0  0
    7.1911    2.3018  -21.6541 H   0  0  0  0  0  0  0  0  0  0  0  0
    4.1803   -0.5072  -20.3672 H   0  0  0  0  0  0  0  0  0  0  0  0
    7.7410    7.4621  -21.4541 H   0  0  0  0  0  0  0  0  0  0  0  0
    7.8908   -1.9350  -22.0267 H   0  0  0  0  0  0  0  0  0  0  0  0
    8.8429   -4.2326  -18.9843 H   0  0  0  0  0  0  0  0  0  0  0  0
    7.1922   -4.0006  -19.6537 H   0  0  0  0  0  0  0  0  0  0  0  0
    6.7512   -5.8860  -18.3116 H   0  0  0  0  0  0  0  0  0  0  0  0
    8.0637   -5.4914  -17.1504 H   0  0  0  0  0  0  0  0  0  0  0  0
    8.6690   -2.3263  -17.6873 H   0  0  0  0  0  0  0  0  0  0  0  0
    7.1718   -1.9407  -18.6019 H   0  0  0  0  0  0  0  0  0  0  0  0
    4.8462    8.4495  -17.9320 H   0  0  0  0  0  0  0  0  0  0  0  0
    5.8833    8.5197  -16.4670 H   0  0  0  0  0  0  0  0  0  0  0  0
    6.8644    5.3908  -19.1207 H   0  0  0  0  0  0  0  0  0  0  0  0
    5.5033    6.4232  -19.6757 H   0  0  0  0  0  0  0  0  0  0  0  0
    4.9994    6.3807  -15.6746 H   0  0  0  0  0  0  0  0  0  0  0  0
    3.6224    7.4689  -16.0569 H   0  0  0  0  0  0  0  0  0  0  0  0
    6.1551   -4.7900  -15.9186 H   0  0  0  0  0  0  0  0  0  0  0  0
    5.5507    4.5479  -17.2461 H   0  0  0  0  0  0  0  0  0  0  0  0
    7.5970    8.8842  -24.2486 H   0  0  0  0  0  0  0  0  0  0  0  0
    6.8041    7.3587  -23.7282 H   0  0  0  0  0  0  0  0  0  0  0  0
    5.8137    8.7103  -24.3755 H   0  0  0  0  0  0  0  0  0  0  0  0
   10.7178    1.0463  -13.9611 H   0  0  0  0  0  0  0  0  0  0  0  0
    9.6470    2.4047  -13.4769 H   0  0  0  0  0  0  0  0  0  0  0  0
    9.4659    0.7965  -12.6975 H   0  0  0  0  0  0  0  0  0  0  0  0
    2.1267   -2.5090  -16.6098 H   0  0  0  0  0  0  0  0  0  0  0  0
    2.6758   -2.8378  -18.2881 H   0  0  0  0  0  0  0  0  0  0  0  0
    2.2255   -4.2001  -17.2072 H   0  0  0  0  0  0  0  0  0  0  0  0
    4.4361    2.7566  -21.4561 H   0  0  0  0  0  0  0  0  0  0  0  0
    3.7510    1.7424  -20.1414 H   0  0  0  0  0  0  0  0  0  0  0  0
    4.9911   -3.7738  -18.5849 H   0  0  0  0  0  0  0  0  0  0  0  0
    4.3972   -5.1679  -17.6203 H   0  0  0  0  0  0  0  0  0  0  0  0
    3.5932    3.5047  -18.3673 H   0  0  0  0  0  0  0  0  0  0  0  0
    6.1836    3.6044  -19.9892 H   0  0  0  0  0  0  0  0  0  0  0  0
    5.2546    1.4902  -18.0840 H   0  0  0  0  0  0  0  0  0  0  0  0
    3.3062    5.3001  -16.9493 H   0  0  0  0  0  0  0  0  0  0  0  0
    3.4521    6.3845  -18.1615 H   0  0  0  0  0  0  0  0  0  0  0  0
    3.2509    4.1148  -20.5966 H   0  0  0  0  0  0  0  0  0  0  0  0
  1  2  2  0
  1  3  1  0
  2 13  1  0
  3 18  2  0
  4 11  2  0
  4 12  1  0
  5 11  1  0
  5 14  2  0
  6 12  2  0
  6 14  1  0
  7 15  2  0
  7 16  1  0
  8 15  1  0
  8 17  2  0
  9 13  2  0
  9 18  1  0
 10 16  2  0
 10 17  1  0
 11 19  1  0
 12 20  1  0
 13 29  1  0
 14 30  1  0
 15 32  1  0
 16 46  1  0
 17 47  1  0
 18 48  1  0
 19 36  1  0
 19 40  2  0
 20 38  1  0
 20 41  2  0
 21 22  1  0
 21 23  1  0
 22 27  1  0
 23 36  1  0
 24 26  1  0
 24 37  1  0
 25 28  1  0
 25 37  1  0
 26 39  1  0
 27 33  1  0
 27 36  1  0
 28 34  1  0
 28 39  1  0
 31 45  1  0
 32 35  1  0
 33 45  1  0
 34 35  1  0
 34 44  1  0
 35 38  1  0
 37 48  1  0
 42 48  2  0
 43 48  2  0
  1 49  1  0
  2 50  1  0
  3 51  1  0
  4 52  1  0
  5 53  1  0
  6 54  1  0
  7 55  1  0
  8 56  1  0
  9 57  1  0
 10 58  1  0
 21 59  1  0
 21 60  1  0
 22 61  1  0
 22 62  1  0
 23 63  1  0
 23 64  1  0
 24 65  1  0
 24 66  1  0
 25 67  1  0
 25 68  1  0
 26 69  1  0
 26 70  1  0
 27 71  1  1
 28 72  1  1
 29 73  1  0
 29 74  1  0
 29 75  1  0
 30 76  1  0
 30 77  1  0
 30 78  1  0
 31 79  1  0
 31 80  1  0
 31 81  1  0
 32 82  1  0
 32 83  1  0
 33 84  1  0
 33 85  1  0
 34 86  1  1
 35 87  1  6
 38 88  1  0
 39 89  1  0
 39 90  1  0
 44 91  1  0
M  CHG  1  39   1
M  END
>  <OMEGA_C>  (177) 
YIq2QMbHK0Ek9qbBTm66QAVGI0H2WLHB2gvKQJlXIUHtQ57BbOfcQBHgBj47u4XBMWcCQXm5wL4D
7mrBkkMGQbbd5j+f7nvB/HvbQNk0pD+FKqzB2smkQFOJnb5uZabBbIXlQBLbBUEhVqrBAhHoQIuo
jr/m4K3BODroQCqJRb9zIHvBJxvvQLgptj+G+4XBPH7RQFkmEEE1CrPBzFYLQWQMaj+UNGvBxruy
QICggj9UwafBezX2QAPNWz4tK6/BfT+/QE62r7+FiqnBHc/hQJhwDkGF7p/B4kjWQCz3B8De1nrB
MPDiQHx9F0BSe47Bi135QBTDgMDQ25XBDRroQPVaosAeII7BQ4T1QK1XLMCUy4/BeUetQKc/+0BI
o4nB9B3AQOfKv0D4XJbBrbSOQKut3EA73IPBbzXIQEi/icAwNIfBHjKgQKfHokBsSJDBRG7WQG0+
B0FPOr7B9zwbQVutqD+BMFrBNh8sQKsHTcCUAYrBYKyVQLH+CUBiiKTBHeqbQPyqhcAujIzBN6GK
QHMNgkBbrZfBhUmrQM63Q0C3JpzBKJ7bQI1rPsA7JobBZFvPQEvo4kCeYI/B4j67QMQLDkA5WZPB
TSR8QDP0vEC/dIvB9+HDQMIPIcAfsGrBj037QH2FUUBUCJHBuwwCQWGbEEFihYzBL5sMQfoh40Ct
mZjB/MJqQDXwl0AGMqDBq3aBQNJhUsBlVIbBrpwOQUeS7j55ZLPBhSmxQBIgKcBveqjBYY/4QF11
AEHmj5TBIZWkQExROkEqrKXB/72rQExlK0H/B7jBCNPGQBjQJ0FoS5bBYkHGQMErKL4X0IvBa4QG
QcpNiL91RF7Be6UNQQnjMUDpfnzBfB3mQOxQE0CLO63BnsSFQLLaAb8g8KLBZLb3QLnJ7kASoqvB
s4H8QGKu97+kNrDBYXwNQUVxh8Do35fBICbmQNcEgMCxOp3B0wnYQFNavMAUfpLB7wQBQSe5r8AU
NInBKrQKQe/hFMCMf43BpX/lQCFq+L+10JTBARSbQA4xB0G/dI/BGUS8QL9QCEGCvIPBeanbQMGB
rEA595jBsBqwQCaLzUDYZ53BfPufQIwuzEAry3rBENVnQCIB70CIdIDBgPbEQLtHmcCWsn7BGp+x
QIOIkUDy94nBOhrzQLQlDkEr/cHBjrvZQNV660Bp073BrQm6QHJdC0HvAMPBOXwrQRjthT/PYF/B
EloaQYvmGUCQoVfBbXQXQXLlSz8SKUvBqRsIQHCTIMDM4ITBuz8rQOieNcABTpLBSW8OQNdmhsBe
qInB1vSNQI1sMEAupqvBrhBwQJgH3z9/IaHB2rafQDSFccDlrZTB17WMQBtfpcBl9ozBt/ZlQCNN
YEAn8JLBBeDFQE6vZkDQ6Z/BbyWoQD2/vj/+q5DBEJlTQHeaqUAmmIfBxO9cQAxOzEC2SpHBOA9Q
QIysg0DixaTBscHbQK3eB0H9dbTBexrEQFING0GTKrTBXfPsQKS6/kBC76rBr93cQCZpJT7L0oXB
/kgCQXANur5PI2vBFesFQXS36j+NoXvBT0TbQGLbsz+8W6zBMS6mQMimbb7fe6bBK7jOQNQwHUE2
3KDBJLvpQIMZe797L67BejfoQCpZQL8re3vBGLfuQCqJuj/K6IXBLsi9QL3CJUHbWKrB2w4LQbGt
bj8yF2vBqu2yQBiwjT/q16fBe7P2QHo5uD7dfa/Bt2HBQFQAo79Ht6nBI6bmQGMrCkH0HKHB+ZnW
QBrnBsAelnvBXWziQDsVGkDuU47BqZj8QNdLfcBVLZbB7brqQKvfoMDBs47BYx73QJCpKMBpFpDB
bd6sQKwd/UDs+YnBhuK+QKqdv0BfAJbBl52NQJ3n30D06oPBfyvKQMkPicDpyYfBQ62eQIqXo0DN
yY/B7BKiQLB9OUEDyKnBfd0aQZAzqj/H8lnBiEgwQIqWS8Cu4orBFCKVQAqmDUBbZ6TB1+udQFiF
hcARKo3ByDyJQJCkgkCOKpfBJ0WqQL9rRkBy3ZvBXb/cQMpoPMDjk4bBK6rOQNr04kAGS4/Bism6
QFwcEEC5NZPBKnx5QJqvvkD7IIvBN87DQPoIIcAQqGvBWbH6QGVpVEAs05DB/JsBQQsFEUHDZo3B
inINQUhm3kDWF5fB0ntmQL9wmEAulJ/B/W6CQMR1VsCboIbBP6IOQe2qJD9c2LPBjXi0QI52I8Dt
k6jBMZv5QIAX/kDElpTB5LbgQKlh/0Bc+LvBfNC2QL6PIUGdcrvBn+v+QCE44UD0IqvBu3PGQFVi
Bb7C+IvBV3AGQc7Ih79wnV7ByCENQe4nNEA27nvBDgflQLa0G0AeZ63BJXqHQKWs6r5q9KLBW1LJ
QG1CJUEOV5nBV7b+QPhS5L8OnLDB2kwPQU2xhMB44JfBjojqQH3re8Boup3B0BjbQE6FusBqSpPB
LycCQU+brsCpuYnB7D8LQTWUD8AXoI3BMNjmQCty8r/JKJXBXDebQBevB0EfEpDBpfS7QF2yCUFW
TYTBsiHaQKG2q0AdgpjBcwCvQOHzzECaHJ3BlHaeQP+N0EBTbHrBYNNlQAMx80Cq0IDBJgPHQLP0
mMAQ9H/BscavQHCWkkC4YInBT5OAQB7ENEHUd6jBd9OsQCutQ0GJIKPBk56kQNRsQkEhVrHB7igr
QcUYiT/uJ1/B/NMZQVV8GkApKFfB4x0XQbgySz/5CkvBsYkKQLjvIsCbd4XBczw0QMYKLcBuzJLB
/jgRQDE7hcB4qIvBV/2MQPcjNUACZqvB1JBvQC2x4j8QE6HBGm2hQCzGbcCkHpXBaNePQDCcpcAa
/43BlF5kQCZLYED8YpLBeonEQMjnakC6ip/B2hyoQNTFwD9Ao5DB4mNRQE0ErEBv/obBZalZQOr0
zEAoFZHB4uxLQNMahEBTJqTB

>  <OMEGA_E>  (177) 
4HkhPXAQAD4=

>  <OMEGA_NBR>  (177) 
      3151

$$$$
50162111
     RDKit          3D

 88 92  0  0  1  0  0  0  0  0999 V2000
    5.9043   10.1151  -22.3407 C   0  0  0  0  0  0  0  0  0  0  0  0
    5.7510   10.6813  -21.0592 C   0  0  0  0  0  0  0  0  0  0  0  0
    6.6272    8.9155  -22.5004 C   0  0  0  0  0  0  0  0  0  0  0  0
    6.3202   10.0502  -19.9367 C   0  0  0  0  0  0  0  0  0  0  0  0
    7.1978    8.2825  -21.3773 C   0  0  0  0  0  0  0  0  0  0  0  0
    6.8982    0.1137  -16.7113 C   0  0  0  0  0  0  0  0  0  0  0  0
    8.1172   -0.4139  -14.6667 C   0  0  0  0  0  0  0  0  0  0  0  0
    8.3711    1.7774  -15.7030 C   0  0  0  0  0  0  0  0  0  0  0  0
    6.9003    1.3518  -21.5202 C   0  0  0  0  0  0  0  0  0  0  0  0
    5.2263   -0.2725  -20.7917 C   0  0  0  0  0  0  0  0  0  0  0  0
    7.3441   -1.0377  -21.7273 C   0  0  0  0  0  0  0  0  0  0  0  0
    7.2365   -0.7984  -15.6935 C   0  0  0  0  0  0  0  0  0  0  0  0
    7.4662    1.4059  -16.7208 C   0  0  0  0  0  0  0  0  0  0  0  0
    8.6761    0.8769  -14.6639 C   0  0  0  0  0  0  0  0  0  0  0  0
    5.6323    1.0642  -20.9676 C   0  0  0  0  0  0  0  0  0  0  0  0
    7.7570    0.2998  -21.8950 C   0  0  0  0  0  0  0  0  0  0  0  0
    6.0764   -1.3209  -21.1798 C   0  0  0  0  0  0  0  0  0  0  0  0
    7.0517    8.8533  -20.0914 C   0  0  0  0  0  0  0  0  0  0  0  0
    6.6722   -2.1493  -15.6942 C   0  0  0  0  0  0  0  0  0  0  0  0
    7.0950    2.3616  -17.7737 C   0  0  0  0  0  0  0  0  0  0  0  0
    7.8723   -4.0358  -18.7171 C   0  0  0  0  0  0  0  0  0  0  0  0
    7.2543   -5.0917  -17.8021 C   0  0  0  0  0  0  0  0  0  0  0  0
    7.7010   -2.7053  -17.9679 C   0  0  0  0  0  0  0  0  0  0  0  0
    5.4044    7.8862  -17.2336 C   0  0  0  0  0  0  0  0  0  0  0  0
    6.0013    5.9830  -18.7634 C   0  0  0  0  0  0  0  0  0  0  0  0
    4.4653    6.9426  -16.4718 C   0  0  0  0  0  0  0  0  0  0  0  0
    6.2530   -4.3160  -16.9466 C   0  0  2  0  0  0  0  0  0  0  0  0
    5.0085    5.0891  -17.9817 C   0  0  2  0  0  0  0  0  0  0  0  0
    9.6577    1.2692  -13.5856 C   0  0  0  0  0  0  0  0  0  0  0  0
    2.6992   -3.1856  -17.3551 C   0  0  0  0  0  0  0  0  0  0  0  0
    4.7054    2.1813  -20.5522 C   0  0  0  0  0  0  0  0  0  0  0  0
    4.8898   -4.1495  -17.6493 C   0  0  0  0  0  0  0  0  0  0  0  0
    4.3351    4.0555  -18.8981 C   0  0  2  0  0  0  0  0  0  0  0  0
    5.3631    3.0671  -19.4800 C   0  0  1  0  0  0  0  0  0  0  0  0
    6.8880   -3.0062  -16.7716 N   0  0  0  0  0  0  0  0  0  0  0  0
    6.4699    7.1128  -17.9351 N   0  0  0  0  0  0  0  0  0  0  0  0
    5.8631    2.2121  -18.3962 N   0  0  0  0  0  0  0  0  0  0  0  0
    3.9429    5.9156  -17.3839 N   0  0  0  0  0  0  0  0  0  0  0  0
    6.0427   -2.5311  -14.7138 O   0  0  0  0  0  0  0  0  0  0  0  0
    7.8513    3.2813  -18.0665 O   0  0  0  0  0  0  0  0  0  0  0  0
    8.1095    9.0793  -17.6586 O   0  0  0  0  0  0  0  0  0  0  0  0
    8.7765    7.0843  -19.0887 O   0  0  0  0  0  0  0  0  0  0  0  0
    3.6467    4.7327  -19.9512 O   0  0  0  0  0  0  0  0  0  0  0  0
    4.0521   -3.2598  -16.8833 O   0  0  0  0  0  0  0  0  0  0  0  0
    8.9700    0.5739  -22.4262 F   0  0  0  0  0  0  0  0  0  0  0  0
    5.6674   -2.5994  -21.0337 F   0  0  0  0  0  0  0  0  0  0  0  0
    7.7521    8.0319  -18.6250 S   0  0  0  0  0  0  0  0  0  0  0  0
    5.4677   10.6006  -23.2009 H   0  0  0  0  0  0  0  0  0  0  0  0
    5.1965   11.6001  -20.9381 H   0  0  0  0  0  0  0  0  0  0  0  0
    6.7439    8.4817  -23.4825 H   0  0  0  0  0  0  0  0  0  0  0  0
    6.1967   10.4831  -18.9550 H   0  0  0  0  0  0  0  0  0  0  0  0
    7.7470    7.3606  -21.4990 H   0  0  0  0  0  0  0  0  0  0  0  0
    6.2032   -0.1757  -17.4857 H   0  0  0  0  0  0  0  0  0  0  0  0
    8.3648   -1.1106  -13.8795 H   0  0  0  0  0  0  0  0  0  0  0  0
    8.8307    2.7545  -15.7211 H   0  0  0  0  0  0  0  0  0  0  0  0
    7.2117    2.3771  -21.6549 H   0  0  0  0  0  0  0  0  0  0  0  0
    4.2615   -0.4915  -20.3585 H   0  0  0  0  0  0  0  0  0  0  0  0
    7.9992   -1.8455  -22.0184 H   0  0  0  0  0  0  0  0  0  0  0  0
    8.9381   -4.2484  -18.8872 H   0  0  0  0  0  0  0  0  0  0  0  0
    7.3458   -4.0057  -19.6825 H   0  0  0  0  0  0  0  0  0  0  0  0
    6.7436   -5.8669  -18.3921 H   0  0  0  0  0  0  0  0  0  0  0  0
    8.0249   -5.5591  -17.1715 H   0  0  0  0  0  0  0  0  0  0  0  0
    8.6820   -2.3057  -17.6714 H   0  0  0  0  0  0  0  0  0  0  0  0
    7.1842   -1.9727  -18.6054 H   0  0  0  0  0  0  0  0  0  0  0  0
    4.8229    8.4544  -17.9746 H   0  0  0  0  0  0  0  0  0  0  0  0
    5.8722    8.5827  -16.5222 H   0  0  0  0  0  0  0  0  0  0  0  0
    6.8677    5.3768  -19.0665 H   0  0  0  0  0  0  0  0  0  0  0  0
    5.4994    6.3786  -19.6587 H   0  0  0  0  0  0  0  0  0  0  0  0
    5.0193    6.4575  -15.6547 H   0  0  0  0  0  0  0  0  0  0  0  0
    3.6274    7.5203  -16.0542 H   0  0  0  0  0  0  0  0  0  0  0  0
    6.1152   -4.8188  -15.9780 H   0  0  0  0  0  0  0  0  0  0  0  0
    5.5571    4.5595  -17.1889 H   0  0  0  0  0  0  0  0  0  0  0  0
   10.6767    1.0009  -13.9014 H   0  0  0  0  0  0  0  0  0  0  0  0
    9.6006    2.3543  -13.4150 H   0  0  0  0  0  0  0  0  0  0  0  0
    9.4108    0.7381  -12.6544 H   0  0  0  0  0  0  0  0  0  0  0  0
    2.1273   -2.4907  -16.7226 H   0  0  0  0  0  0  0  0  0  0  0  0
    2.6927   -2.8251  -18.3944 H   0  0  0  0  0  0  0  0  0  0  0  0
    2.2402   -4.1842  -17.3106 H   0  0  0  0  0  0  0  0  0  0  0  0
    4.4661    2.7971  -21.4316 H   0  0  0  0  0  0  0  0  0  0  0  0
    3.7797    1.7489  -20.1445 H   0  0  0  0  0  0  0  0  0  0  0  0
    5.0455   -3.7300  -18.6542 H   0  0  0  0  0  0  0  0  0  0  0  0
    4.3998   -5.1307  -17.7334 H   0  0  0  0  0  0  0  0  0  0  0  0
    3.6142    3.4829  -18.2960 H   0  0  0  0  0  0  0  0  0  0  0  0
    6.1920    3.6307  -19.9331 H   0  0  0  0  0  0  0  0  0  0  0  0
    5.2731    1.4676  -18.0835 H   0  0  0  0  0  0  0  0  0  0  0  0
    3.3240    5.3189  -16.8730 H   0  0  0  0  0  0  0  0  0  0  0  0
    3.4383    6.3678  -18.1194 H   0  0  0  0  0  0  0  0  0  0  0  0
    3.2297    4.0952  -20.5189 H   0  0  0  0  0  0  0  0  0  0  0  0
  1  2  2  0
  1  3  1  0
  2  4  1  0
  3  5  2  0
  4 18  2  0
  5 18  1  0
  6 12  2  0
  6 13  1  0
  7 12  1  0
  7 14  2  0
  8 13  2  0
  8 14  1  0
  9 15  2  0
  9 16  1  0
 10 15  1  0
 10 17  2  0
 11 16  2  0
 11 17  1  0
 12 19  1  0
 13 20  1  0
 14 29  1  0
 15 31  1  0
 16 45  1  0
 17 46  1  0
 18 47  1  0
 19 35  1  0
 19 39  2  0
 20 37  1  0
 20 40  2  0
 21 22  1  0
 21 23  1  0
 22 27  1  0
 23 35  1  0
 24 26  1  0
 24 36  1  0
 25 28  1  0
 25 36  1  0
 26 38  1  0
 27 32  1  0
 27 35  1  0
 28 33  1  0
 28 38  1  0
 30 44  1  0
 31 34  1  0
 32 44  1  0
 33 34  1  0
 33 43  1  0
 34 37  1  0
 36 47  1  0
 41 47  2  0
 42 47  2  0
  1 48  1  0
  2 49  1  0
  3 50  1  0
  4 51  1  0
  5 52  1  0
  6 53  1  0
  7 54  1  0
  8 55  1  0
  9 56  1  0
 10 57  1  0
 11 58  1  0
 21 59  1  0
 21 60  1  0
 22 61  1  0
 22 62  1  0
 23 63  1  0
 23 64  1  0
 24 65  1  0
 24 66  1  0
 25 67  1  0
 25 68  1  0
 26 69  1  0
 26 70  1  0
 27 71  1  1
 28 72  1  1
 29 73  1  0
 29 74  1  0
 29 75  1  0
 30 76  1  0
 30 77  1  0
 30 78  1  0
 31 79  1  0
 31 80  1  0
 32 81  1  0
 32 82  1  0
 33 83  1  1
 34 84  1  6
 37 85  1  0
 38 86  1  0
 38 87  1  0
 43 88  1  0
M  CHG  1  38   1
M  END
>  <OMEGA_C>  (178) 
bPC8QEnXIUHDubLBigi4QJfmKkEmeajB+xHUQAOmDkHhALTB/D7KQLTNIEFkfp/B/1PmQCaFBEHQ
BKvB+L3cQLTJ6D2ysIXBJ+ABQU7s077gqmrBCvAFQV2A4z9MP3vBNc/cQC0GrT90KazBrD2nQNCG
i75iVabB9QLrQJjShL+N0a3BMZHnQHBhTL+2GHvBXuvuQO/1sz8zxIXBLdEKQQR9YD9dn2rBBjy0
QAI3iD+ivafBhDn4QJeEmT7uKK/B0HHCQCcSqb9HcKnBiafhQB+nDUE/u6DBTILVQGyNCcCJG3vB
dwrjQK0jF0B0MI7BNOr7QPQkgcC5vJXBoCPoQC7vosC6ao7BOG72QBgjLcBOvo/BEvGsQHJb/EB+
3onBfwrAQNZ0v0CEG5bBeuOOQPkp3kAtxoPBrRjIQIMcisCOkofBe0WgQDjaokBu2o/B8IUaQblz
oj9vXlnBi78sQEHgS8BU14rBXJKWQKaZC0DaaqTBJHmcQHnIhMC5MY3BR7mKQIzGgUBQL5fB1p6r
QPJKREAN15vB1mrcQDpmQMAnLIbBsQnPQPWb40Ahe4/BWp67QISSDUBeK5PBs1d8QHxMvUA9EovB
GV7BQE79IcCra2vBND77QH0AUkAxiJDBZsABQfREEUHdRI3BfWwMQZmy4kCatZjB5WJpQGZyl0Aa
nJ/BLauBQPSfUMD+EIfBRYUPQYjoEj/FaLPBe1u1QGpcJsD7RKjBNBH4QI2CAEEIAJXBO/euQPib
KUGCm7nBjUmmQASaOUE2gafB2M3XQOm0B0FA3LvBYkvGQLG6J0HRo5fBsOf3QB6K60D0/avB9IDG
QGfwM76t4ovBJNYFQTQnjr9AEl7BhkoNQQVKMECRiXvBN8bmQPQhGEBSPa3BT16IQPCm+74t3qLB
Xfn/QKQ47L+vJbDBcwIPQTXzh8ALGZfBFhHrQMougMDAdZ3BO8vXQOy9u8AMI5PBMGYAQTzkscAv
X4nBhOkKQWSRE8ARX43B4uTlQP+C/L/Z15TBVlWaQB5FB0Hsy4/B8+i7QKFSCUGRLYTBDcTbQMMO
rEA7iJjBs/qvQI8dzEAaRZ3Bgp6gQHKjzkCieXrB/idoQEKm8EANb4DBGrDDQMczmsDBpX/B/dOx
QGrnkUDbgonBp9MqQRMegD8FbF7B3JsZQaetFkDOo1bBw5IWQTH2PD9ieErBlCUIQAtoH8DXx4XB
/1QsQDLONMCwJ5PB6F4PQBvlhcAJfIrBL+qOQDIEM0D5c6vBo+ZxQMTb3z/nJ6HBznShQOm4bsDC
O5XBAsuMQLsupMAB3o3BdU9nQCDoXkBKXpLBxiTGQIxdaEAOd5/Bbb2oQFHbuz8Dq5DBlLxUQNA0
qkDY+4bB2QxcQO/Ey0B99JDBdLNOQOcLg0ClJqTBO5y8QI7eIUEtjLLBWR/UQMzODkEE4bPB55u3
QL/PKkHBRajBWKDmQGitBEGE7KrBtBHKQMe2IEHLUp/BIincQDRY5z1cloXB47ABQUiI0b5qgGrB
FpcFQSoc5D8wHHvB9G7cQMABrT8r96vBipemQO3bjb6tYKbBR0PqQOKWhL/r9K3B7TznQMR4TL9J
63rBykHuQJrvsz9QsIXBq4YKQbBeYj+UdmrB59GzQG+7hz8JlKfBBbD3QG3Lmj7mG6/BUZrBQHhJ
qb8vpanBmMzhQBKsDUHRm6DBsc7VQFsfCsA9CHvBVojiQHuqFkB8K47Bz5j8QKFRf8CB4ZXBYgzp
QMYcosDjso7BSSH1QAF5KsDc94/BTLCtQKEe/ED5konBSCPAQO2Av0BvCpbBKMWOQGgE3kAWuYPB
UeLIQCEkisD1sYfB17SfQFo9o0BU6I/Bd0IaQdi7oz96P1nBieItQPA0TMB/wIrBcgeWQHIeC0Cj
QKTBMeWcQE1FhcBFKY3BSyiKQERRgkAkR5fB/v6qQP2ARECvv5vBC5TcQBL0P8D0PYbBiXLPQEZp
40DnWI/BwaK6QO+XDkA89JLB8aJ7QHIwvkCWQIvBOs7CQFNCJMCvKWvBd3z7QFl4T0ADzJDBmukB
QRk7EUEcKY3BjpUMQTW24kAno5jB+dppQLkCmEC605/BpcOBQJ1qVMA0uobBwTsPQfxuFD98XbPB
TTS0QK9+JsBKuajB62D4QE16AEED5ZTBg2uuQFOgKUGiZ7nBiPbXQBj3B0EgwbvB95mlQOJrOUEw
Q6fBRoL4QPAP7EDz8KvBXA/GQOqOJ0EfdJfBrMrFQK3fNb7iv4vB27cFQahejb/r513BWuMMQfyx
MEC0bXvBwYvmQForGEC556zBn66HQGh6/77f8aLBFCP/QIm667/GYLDBS4UPQR9mhcBo/ZbBKqLs
QAWDfsAnuZ3BONDYQJilusDNh5PBiu4AQfRNscAIv4nBMPQJQZQJDcD+zI3B+sziQJ0l/L8pCJXB
M5qbQMSyB0GlYo/Bdwa9QHqyCEFitIPB36zbQCu9q0DhaZjB5oywQL1+zEA/O53Be+GfQDaTzUBe
cnrBxFNoQP+58EDVW4DBHCHFQCijmsDY9H/BKrqwQF8mkkCKf4nB8o8qQbPGgT/3V17Bi00ZQZRO
F0CVg1bBTF8WQdpPPz8pV0rB5bcIQKQuIsCPb4XBSrIvQONzMMAI1pLBpJgPQHTahcA8EovBdRSO
QCIfMkDJTavBuidxQGZa3j987qDB+SWhQJWJbcDfG5XBDfSNQB/0pMC4Bo7BVSllQDy+YEDuhpLB
n7fFQODaZ0DWZJ/ByCenQK+UwT8MN5DBni5SQGthq0DVX4fBaFxdQDh9zUAiLJHBuDdPQNmkg0DN
YaTB

>  <OMEGA_E>  (178) 
wAp3PSA+bz0=

>  <OMEGA_NBR>  (178) 
      6218

$$$$
50162114
     RDKit          3D

 88 92  0  0  1  0  0  0  0  0999 V2000
    5.7536   10.7205  -20.9806 C   0  0  0  0  0  0  0  0  0  0  0  0
    6.3345   10.0782  -19.8712 C   0  0  0  0  0  0  0  0  0  0  0  0
    5.8846   10.1613  -22.2670 C   0  0  0  0  0  0  0  0  0  0  0  0
    6.9019    0.1165  -16.7104 C   0  0  0  0  0  0  0  0  0  0  0  0
    8.1435   -0.4028  -14.6763 C   0  0  0  0  0  0  0  0  0  0  0  0
    8.3797    1.7867  -15.7202 C   0  0  0  0  0  0  0  0  0  0  0  0
    6.8825    1.3244  -21.5187 C   0  0  0  0  0  0  0  0  0  0  0  0
    5.1798   -0.2813  -20.8154 C   0  0  0  0  0  0  0  0  0  0  0  0
    7.2925   -1.0692  -21.7437 C   0  0  0  0  0  0  0  0  0  0  0  0
    7.1715    8.3091  -21.3336 C   0  0  0  0  0  0  0  0  0  0  0  0
    7.2538   -0.7929  -15.6934 C   0  0  0  0  0  0  0  0  0  0  0  0
    7.4657    1.4109  -16.7291 C   0  0  0  0  0  0  0  0  0  0  0  0
    8.6982    0.8896  -14.6818 C   0  0  0  0  0  0  0  0  0  0  0  0
    5.6078    1.0506  -20.9756 C   0  0  0  0  0  0  0  0  0  0  0  0
    7.7267    0.2637  -21.8955 C   0  0  0  0  0  0  0  0  0  0  0  0
    6.0158   -1.3388  -21.2094 C   0  0  0  0  0  0  0  0  0  0  0  0
    7.0505    8.8746  -20.0442 C   0  0  0  0  0  0  0  0  0  0  0  0
    6.5954    8.9573  -22.4442 C   0  0  0  0  0  0  0  0  0  0  0  0
    6.6937   -2.1467  -15.6832 C   0  0  0  0  0  0  0  0  0  0  0  0
    7.0877    2.3628  -17.7859 C   0  0  0  0  0  0  0  0  0  0  0  0
    7.8362   -4.0370  -18.7249 C   0  0  0  0  0  0  0  0  0  0  0  0
    7.2359   -5.0900  -17.7957 C   0  0  0  0  0  0  0  0  0  0  0  0
    7.6884   -2.7064  -17.9715 C   0  0  0  0  0  0  0  0  0  0  0  0
    5.4077    7.8685  -17.2123 C   0  0  0  0  0  0  0  0  0  0  0  0
    5.9999    5.9888  -18.7750 C   0  0  0  0  0  0  0  0  0  0  0  0
    4.4604    6.9167  -16.4720 C   0  0  0  0  0  0  0  0  0  0  0  0
    6.2460   -4.3120  -16.9301 C   0  0  2  0  0  0  0  0  0  0  0  0
    5.0035    5.0881  -18.0068 C   0  0  2  0  0  0  0  0  0  0  0  0
    9.6876    1.2880  -13.6119 C   0  0  0  0  0  0  0  0  0  0  0  0
    2.6870   -3.1885  -17.2956 C   0  0  0  0  0  0  0  0  0  0  0  0
    4.6922    2.1771  -20.5647 C   0  0  0  0  0  0  0  0  0  0  0  0
    4.8737   -4.1508  -17.6149 C   0  0  0  0  0  0  0  0  0  0  0  0
    4.3311    4.0631  -18.9310 C   0  0  2  0  0  0  0  0  0  0  0  0
    5.3569    3.0655  -19.4990 C   0  0  1  0  0  0  0  0  0  0  0  0
    6.8804   -2.9993  -16.7694 N   0  0  0  0  0  0  0  0  0  0  0  0
    6.4718    7.1032  -17.9251 N   0  0  0  0  0  0  0  0  0  0  0  0
    5.8531    2.2147  -18.4063 N   0  0  0  0  0  0  0  0  0  0  0  0
    3.9380    5.9098  -17.4052 N   0  0  0  0  0  0  0  0  0  0  0  0
    6.0996   -2.5372  -14.6843 O   0  0  0  0  0  0  0  0  0  0  0  0
    7.8463    3.2773  -18.0892 O   0  0  0  0  0  0  0  0  0  0  0  0
    8.1140    9.0640  -17.6152 O   0  0  0  0  0  0  0  0  0  0  0  0
    8.7775    7.0920  -19.0794 O   0  0  0  0  0  0  0  0  0  0  0  0
    3.6586    4.7471  -19.9911 O   0  0  0  0  0  0  0  0  0  0  0  0
    4.0431   -3.2686  -16.8332 O   0  0  0  0  0  0  0  0  0  0  0  0
    8.9487    0.5257  -22.4116 F   0  0  0  0  0  0  0  0  0  0  0  0
    5.5841   -2.6123  -21.0832 F   0  0  0  0  0  0  0  0  0  0  0  0
    7.7547    8.0319  -18.5972 S   0  0  0  0  0  0  0  0  0  0  0  0
    6.7619    8.2700  -24.0407 Cl  0  0  0  0  0  0  0  0  0  0  0  0
    5.2073   11.6423  -20.8457 H   0  0  0  0  0  0  0  0  0  0  0  0
    6.2321   10.5074  -18.8855 H   0  0  0  0  0  0  0  0  0  0  0  0
    5.4400   10.6557  -23.1180 H   0  0  0  0  0  0  0  0  0  0  0  0
    6.1997   -0.1769  -17.4767 H   0  0  0  0  0  0  0  0  0  0  0  0
    8.4012   -1.0968  -13.8899 H   0  0  0  0  0  0  0  0  0  0  0  0
    8.8360    2.7653  -15.7448 H   0  0  0  0  0  0  0  0  0  0  0  0
    7.2087    2.3463  -21.6447 H   0  0  0  0  0  0  0  0  0  0  0  0
    4.2093   -0.4895  -20.3899 H   0  0  0  0  0  0  0  0  0  0  0  0
    7.9380   -1.8840  -22.0368 H   0  0  0  0  0  0  0  0  0  0  0  0
    7.7056    7.3801  -21.4677 H   0  0  0  0  0  0  0  0  0  0  0  0
    8.8967   -4.2542  -18.9204 H   0  0  0  0  0  0  0  0  0  0  0  0
    7.2869   -4.0045  -19.6774 H   0  0  0  0  0  0  0  0  0  0  0  0
    6.7185   -5.8699  -18.3738 H   0  0  0  0  0  0  0  0  0  0  0  0
    8.0173   -5.5518  -17.1743 H   0  0  0  0  0  0  0  0  0  0  0  0
    8.6769   -2.3207  -17.6816 H   0  0  0  0  0  0  0  0  0  0  0  0
    7.1767   -1.9655  -18.6034 H   0  0  0  0  0  0  0  0  0  0  0  0
    4.8321    8.4541  -17.9443 H   0  0  0  0  0  0  0  0  0  0  0  0
    5.8767    8.5486  -16.4860 H   0  0  0  0  0  0  0  0  0  0  0  0
    6.8640    5.3840  -19.0875 H   0  0  0  0  0  0  0  0  0  0  0  0
    5.5002    6.4012  -19.6639 H   0  0  0  0  0  0  0  0  0  0  0  0
    5.0079    6.4140  -15.6612 H   0  0  0  0  0  0  0  0  0  0  0  0
    3.6233    7.4909  -16.0482 H   0  0  0  0  0  0  0  0  0  0  0  0
    6.1222   -4.8106  -15.9574 H   0  0  0  0  0  0  0  0  0  0  0  0
    5.5490    4.5514  -17.2166 H   0  0  0  0  0  0  0  0  0  0  0  0
   10.7049    1.0230  -13.9354 H   0  0  0  0  0  0  0  0  0  0  0  0
    9.6277    2.3733  -13.4431 H   0  0  0  0  0  0  0  0  0  0  0  0
    9.4503    0.7580  -12.6776 H   0  0  0  0  0  0  0  0  0  0  0  0
    2.1196   -2.5001  -16.6519 H   0  0  0  0  0  0  0  0  0  0  0  0
    2.6740   -2.8168  -18.3308 H   0  0  0  0  0  0  0  0  0  0  0  0
    2.2275   -4.1872  -17.2588 H   0  0  0  0  0  0  0  0  0  0  0  0
    4.4562    2.7894  -21.4475 H   0  0  0  0  0  0  0  0  0  0  0  0
    3.7639    1.7545  -20.1528 H   0  0  0  0  0  0  0  0  0  0  0  0
    5.0138   -3.7264  -18.6200 H   0  0  0  0  0  0  0  0  0  0  0  0
    4.3876   -5.1342  -17.6967 H   0  0  0  0  0  0  0  0  0  0  0  0
    3.5984    3.4970  -18.3372 H   0  0  0  0  0  0  0  0  0  0  0  0
    6.1891    3.6208  -19.9563 H   0  0  0  0  0  0  0  0  0  0  0  0
    5.2590    1.4764  -18.0869 H   0  0  0  0  0  0  0  0  0  0  0  0
    3.3110    5.3087  -16.9098 H   0  0  0  0  0  0  0  0  0  0  0  0
    3.4427    6.3778  -18.1371 H   0  0  0  0  0  0  0  0  0  0  0  0
    3.2423    4.1135  -20.5635 H   0  0  0  0  0  0  0  0  0  0  0  0
  1  2  2  0
  1  3  1  0
  2 17  1  0
  3 18  2  0
  4 11  2  0
  4 12  1  0
  5 11  1  0
  5 13  2  0
  6 12  2  0
  6 13  1  0
  7 14  2  0
  7 15  1  0
  8 14  1  0
  8 16  2  0
  9 15  2  0
  9 16  1  0
 10 17  2  0
 10 18  1  0
 11 19  1  0
 12 20  1  0
 13 29  1  0
 14 31  1  0
 15 45  1  0
 16 46  1  0
 17 47  1  0
 18 48  1  0
 19 35  1  0
 19 39  2  0
 20 37  1  0
 20 40  2  0
 21 22  1  0
 21 23  1  0
 22 27  1  0
 23 35  1  0
 24 26  1  0
 24 36  1  0
 25 28  1  0
 25 36  1  0
 26 38  1  0
 27 32  1  0
 27 35  1  0
 28 33  1  0
 28 38  1  0
 30 44  1  0
 31 34  1  0
 32 44  1  0
 33 34  1  0
 33 43  1  0
 34 37  1  0
 36 47  1  0
 41 47  2  0
 42 47  2  0
  1 49  1  0
  2 50  1  0
  3 51  1  0
  4 52  1  0
  5 53  1  0
  6 54  1  0
  7 55  1  0
  8 56  1  0
  9 57  1  0
 10 58  1  0
 21 59  1  0
 21 60  1  0
 22 61  1  0
 22 62  1  0
 23 63  1  0
 23 64  1  0
 24 65  1  0
 24 66  1  0
 25 67  1  0
 25 68  1  0
 26 69  1  0
 26 70  1  0
 27 71  1  1
 28 72  1  1
 29 73  1  0
 29 74  1  0
 29 75  1  0
 30 76  1  0
 30 77  1  0
 30 78  1  0
 31 79  1  0
 31 80  1  0
 32 81  1  0
 32 82  1  0
 33 83  1  1
 34 84  1  6
 37 85  1  0
 38 86  1  0
 38 87  1  0
 43 88  1  0
M  CHG  1  38   1
M  END
>  <OMEGA_C>  (179) 
ux24QDKHK0FO2KfBOLTKQG9AIUFD+J7Bz068QNqUIkHBIrLBJNzcQGSW7j3UroXB+ksCQY07zr4U
0mrBXhMGQe2z5D/IhXvBVj3cQASHqT9dJqzBKMGlQIACkL4AhqbB4FvpQMfciL8P863BTX3lQB3y
BEEmq6rBGR/oQOr6Sr8+GHvBHOfuQJWXtD9G1YXBACwLQbq8Yz+s6GrB03KzQKB4hj/yzafBuUD3
QIcChz7oKa/Bk4HAQD1cq7/RrKnBpZ3hQHn+DUGNWqDB5w3TQCJRD0G9jbPBIDPWQG5jCcBh7nrB
uc7iQNg4F0BwSY7BP8L6QGUvgcCVzJXBkIznQFLhosCiXY7BMwf2QPA0LcCwxY/BlQutQPLK+0DX
sonBO/+/QB6kv0AqM5bBNLuOQG1V3UCzxoPB597HQET8icDVcIfBnBygQB3SokDaDZDBNgAbQV3d
pD85ylnBHvcrQOgPTMBbXYrBQSaWQAtWC0BphKTB//SbQEzThMBd64zBQJiKQBkFgkDCcpfBIGyr
QGMwREAG/pvBNSzcQKb0P8DEJ4bB+RjPQAdN40CBZo/BRky7QJq9DUAZQJPB7gh8QGodvUDdPYvB
GDDDQCphIsC48mrBIxX7QDS/UUCWtpDB+NIBQTYGEUHZ64zBnHAMQbfx4kCVopjBTidqQEPol0C2
7Z/B+WCBQH8xUcBpqobBDi4PQZKWBj/7SrPB/rCyQLMvJ8BpqqjB0Sb4QKuCAEESx5TB5GHYQAlS
BEFYU8DBOKKmQO9GOkEUxKbB/mzHQF8eKEFxFZfBUhSuQMB9KkG68bjBT2TGQMsoNb5c0IvBL2sG
Qb1ijL/vPF7BZGANQbT6MECG6nvBVa3mQEkpFkBLKK3BY7KGQKSd+r6FHqPBGAT+QLMl8b9US7DB
jZT2QGQp7EDwvavB1FgOQZAiiMD8XJfBpS7pQL8kgMBKa53BK/7WQNvVu8B+/ZLB0UYAQZeoscD3
ZInBqNQKQWOGFMDnc43BPqflQCqV+7/F05TBQ6CaQBVEB0HjjY/B+w28QBfHCEFq44PBrKXbQBxK
rEA+s5jBswGwQHbWzEC8T53Bn0CgQBc/zUAtlHrBf+RnQJm170C0YoDBAOnDQEPwmcB8UX/BMJGx
QP6kkUCeu4nBYkcrQR3wgj+J917B9QoaQa7kF0D8FlfBbjQXQdkNQj+E10rBSagHQJ4BIMAjN4XB
ZCMrQApHNMCHpZLBaY8OQOf9hcAAEorBZ5mOQN6FMkB9lKvB9+JwQAGT4D/8OKHBQXGgQPB8bsDO
9ZTBWmeMQFVLpMDKko3BkExmQELOX0CIspLBHQ3GQL+7Z0B4pp/Bf0moQEH8vD/fsZDB++dTQIvg
qUA/R4fBEVVcQFMXzECuGJHBq4FPQHahg0D8gaTB

>  <OMEGA_E>  (179) 
oM09PQ==

>  <OMEGA_NBR>  (179) 
      7980

$$$$
50162118
     RDKit          3D

 80 83  0  0  1  0  0  0  0  0999 V2000
    5.6534   10.8097  -20.7816 C   0  0  0  0  0  0  0  0  0  0  0  0
    5.7171   10.2967  -22.0915 C   0  0  0  0  0  0  0  0  0  0  0  0
    6.2865   10.1268  -19.7273 C   0  0  0  0  0  0  0  0  0  0  0  0
    6.8672    1.2908  -21.6390 C   0  0  0  0  0  0  0  0  0  0  0  0
    5.2827   -0.3110  -20.6933 C   0  0  0  0  0  0  0  0  0  0  0  0
    7.0471    8.4122  -21.2915 C   0  0  0  0  0  0  0  0  0  0  0  0
    7.3657   -1.0971  -21.6901 C   0  0  0  0  0  0  0  0  0  0  0  0
    6.3976    9.0864  -22.3460 C   0  0  0  0  0  0  0  0  0  0  0  0
    5.6384    1.0190  -21.0002 C   0  0  0  0  0  0  0  0  0  0  0  0
    7.7286    0.2328  -21.9854 C   0  0  0  0  0  0  0  0  0  0  0  0
    6.1452   -1.3675  -21.0388 C   0  0  0  0  0  0  0  0  0  0  0  0
    6.9956    8.9336  -19.9808 C   0  0  0  0  0  0  0  0  0  0  0  0
    8.4403    0.2848  -14.9175 C   0  0  0  0  0  0  0  0  0  0  0  0
    6.9321    2.3500  -17.6631 C   0  0  0  0  0  0  0  0  0  0  0  0
    8.1811    1.6788  -15.4938 C   0  0  0  0  0  0  0  0  0  0  0  0
    5.4361    7.8366  -17.2007 C   0  0  0  0  0  0  0  0  0  0  0  0
    7.3046    0.0353  -16.9375 C   0  0  0  0  0  0  0  0  0  0  0  0
    6.0357    5.9650  -18.7765 C   0  0  0  0  0  0  0  0  0  0  0  0
    4.4932    6.8787  -16.4664 C   0  0  0  0  0  0  0  0  0  0  0  0
    7.0340    1.4356  -16.4529 C   0  0  2  0  0  0  0  0  0  0  0  0
    5.0293    5.0649  -18.0224 C   0  0  2  0  0  0  0  0  0  0  0  0
    6.4844    8.5453  -23.7563 C   0  0  0  0  0  0  0  0  0  0  0  0
    5.6404   -4.4015  -17.0544 C   0  0  0  0  0  0  0  0  0  0  0  0
    4.7202    2.1546  -20.6062 C   0  0  0  0  0  0  0  0  0  0  0  0
    6.3461   -3.3203  -16.2261 C   0  0  0  0  0  0  0  0  0  0  0  0
    7.6802   -2.9310  -16.8888 C   0  0  0  0  0  0  0  0  0  0  0  0
    8.4965   -1.9893  -15.9710 C   0  0  0  0  0  0  0  0  0  0  0  0
    4.3558    4.0510  -18.9641 C   0  0  2  0  0  0  0  0  0  0  0  0
    5.3753    3.0411  -19.5280 C   0  0  1  0  0  0  0  0  0  0  0  0
    7.8741   -0.6680  -15.7883 N   0  0  0  0  0  0  0  0  0  0  0  0
    6.5023    7.0820  -17.9230 N   0  0  0  0  0  0  0  0  0  0  0  0
    5.7894    2.1868  -18.4217 N   0  0  0  0  0  0  0  0  0  0  0  0
    3.9671    5.8836  -17.4105 N   0  0  0  0  0  0  0  0  0  0  0  0
    9.1493    0.0617  -13.9437 O   0  0  0  0  0  0  0  0  0  0  0  0
    7.8232    3.1353  -17.9709 O   0  0  0  0  0  0  0  0  0  0  0  0
    8.1620    9.0247  -17.5960 O   0  0  0  0  0  0  0  0  0  0  0  0
    8.7617    7.1160  -19.1698 O   0  0  0  0  0  0  0  0  0  0  0  0
    3.6944    4.7415  -20.0230 O   0  0  0  0  0  0  0  0  0  0  0  0
    8.9057    0.4940  -22.5973 F   0  0  0  0  0  0  0  0  0  0  0  0
    5.8056   -2.6403  -20.7347 F   0  0  0  0  0  0  0  0  0  0  0  0
    7.7617    8.0343  -18.6048 S   0  0  0  0  0  0  0  0  0  0  0  0
    5.1185   11.7275  -20.5865 H   0  0  0  0  0  0  0  0  0  0  0  0
    5.2444   10.8302  -22.9028 H   0  0  0  0  0  0  0  0  0  0  0  0
    6.2298   10.5166  -18.7217 H   0  0  0  0  0  0  0  0  0  0  0  0
    7.1465    2.3100  -21.8619 H   0  0  0  0  0  0  0  0  0  0  0  0
    4.3482   -0.5183  -20.1931 H   0  0  0  0  0  0  0  0  0  0  0  0
    7.5845    7.4960  -21.4868 H   0  0  0  0  0  0  0  0  0  0  0  0
    8.0234   -1.9092  -21.9629 H   0  0  0  0  0  0  0  0  0  0  0  0
    7.8935    2.3874  -14.7032 H   0  0  0  0  0  0  0  0  0  0  0  0
    9.0667    2.0599  -16.0233 H   0  0  0  0  0  0  0  0  0  0  0  0
    4.8571    8.4265  -17.9265 H   0  0  0  0  0  0  0  0  0  0  0  0
    5.9046    8.5121  -16.4697 H   0  0  0  0  0  0  0  0  0  0  0  0
    6.3707   -0.4477  -17.2607 H   0  0  0  0  0  0  0  0  0  0  0  0
    8.0191    0.0485  -17.7738 H   0  0  0  0  0  0  0  0  0  0  0  0
    6.9023    5.3586  -19.0788 H   0  0  0  0  0  0  0  0  0  0  0  0
    5.5469    6.3776  -19.6714 H   0  0  0  0  0  0  0  0  0  0  0  0
    5.0442    6.3663  -15.6640 H   0  0  0  0  0  0  0  0  0  0  0  0
    3.6583    7.4482  -16.0321 H   0  0  0  0  0  0  0  0  0  0  0  0
    6.0836    1.4562  -15.8994 H   0  0  0  0  0  0  0  0  0  0  0  0
    5.5691    4.5143  -17.2379 H   0  0  0  0  0  0  0  0  0  0  0  0
    7.3729    8.9601  -24.2547 H   0  0  0  0  0  0  0  0  0  0  0  0
    6.5608    7.4484  -23.7240 H   0  0  0  0  0  0  0  0  0  0  0  0
    5.5822    8.8337  -24.3157 H   0  0  0  0  0  0  0  0  0  0  0  0
    4.6895   -4.6715  -16.5718 H   0  0  0  0  0  0  0  0  0  0  0  0
    5.4420   -4.0172  -18.0658 H   0  0  0  0  0  0  0  0  0  0  0  0
    6.2838   -5.2913  -17.1199 H   0  0  0  0  0  0  0  0  0  0  0  0
    4.5034    2.7673  -21.4937 H   0  0  0  0  0  0  0  0  0  0  0  0
    3.7822    1.7387  -20.2097 H   0  0  0  0  0  0  0  0  0  0  0  0
    5.6999   -2.4326  -16.1609 H   0  0  0  0  0  0  0  0  0  0  0  0
    6.5416   -3.7067  -15.2149 H   0  0  0  0  0  0  0  0  0  0  0  0
    8.2656   -3.8418  -17.0829 H   0  0  0  0  0  0  0  0  0  0  0  0
    7.4741   -2.4179  -17.8397 H   0  0  0  0  0  0  0  0  0  0  0  0
    8.5990   -2.4659  -14.9849 H   0  0  0  0  0  0  0  0  0  0  0  0
    9.4929   -1.8472  -16.4149 H   0  0  0  0  0  0  0  0  0  0  0  0
    3.6141    3.4883  -18.3783 H   0  0  0  0  0  0  0  0  0  0  0  0
    6.2348    3.5774  -19.9566 H   0  0  0  0  0  0  0  0  0  0  0  0
    5.1949    1.4162  -18.1922 H   0  0  0  0  0  0  0  0  0  0  0  0
    3.3386    5.2790  -16.9212 H   0  0  0  0  0  0  0  0  0  0  0  0
    3.4726    6.3613  -18.1366 H   0  0  0  0  0  0  0  0  0  0  0  0
    3.2802    4.1123  -20.6018 H   0  0  0  0  0  0  0  0  0  0  0  0
  1  2  2  0
  1  3  1  0
  2  8  1  0
  3 12  2  0
  4  9  2  0
  4 10  1  0
  5  9  1  0
  5 11  2  0
  6  8  2  0
  6 12  1  0
  7 10  2  0
  7 11  1  0
  8 22  1  0
  9 24  1  0
 10 39  1  0
 11 40  1  0
 12 41  1  0
 13 15  1  0
 13 30  1  0
 13 34  2  0
 14 20  1  0
 14 32  1  0
 14 35  2  0
 15 20  1  0
 16 19  1  0
 16 31  1  0
 17 20  1  0
 17 30  1  0
 18 21  1  0
 18 31  1  0
 19 33  1  0
 21 28  1  0
 21 33  1  0
 23 25  1  0
 24 29  1  0
 25 26  1  0
 26 27  1  0
 27 30  1  0
 28 29  1  0
 28 38  1  0
 29 32  1  0
 31 41  1  0
 36 41  2  0
 37 41  2  0
  1 42  1  0
  2 43  1  0
  3 44  1  0
  4 45  1  0
  5 46  1  0
  6 47  1  0
  7 48  1  0
 15 49  1  0
 15 50  1  0
 16 51  1  0
 16 52  1  0
 17 53  1  0
 17 54  1  0
 18 55  1  0
 18 56  1  0
 19 57  1  0
 19 58  1  0
 20 59  1  1
 21 60  1  1
 22 61  1  0
 22 62  1  0
 22 63  1  0
 23 64  1  0
 23 65  1  0
 23 66  1  0
 24 67  1  0
 24 68  1  0
 25 69  1  0
 25 70  1  0
 26 71  1  0
 26 72  1  0
 27 73  1  0
 27 74  1  0
 28 75  1  1
 29 76  1  6
 32 77  1  0
 33 78  1  0
 33 79  1  0
 38 80  1  0
M  CHG  1  33   1
M  END
>  <OMEGA_C>  (180) 
1Oi0QJv0LEG5QKbBUvK2QCm/JEFMu7DBWivJQGcHIkF80Z3BJMDbQIw6pT+iHK3BhgupQDA5n77e
i6XB+oHhQFaYBkHtVKrBL7TrQEltjL9Gha3BDbnMQOFhEUGoxLLBJW60QHFugj9kAKjBUFD3QD5b
bj4v4q/BGKXEQEELr7+OT6jB5tvfQCHwDkG42J/BgAsHQZnSkT5Frm7BwNPdQL1lFkAZTo3B2uUC
Qc7h1j925nfBV/StQKTF+kDvmonBZb/pQMLJED0OgIfBTyTBQAXhvkBeNpbBGsiPQPId3EAju4PB
UxbhQLfCtz+Hn4PBCvCgQKMTokDYLZDB9X/PQIi5CEHqDL7BS360QELZjMBwb4jBIQyXQIvlCUB2
2aTBphPLQIiAVMAaz4HBKsT1QNKUO8A8HIfByvEHQeeh/r83iX/BEGOLQNChgUCOtpfBiwKsQBqi
QkBxOZzBUvj7QJX/Kr8CnXzB1xLQQBSg4kBYYo/BB0O5QJr0C0CRX5PBK+V9QKNGvECjSIvBZGMS
QZTgfD1qGV/B4Vf6QI2pSEB0xI/Bs5cCQfxkEEGaxIzB0S8MQSO240CpW5nB/nBsQD26l0AlL6DB
0n0OQSTn/D43x7TBZ8e5QIX6KMCR4KXB3l/4QKSMAEGU1pTBI8ujQKejO0EhsaTBxdGnQFtILUH6
OLfBNlrHQBlEKEEHxpXB56/kQJfXE0AU5a7BeSSLQNquBL9si6HBVbTyQBbf70AG5avBtV8AQQFg
9L8ItK/BjZf8QK/LGEAcQGvBWxERQcPUA0DJL4DBgm2bQAjTBkFvaY/Bm/K8QH0xCEEHwoPBmdzL
QGI45b7jFYrBEE4AQaScRj3MMI7Bfd/cQOV5q0BkoZjB3H+xQFgVzEAMX53B/mmhQIy4y0Cfn3rB
ByJqQLZX7kCkQYDBA63CQPlkuj/GY37BsjWyQPN0kEAi54nBH+/rQHVcD0GkCcLBrfHRQINZ7kC9
yr3BhKGyQN1WDUGVhsLBZhCWQMt8lcAek4TBKyWuQBqNgMDRhpDB1RTJQKVSqcCY9YjBIByQQJIb
MUAI86vBQhByQH+O3j95raHBLWW2QDWwG8BsSYHB11TRQEs7bcBlcHPBDEAEQYPfdcDQqYjB1Cvv
QBy/GsDJt47BkZUJQd3RHcBHwm/B8+IXQZ9v7L+pUYPB401nQHRAX0C1BpPBnoPHQB30ZEArp5/B
gTymQL9FtT+NiZHBeqtVQIDtqECeXofBzz9eQPGPy0DPF5HBO+5RQNiXg0CN0KTBB9TSQEzMDkFV
GbPBM+O7QKLsIUF5ZbHBCSHmQK4yBEG9YarB9I7aQCSIpT/y+KzBh0OpQJMFoL5n46TBqw/LQEu5
H0E0TZ7BI0jrQLCBi7/7Oq3Bunu4QAODKkGN+6bB3eyzQC4igj+3j6fBnjr2QAh0dT7SyK/BctvE
QDiurr9wwafB/FbiQJnIDEFu9J/BWw4JQeKJgz7dxHHB8JTiQOs6HkDVJY7BBjkJQeKB0D9E1nzB
z32sQEL6+kBtkInBs+XgQHToTT4r6YbB1ym/QEitvkAt9ZXBpl6NQFQI3UAVt4PBpE3nQCBe0z++
+YPB3LGeQOBGokCW/I/BOB+fQDCnPkFF8aTBap3UQCJyjcACJ43BrzeWQFcvCUBecaTBAPvLQJna
hMALNIHBOIrKQDVEKcB+c33BEZn3QCaxAMBE+X3BHvmJQBDSgUCropfBUZGrQDqeRUBFSpzBuSr0
QODnDb9saHzBH4jOQPrA4UBzGI/BMtO7QM45E0CGXpPBajR5QGjJvECUNYvBmGwUQWgfhb2pqGLB
aMn+QMQ5TkAxZpHBsSUCQZ+oD0HSj4zBD0oMQYS630A7PpjBMZBoQGS8l0D0DaDBRKwNQQItAT9k
67TBTYm6QIXXKMAjN6XBN2D4QCpq/kCWaZTBuZ7VQElFCEF9EbvBveysQNUAKkEhDrjBiML3QHoe
60ClqqvBjuHiQCL0E0D9867BEe2LQK/CBb9ApKDBLXHHQGkEJkFWTpbBAy4AQRgH87+deK/BmI8K
QVJvHEA9GXHBM2UWQRv42T+BOYTBRLiaQLPrBkHehI/BJ3a7QHFUCEGUuoPBi5i+QCFu/7wRlYfB
lerwQKYk6rw/h47BAZnaQNfzqkClbJjBWq6vQHhXzECUFZ3BVUaeQA/bzEAOSHrBD0llQOza70Cc
c4DBUYfOQOdZ+j/zb3zBMpivQL20kECQo4nBpQx7QOR5OkEXWqPBDICsQLYSR0Hk+Z3Bp9ygQLYY
SUEuA6zBB2bVQFYqsMCMlo7BlQe7QBfefcBv/JHBlJTzQDi4fsC2aY/BDraNQJPlLUDnpKvBPR1y
QNkU3D8g3qDBWhCtQLw4k8CNBn7BWZ3lQMylk8Ac4XjBjku2QMlXCcCgt4TBe7C8QDD6H8A7cG3B
jUAFQUcCGcAAbnDBMsUDQSC/EcCOiYbB24hlQJ6lXUAxB5PBM2PFQEz5aUDBLaDBIBmpQLyTxz8O
vZDBzsJQQEWoqUBkQ4fBAdhZQMfQy0CXFZHBlyNPQId4g0CCvqTBGAKzQOCaLUHjaabBv/60QHUf
JUGL1rDBvXzHQAP1IkEo7J3BrkTaQH74nD8je6zBGgGpQL4+sb7G+qPBlPvfQFJEB0ESRqrB+MDp
QMQJlb/Sr6zBmg7LQD7MEUHVxLLBDBe0QLpgeT+Q0abB1xz1QFUoIT4XZK/B48fDQJoMtb9K8abB
0lTeQC7dD0Fe15/BvCIGQe0lBb5UZXHBm2TjQIgkEECk3Y3BWWIJQRJWlz+pxX3B9VGsQBGk/EB4
w4nBOYbYQNirv7xqSIbBvFvBQBELwEBDCJbBMEyOQFj43UA14IPB2tjmQDHPsj+xxoPBLdegQLyJ
o0B9CZDBh0HOQOMBCUF4BL7BG6vvQPO1k8D7TZHB3S+XQIaZB0AfvqPBVQj2QIADVsCcpYrBO6PO
QGS8RcBVdYPBGDzZQO69B8DvVnTBvg6MQCWZgkCFg5fBAQutQDzTQ0B3oZvB/LjrQBIJWb8lzHvB
FibPQNGs5EDfU4/BdfO6QEaKEUCvapLBe4l8QEW1vUBCZ4vBY8MPQQL57L7GLGHBnaEAQehTO0Cf
QJHBkpUBQbnNEUGMtIzBBM4LQdqU5kCnMZnBSGBvQGTil0BTP6DB1fQMQYh4zT4durTBTyy5QO5v
K8BWNKTBJhL3QCvKAUHWwpTB+8KhQBZJPEHn76TB+5ulQGBrLUFUXrfBxrjFQJBoKUFc65XBf+Pi
QDRHD0C4lK7BRP+LQLBmCb9yiZ/BAEvxQDk28UCNwKvBdSn+QCYu/r+tBK/BProNQZB4AEDm+HLB
CrwVQdOKiT+WGIXB9deZQIRtB0HrtY/BUqa6QIxtCUH484PBR2u1QDvsyb20DIbBYyDkQKy7qr5R
No7BWI3dQMS3rEBRIpjBw16yQM9UzEDRYJ3BBdSfQI0NzkCaunrBi2xmQNME8EBjhoDB4HzRQDZ4
6D+URnvBpbmxQJdpkkB5nInB66bqQFi6D0GF/MHBvQfRQJPy7kCesr3B+maxQKdsDUFgjMLBN/oF
Qb8JmcC7XpbBEkvrQHo7r8Cr7YvByi3TQMETkMB6ZJbBVP+OQORCLECL+KrBVJZzQKhl2z+JJKDB
YEsJQUV6XcBDloXBd3n6QNIqH8ASDZDBgey0QDLFKcC7WIjB3srDQJOIgcAwGIDBsZi7QLbd87+Z
fmvBtlXwQPIIJ8DPm2nBebFnQL0BYkC44ZLBvB7IQOgLZUD7a5/BsuGkQEUD2D/JBI/Beu9TQBlq
qkCIiIfBXqVdQN+azECGVpHBNs9VQIlNg0B41qTBiQCxQCaMMUGCj6TBhC2rQO8EKUH55K7BPS7J
QKo5JkFK75zBaaLbQMGnnz/SCa7BJqC1QDqclr4bOaLBW8rVQOHMCUHw+qnBdejzQEJJiL8VRKzB
BRy9QLj8FEEclrHBzN+5QJdPfT8CzqbBHWX4QDqcXj6n1bDB65zSQEXLqL8r7qTBoeTbQGdlEkFB
p5/BUWsGQT0VLr8xH3bBFaXcQFsj/j/Pe4zBWwIGQY9WSj8h5XzBoJutQAte/0DuForBaTrUQJ8S
1b6uDofBe/vAQLwLwkDeXJbBwOaPQGgJ4UBs7YPB91jfQDHrez/YMYPBnRahQOBBpUDuHZDBOoS3
QNjzC0FuvrzBKizPQH1vqcAga1DBf66aQHT2BUA/yaPBuyrTQGNEmcDKlWfBHSnbQBF1UcB4tGfB
UILhQD1/MMDKuX7BIBKMQLkSg0AndpfBWpqsQPSlP0BbuZrB8UToQBUDp7/shH7BUOjPQHro5kA0
xo/BCdm0QMy9CkAqMZHBGO59QEfiv0ABO4vBR+IUQbPRmb8Z3GvBgGv8QHGAJUCmrY/BZ7IDQfDO
EUFzXY3BMMEKQZQD6UD9DZvB0o10QEpCl0DCuKDBYRwMQW9C6j5W7LfBx2/OQGPjIsD6eaDB3H33
QPLlAkFSi5XBoeiiQB/GQEE+fqLBH/WYQKvSMUEsxbTBB23NQIC1LEEi/5TBXWzfQPHyDkDebbHB
4RGcQAyO+77jn5zBKQ7kQB8+9UC5D6zBHv4EQT0U7b9JY67B92gIQRZ/uT+5AW/BMGwSQQhSfj98
eITB+bGaQE2uCEEi/o/BCoi8QMDnCkHibYTBdlixQHwNEL+/LofBokrhQL/QF7//Go/BCdzcQPG0
rkDrtJjBFAWxQLhgzkAWk53BmO6hQFuY0UAY3HrBj0FqQJ1n80BKh4DBLv3IQAp6pD9WrXnBEc2y
QCaZlEAKwYnBabHRQL2dEUGj5sHBHRa4QBW99EAVY7zBq7KYQJROEUEKDMDBAnbJQDcrzMBce1DB
5/LsQEWCosDIsUfByEC0QAoumcC4gkjBi3WUQAnALUCY4KrBQSh5QKtt0T8lD6HB1BLuQJKXqcDZ
d2/BtmC1QFZDoMDJSHDBgH2/QNnPMMAMg2DBDAr4QMFkQ8CrRl7BBJT9QLD7T8B47YLBZufEQKNq
P8DYI4TBOplkQK01Z0C24ZLBl2LKQAkZXkA5d53BiNybQFLo2T+k243BrqZWQOvHrEDXGIfB8zRd
QJdOzkCUFZHBCPNaQLM9gkD0LqXBBunOQKaPDkEcy7PBqES3QIGCIUFqNbLBNE7jQHmWBEHZC6vB
d7jfQDKTuj+9g6zBHg2uQHRVYb6DmaXBZAvIQDBrIEG8K5/Bdp7xQK6/ab9spK3BlD+0QHONKkGJ
4qfBkn24QNuNkD+3kafB7Tn8QGEo3z7/jq/BFpfKQKCqnr/aoajB7fnfQFCiDUF+tKDB1EIGQQxp
2L6FKXXBnE3eQGVfD0A7mIzBizwEQd22iT/LM3rB1j6sQODj/UA/GIrBWLPnQFsySb5dxorB6wzB
QCt0v0BprpXBPsONQFdX4EAt84PBjkHiQMp3jD8hlITBHN2fQDICpEBqn4/B8CCaQCuAPkFx96XB
LqiVQKLrgcD7kobBiciZQGUnDkArRKTBI2y+QJkHXcAzw4HBy2ThQBAFVcBhcIrB78cDQTvoH8D4
VIbBNkWLQOAAg0BnH5fB8fCsQCD8RUAHSpvBPGX6QPF5kb+yJYPBMgLPQNmr5EDTWI/BUU24QKf4
DkAWS5LBcvR6QBYHv0D2LYvBk0QOQTxAZb+K9GTB8xj8QDDIP0AUro7BK8MBQXXNEUGGhY3BxxgM
Qbpr40D285jBS+JsQGximEC2xp/B4OYQQXDSPz+pTLTBO5XAQOUGIsAQrqbBu6b3QI/cAEEyHJXB
w2fRQPivB0EisrvB3XinQC8bKUGc47jBO271QDgk7EAWPqzBAtznQFp1H0Ay9q3B6CSQQL0U8b5G
w6HBHN3EQPQYJ0H2PZfBHrUDQfA22b/QA7DB9SIBQfis1D9MoWvBObMSQdisuj++EoHB9xiaQB6l
B0H1QJDBzJy6QCFzCkGXfITB4IzIQMZIEL/9oY3Bmjv9QNeHQ71IopHBHR7dQBqEq0Cqg5fBsJ6y
QCjjykB9Lp3BSQmfQGhE0UBwi3rBM5tlQIIm80CazYDBsrPEQEdUhT+Fo3/BnDSwQLD6kkAQGInB
p7lxQBIHOkFDKKTBz6enQGlqR0GgLJ/BVNaaQHiaSEGSK63B9wB6QD2ehMBnVIDBAuWJQBpgWsCe
DI3B+9WcQI7gocA9zInBA9SSQOHPNkCaPKvBk+Z3QNqO4T84YaHBEiO3QJwuHcAZEX3BCxTKQM9H
g8BXkHbBlKrsQCKvisAzoYzBl7zTQC55NcDKhpHBfs4KQahxQMAcun7B6NEPQdMlG8A1uYzB1N9m
QBvQYUA2fZLBvhTJQIe/aEDeTJ7B0UKiQGa+yD+3/o/BnVNSQNhjrEAjHofBS/tbQB8izUAtOpHB
iYNTQPrUg0BGZKTBkmu9QFUeFUGCobHBhACrQGH2KEHJ4q7BCdvVQBrICUG2DarBc/HbQIIuoT+M
+a3BqUa1QJ89lr5HZKLBbFHJQGMeJkE/9ZzBC4rzQFTsh797dKzBaUixQFGdMUE7kaTBofm5QC8z
fz/Bz6bBbYT4QGD7aD4H2bDBFebRQKAdqb/ZPKXBFgDcQGxREkHAtZ/BbRsGQSjLN78sMnbBv6/c
QPg1/T8kcYzBvxUGQZlSQT9bDn3B75ytQMN1/0BDHYrBBhfTQLSh1b4b5obBoebAQCsRwkAiXpbB
fNqPQKYz4UBG8YPBsFbfQBA6ej+/H4PBhQyhQHBUpUDqGZDBvD6cQCmLRkG0c6HBTQX+QAastMCw
45LBl8yaQJNTBkBAxaPBfhvpQN6MnsBrNYnB4bv2QCQ6XsDqhIjB9zTfQJJkMcAEcX7BEROMQAkV
g0BebZfB16usQNy4P0AJrprBeRTnQJ4Eqb9zUH7BuODPQEjr5kCmy4/B0uC0QNGVCkCnJ5HBhtZ9
QAr+v0AKO4vB/zIUQWLEoL+4o2vBuXv8QPIXJUDLnI/BL7oDQdfDEUFTao3B1b4KQbvP6EAQFJvB
8G50QBQ3l0DEsKDBfjsMQbb08D7X5LfBV5HMQBACJMCRL6HBaIP3QDLWAkE2lZXB4si4QNybDkHO
jLnB1wqYQOSRMUELsLTBBeXjQMge9UApJ6zBQgjgQNUEEECkQLHBFKubQFp0/L5P0JzBfHTNQPh7
LEER/pTBJsAEQUzh7L/qnq7BROgIQY7ftD97PG/BnGMSQVaQcD8GpYTBHbqaQCS7CEF1BZDBm5O8
QFfzCkHGdYTBfR2wQJWdCr+04IbBe4DfQNLDGr8E/47BXcDcQOO0rkBquJjBUOSwQBZizkAjk53B
iNihQD7O0UD03HrBFilqQPSe80CSj4DBNZHJQCjHpT/kYnnBWceyQJ6+lECzuonBJGd4QLJYQ0Hq
LZ7BodivQA+jTkFuXZvB3WqZQNzZUEHBjKjB9dDzQI5W1sAQMpPBzib0QE5XpMDFSJrBM4YQQaAj
s8DeG5LB1Z2UQGhTLkBh2KrBsFt5QAQH0j/0EKHBJBrGQFROoMCrBYrBvf/yQKYar8DE2IHBP7sM
Qc2YWsB1KIfBaLzuQNHmPcCeE5DBfaC8QAS8PMDMDYDBV3PqQB2kTMDVN2/BVq1kQFsxZ0Cr1pLB
+nfKQEU/XkDfZZ3BAdubQBa62T8l1I3BrIxWQA3srEDTFofBqyBdQMlezkCtF5HBCt1aQLspgkAt
JaXBe1K9QFMcFUFgnrHBRNyqQCnxKEEe367BfMnVQC/JCUEAC6rB0b/bQIMZoD/PCK7BK9G1QE+r
lb7VN6LBszHJQAkcJkHj8ZzB3x70QOS4h78LRKzBuCGxQEyYMUF9jaTBCAG6QBfSfT+ZzKbBSI34
QDpoYz481bDB6NbSQFhpqL/b7aTBM+zbQHdSEkERs5/BGIUGQUnZLL8xHnbB/bvcQFKa/j9qeYzB
HBcGQeGRSz9K5HzBL5qtQEpo/0CVGYrBt2DUQDMO074zC4fBYenAQAILwkCLXZbBANePQMEe4UAS
8IPBmX3fQN70fD8KL4PBhwmhQBBJpUBtHJDBUQucQDmCRkFDb6HBuo7PQNNiqcDybVDBdsGaQA/9
BUBxx6PBbInTQNkumcBel2fBDHPbQBxDUcBgs2fBdcPhQMY/MMC5uH7B7Q2MQPwPg0Bpc5fBY6Ks
QIu2P0AXt5rB0HnoQKF/pr/lgX7BPt/PQEvm5kCtyY/BDO20QDXWCkC/LpHBT9J9QKLwv0B8PIvB
d/8UQY8cmb+M3WvB83n8QFfXJUBNq4/BhLMDQSLIEUGlaI3BGLwKQW3e6EBvE5vBh3F0QG80l0Bb
tqDBeC8MQdV47T6R67fB5LXOQHS1IsC/eaDBhnn3QH/ZAkF/k5XBsrK4QM+ZDkHFibnB5N+XQC6K
MUHtq7TBTtvjQAEl9UDZJKzBf37fQBovD0CvbLHBrEecQJkm+77cnZzB6FDNQCl5LEF++pTBOh0F
Qf9l7L+0Y67BMn8IQUkguj95AW/B4H0SQZOofz9qeYTBv7eaQOa3CEGGAJDB1I+8QDvpCkFAcITB
Rn+xQNsyD79fKIfB42bhQFe1Fr+sGI/BvMXcQCmwrkCftpjBfO2wQAhezkA2k53BGtShQDCy0UBX
3HrBeyBqQOOF80BajYDBCSbJQCn3pD+BpXnB+L+yQOKplED5vYnBUwV4QEpKQ0FGKZ7B4qCvQJ6c
TkHzWJvB2y+ZQDbRUEEFiKjBf+fJQPggzMAFgVDBVFHtQH1rosAXs0fBVZu0QFsvmcAwhUjBvYCU
QNPELUCF3qrBqll5QCdJ0T+ODaHBe3nuQH50qcCheW/BfMO1QFw4oMC6S3DBDcG/QEy4MMCdgGDB
t1H4QOMdQ8DMRV7B3tf9QJWqT8AJ7oLBmCjFQGM2P8DIIoTB7Z9kQLUfZ0AP3pLBomTKQMxAXkD/
dJ3BJ/ebQE/u2T8f2Y3BAYNWQMHbrEDpGYfBiSJdQFZYzkCWGJHBZ+JaQAUpgkCVK6XB

>  <OMEGA_E>  (180) 
PBvvPnh58j7clOU+kCkwP/igCz+8/yQ/diE0Pw==

>  <OMEGA_NBR>  (180) 
     16870

$$$$
50162119
     RDKit          3D

 60 62  0  0  1  0  0  0  0  0999 V2000
    5.6893   10.9048  -20.8268 C   0  0  0  0  0  0  0  0  0  0  0  0
    5.7571   10.3897  -22.1358 C   0  0  0  0  0  0  0  0  0  0  0  0
    6.2932   10.2076  -19.7644 C   0  0  0  0  0  0  0  0  0  0  0  0
    6.8591    1.3924  -21.6646 C   0  0  0  0  0  0  0  0  0  0  0  0
    5.2277   -0.2477  -20.8742 C   0  0  0  0  0  0  0  0  0  0  0  0
    7.0392    8.4788  -21.3198 C   0  0  0  0  0  0  0  0  0  0  0  0
    7.2987   -0.9918  -21.9233 C   0  0  0  0  0  0  0  0  0  0  0  0
    6.4178    9.1667  -22.3824 C   0  0  0  0  0  0  0  0  0  0  0  0
    5.6252    1.0914  -21.0512 C   0  0  0  0  0  0  0  0  0  0  0  0
    7.6960    0.3496  -22.0994 C   0  0  0  0  0  0  0  0  0  0  0  0
    6.0642   -1.2887  -21.3098 C   0  0  0  0  0  0  0  0  0  0  0  0
    6.9799    8.9992  -20.0094 C   0  0  0  0  0  0  0  0  0  0  0  0
    7.0195    2.1017  -17.6759 C   0  0  0  0  0  0  0  0  0  0  0  0
    5.3847    7.8883  -17.2672 C   0  0  0  0  0  0  0  0  0  0  0  0
    6.0525    5.9707  -18.7719 C   0  0  0  0  0  0  0  0  0  0  0  0
    4.4554    6.9353  -16.5139 C   0  0  0  0  0  0  0  0  0  0  0  0
    5.0444    5.0826  -17.9992 C   0  0  2  0  0  0  0  0  0  0  0  0
    6.5277    8.6340  -23.7942 C   0  0  0  0  0  0  0  0  0  0  0  0
    7.3414    0.9755  -16.6842 C   0  0  0  0  0  0  0  0  0  0  0  0
    4.7324    2.1995  -20.5731 C   0  0  0  0  0  0  0  0  0  0  0  0
    4.3820    4.0376  -18.9042 C   0  0  2  0  0  0  0  0  0  0  0  0
    5.3999    3.0045  -19.4373 C   0  0  1  0  0  0  0  0  0  0  0  0
    6.4750    7.1353  -17.9540 N   0  0  0  0  0  0  0  0  0  0  0  0
    5.7965    2.0792  -18.3460 N   0  0  0  0  0  0  0  0  0  0  0  0
    3.9607    5.9099  -17.4370 N   0  0  0  0  0  0  0  0  0  0  0  0
    7.8869    2.9213  -17.9572 O   0  0  0  0  0  0  0  0  0  0  0  0
    8.1214    9.0823  -17.6126 O   0  0  0  0  0  0  0  0  0  0  0  0
    8.7414    7.1820  -19.1877 O   0  0  0  0  0  0  0  0  0  0  0  0
    3.7201    4.7123  -19.9810 O   0  0  0  0  0  0  0  0  0  0  0  0
    8.8803    0.6367  -22.6846 F   0  0  0  0  0  0  0  0  0  0  0  0
    5.6838   -2.5729  -21.1305 F   0  0  0  0  0  0  0  0  0  0  0  0
    7.7331    8.0944  -18.6285 S   0  0  0  0  0  0  0  0  0  0  0  0
    5.1737   11.8349  -20.6386 H   0  0  0  0  0  0  0  0  0  0  0  0
    5.3028   10.9312  -22.9523 H   0  0  0  0  0  0  0  0  0  0  0  0
    6.2312   10.5980  -18.7593 H   0  0  0  0  0  0  0  0  0  0  0  0
    7.1601    2.4208  -21.7998 H   0  0  0  0  0  0  0  0  0  0  0  0
    4.2819   -0.4739  -20.4045 H   0  0  0  0  0  0  0  0  0  0  0  0
    7.5613    7.5524  -21.5092 H   0  0  0  0  0  0  0  0  0  0  0  0
    7.9407   -1.7929  -22.2586 H   0  0  0  0  0  0  0  0  0  0  0  0
    4.8014    8.4423  -18.0175 H   0  0  0  0  0  0  0  0  0  0  0  0
    5.8303    8.5965  -16.5532 H   0  0  0  0  0  0  0  0  0  0  0  0
    6.9382    5.3704  -19.0269 H   0  0  0  0  0  0  0  0  0  0  0  0
    5.5773    6.3336  -19.6953 H   0  0  0  0  0  0  0  0  0  0  0  0
    5.0086    6.4549  -15.6934 H   0  0  0  0  0  0  0  0  0  0  0  0
    3.6057    7.4997  -16.1021 H   0  0  0  0  0  0  0  0  0  0  0  0
    5.5775    4.5663  -17.1873 H   0  0  0  0  0  0  0  0  0  0  0  0
    7.4337    9.0380  -24.2696 H   0  0  0  0  0  0  0  0  0  0  0  0
    6.5862    7.5358  -23.7680 H   0  0  0  0  0  0  0  0  0  0  0  0
    5.6430    8.9404  -24.3715 H   0  0  0  0  0  0  0  0  0  0  0  0
    8.3825    1.0732  -16.3429 H   0  0  0  0  0  0  0  0  0  0  0  0
    6.6644    1.0436  -15.8199 H   0  0  0  0  0  0  0  0  0  0  0  0
    7.2076    0.0022  -17.1790 H   0  0  0  0  0  0  0  0  0  0  0  0
    4.5181    2.8756  -21.4140 H   0  0  0  0  0  0  0  0  0  0  0  0
    3.7917    1.7671  -20.2014 H   0  0  0  0  0  0  0  0  0  0  0  0
    3.6363    3.4951  -18.3046 H   0  0  0  0  0  0  0  0  0  0  0  0
    6.2826    3.5299  -19.8307 H   0  0  0  0  0  0  0  0  0  0  0  0
    5.1334    1.3838  -18.0692 H   0  0  0  0  0  0  0  0  0  0  0  0
    3.3261    5.3146  -16.9442 H   0  0  0  0  0  0  0  0  0  0  0  0
    3.4793    6.3609  -18.1885 H   0  0  0  0  0  0  0  0  0  0  0  0
    3.3057    4.0732  -20.5487 H   0  0  0  0  0  0  0  0  0  0  0  0
  1  2  2  0
  1  3  1  0
  2  8  1  0
  3 12  2  0
  4  9  2  0
  4 10  1  0
  5  9  1  0
  5 11  2  0
  6  8  2  0
  6 12  1  0
  7 10  2  0
  7 11  1  0
  8 18  1  0
  9 20  1  0
 10 30  1  0
 11 31  1  0
 12 32  1  0
 13 19  1  0
 13 24  1  0
 13 26  2  0
 14 16  1  0
 14 23  1  0
 15 17  1  0
 15 23  1  0
 16 25  1  0
 17 21  1  0
 17 25  1  0
 20 22  1  0
 21 22  1  0
 21 29  1  0
 22 24  1  0
 23 32  1  0
 27 32  2  0
 28 32  2  0
  1 33  1  0
  2 34  1  0
  3 35  1  0
  4 36  1  0
  5 37  1  0
  6 38  1  0
  7 39  1  0
 14 40  1  0
 14 41  1  0
 15 42  1  0
 15 43  1  0
 16 44  1  0
 16 45  1  0
 17 46  1  1
 18 47  1  0
 18 48  1  0
 18 49  1  0
 19 50  1  0
 19 51  1  0
 19 52  1  0
 20 53  1  0
 20 54  1  0
 21 55  1  1
 22 56  1  6
 24 57  1  0
 25 58  1  0
 25 59  1  0
 29 60  1  0
M  CHG  1  25   1
M  END
>  <OMEGA_C>  (181) 
mw62QPt5LkFdnabBEzq4QAo8JkEMFrHBNGLJQHhSI0F9HZ7Bkn3bQMo6sj8KUa3Bm0mnQD+efb5S
/qbBgUHhQPeoB0ENj6rB1I7pQGbpfb/RYq/BR17NQN+qEkE5D7PBvQG0QEayiz/uaKjBwEX2QEcF
sz6Fy7DB2w3CQAzzpL+QeqrBpFvfQJz8D0FZE6DBmJ/gQN2CBkBGaI3BKE+sQAxt/EA6I4rBrK3B
QBAQv0DvLJbBdZKOQMnt3UBmHITBjWuhQIakokBW/o/BQuPQQLskCkFzWr7BWezqQMq4eT9LeYXB
eG+XQF3EDEDElaTBqTmMQEQ0gUDYO5fBrMusQJRJQECAf5vBQzPPQDNU5EC5oY/BGH25QGMSBUCz
xJLBFHx9QM4dvUDyfovBh2H8QDT2OkBRqI/BGPEBQTtREUGX5ozBz9wLQTDT5UB2gJnBiBZuQFTL
lkAV2Z/ByxUOQQj+Ij8jerXBh+G1QDSrJMBCC6nBtnX3QNWCAUElB5XBB4+lQMtbPUHOG6XB0bCp
QCDmLkFnnrfBXWbHQHKRKUEbE5bBjx/lQMjtGkAKZq7BVwWJQGGk8r5hPKPB1PXxQIWt8UC+EqzB
Ohr+QBB/5b+bEbLBHKWZQIITB0HWI5DBopG6QGOLCUHfbITBEgbeQGnaq0AiN5jBMnmyQD+tykDg
j53BDkagQFCOzkAOGHvBtsNmQCr970Av0YDBRHuyQCofkkCPf4nBm+DtQNWbEEEZKMLBS8LSQI4l
8UDiJL7BjZO0QNoLD0Hn+MLBrR4GQaFdiT9OvoLBeELVQJ6ThT9THn3Br6TmQI8rDTt/bonBeJSQ
QLAJOEDGT6vBt6pyQFAw4j+OnKHBlrloQMGvX0DEb5LBwwrJQArqYUA2pZ7BjkSkQLwhsT+6jZDB
Hd5UQDIRqkCsjYfBlaxeQKWMy0AZgpHBKpFTQHtXgkC5Y6TBZiTQQL8iEUFeN7PBsDq6QKZ3JEFV
RLHBEpbjQC4OBkH6q6rBOn3ZQHT+tD/kxq3BwSapQKlHiL6wUabBZqLKQKx+IUGzQp7BGr3qQJIC
db8uUq/BSfa3QOTELEGqxqbBIWizQBuGij/XUqjBgTr1QP5zyT4EO7HBX8bEQKh4pL/k0anB4+/g
QNxYDkHIKqDBKpLkQBlFDkAFio7BBBysQL5W/EA4B4rBSu6/QLQJv0C5HZbBiqmNQHxg3kA4AITB
NeyfQMinokDi6o/Bh9qfQLsvQUG1eqTBHiHwQM94oT95b4XBDv+VQPK5CkBsZaTBn/mKQBA9gUCo
PpfB3umrQAnpQUAFvpvBDIrOQIZW40DZeY/BusO7QAP6CUAUBJPBzeV6QBhLvUBzUYvBdLr9QNQs
R0C8/5DBER4CQelwEEGN54zBm+4LQVpp4kCMA5nBnNhqQFLilkBAyJ/B8BcNQVb1NT8RP7bBizG7
QJrgJMACtafB+tL3QA1NAEHt3pTBcAnSQITRCkGGPrvB4S6rQDfsLEG/y7fBoHb0QGyJ7kBAJqzB
c1LhQH62HECuS6/BiRaMQE1RBL+QGKLB1tjHQBeRJ0GbM5bB1M3/QEPZ3r8tE7LBueSZQD0yB0FA
DpDBMMa6QKpgCUGzUYTBwcjbQG6Zq0AQbZjB7zmwQF6Hy0CgWJ3BiPCeQKULz0CkuHrBFkRlQG/3
8EBqz4DBRCGxQFYGkkDHdonBaVF8QDBrPUFHxKLBWS2uQPE3SUEUhJ3BV6mhQM/OS0FMe6vBbtkH
Qbuewz8mLoLBpezXQJvJqj9DJX7BCA3xQFs5bT76hIjBhwGNQHLhM0BHLKvBzSpyQG+M2j8F/KDB
av5mQAh1XkCGepLBsLfGQLMyZUDgW5/BWqynQJq3uz/yH5DB0LhSQJxQqkDlSIfBpG5bQDGby0Ca
S5HB0LNQQE9ygkCuXKTBp+S1QIGzLkEKp6bBTna4QNmbJkGyJbHBOgjJQL52I0EWJ57B/5ynQA6F
bL7uSKfBF3bcQH0AtD8nUK3B6SrhQBTrB0HtoKrBYlTpQJDweb8v76/BAaXNQKEPE0F2I7PBXO20
QD+YjT+sb6jBJcTBQKzIor9/DKvBfaj2QAVCuj7kD7HBExffQGEoEEFIIaDBUu/fQMvAAUAnMo3B
OFCsQBDK/EAvL4rB69TBQI09v0DBKZbBKYyOQIVT3kCHKITB1amhQK/cokDE8I/Bxa/RQOG6CkEV
db7BqLDpQDDHWD+8vIXBgIOYQKK0DUC0j6TBGqSMQEcbgUBYHJfBPlatQILaP0C7SJvBTj3PQGKv
5ED+qY/BeOa4QHpVA0CMmZLBgr59QHBnvUBkh4vB/e37QFPANkBZBo/B6vMBQXCCEUEO/IzBMs0L
QbE15kA5mJnBxOJuQKFtlkC7xJ/B3da0QLJ1I8A286nB0T0OQcaBJj8WyLXBAWD3QP+xAUEQGZXB
BzylQPeHPUHTIKXBVzOqQLBfL0Elr7fB9NbGQLCfKUFTGZbB+luJQFty6b4ehKPBp5XmQHO8G0Bz
Kq7BFrvxQIEe8kDdJazBYnL9QIZ847/S0LLBt6yZQL0+B0FGMpDBTYu6QPa8CUEzeYTBwjveQO4S
rEDZLZjBlpayQOenykBgkJ3BkS+gQIcQz0CVInvBV5JmQJli8EDE5oDBubuyQA6nkkDVZYnB7Nru
QD9BEUHmJcLB8onTQC1Q8kBfUb7BaZi1QHy3D0EvI8PBGXUFQVYxaz9t44LB+MPTQGdkXz8qtn3B
IF/lQEBvx70XH4rBdUeSQDr1OUDDOavBuDd0QKhK5D8FxaHBwo9pQCe6X0BHSZLBTAfKQBk3YUBr
N57BpOaiQElTsD+pcpDBBO1UQJZtqkDImIfBQjxfQDW8y0CQlJHB4IJUQJPTgUD3R6TBCDTSQPT7
DUEu4LPBAp+6QDz4IEHvXLLBMv3lQHTyA0ESEKvBZlWsQJgp3b1xQKnBqZ/fQHyI1T8qQK3BH97K
QK77H0HpSZ/BEPDxQL8SKL9b57DBNVu3QJwUKkHxDqjB4Fy3QDrVoD9CTKnBm4bJQJ4IiL8OFq3B
bAH9QPS0NT9k97DB8V/iQGoJDUGKvaDBTs/hQGpzDUBX4o3BlmSsQN8i/UCdT4rBbhPAQErLvkC6
/5XBrvONQI/M30CnFYTBze6fQNfhokBUr4/BTdqcQL7sPUGsNqbBvuPuQIbGiT8KTobBqRmYQH01
EUBVAaXBQseKQJE0gUAG65bB9yKsQLHTQ0CmrZvBmMLOQJl+40B1kI/BQfi6QDFlB0CXUpPBNi97
QKfvvUDbKYvB4jj7QHRgR0Ccu4/BpToCQbifEEHoXY3BXFsMQV3g4EBqxZjBwoRnQIXFlkAJO5/B
BLO+QIC6F8D6FK3BB+wRQaLojD+mkLTBw4D4QBXO/0DUEZXBSh7VQIshB0EMxrvBLw6rQIeLKEFI
FbnBBeH3QJOs6kASMqzBPHmNQBRb177eRabB6dDnQDjnLUDzaq3BFcvHQLvPJkGiY5fBCjgEQbVP
sr9+yLPBYjKaQPhBB0H8dpDBKw27QKIWCkEnwoTBGuTbQGMdq0BDNZjB/G2wQNHDykCoSp3BtUaf
QHAm0UBstnrBTvFlQMu+8kBGAIHBLhexQIl7kkCxL4nBRDV3QHZSOUF4d6TBTQOqQB3sRkFNZ5/B
raCdQFQASEELba3BNtIHQcVAoD8uZ4PBDcLYQOjahT+y7n7BQqXtQAik8D0gm4rBG0ePQDLlPUD/
b6vBIZR2QNzH3z+YI6LBhZxoQIYDXUBABJLBo3THQJLwaEA3uZ7B4qqnQGs4rT/VcZHBdGRTQAdS
q0De94bBujdbQCify0DTMJHB3gpNQBtEgkDmwqPB

>  <OMEGA_E>  (181) 
8OQfPzzyID9eVCM/UIouPw==

>  <OMEGA_NBR>  (181) 
     21084

$$$$
50162142
     RDKit          3D

 87 91  0  0  1  0  0  0  0  0999 V2000
    5.7855   10.5312  -21.1543 C   0  0  0  0  0  0  0  0  0  0  0  0
    6.0227    9.9201  -22.3968 C   0  0  0  0  0  0  0  0  0  0  0  0
    6.3237    9.9423  -20.0003 C   0  0  0  0  0  0  0  0  0  0  0  0
    6.8978    0.1407  -16.7051 C   0  0  0  0  0  0  0  0  0  0  0  0
    8.1318   -0.3828  -14.6687 C   0  0  0  0  0  0  0  0  0  0  0  0
    8.3560    1.8163  -15.6956 C   0  0  0  0  0  0  0  0  0  0  0  0
    6.9023    1.3783  -21.5048 C   0  0  0  0  0  0  0  0  0  0  0  0
    5.2087   -0.2568  -20.8497 C   0  0  0  0  0  0  0  0  0  0  0  0
    7.3469   -1.0069  -21.7501 C   0  0  0  0  0  0  0  0  0  0  0  0
    6.7873    8.7352  -22.4486 C   0  0  0  0  0  0  0  0  0  0  0  0
    7.2515   -0.7724  -15.6942 C   0  0  0  0  0  0  0  0  0  0  0  0
    7.4517    1.4386  -16.7124 C   0  0  0  0  0  0  0  0  0  0  0  0
    8.6752    0.9146  -14.6612 C   0  0  0  0  0  0  0  0  0  0  0  0
    5.6221    1.0817  -20.9853 C   0  0  0  0  0  0  0  0  0  0  0  0
    7.7677    0.3328  -21.8764 C   0  0  0  0  0  0  0  0  0  0  0  0
    6.0638   -1.2983  -21.2435 C   0  0  0  0  0  0  0  0  0  0  0  0
    7.0897    8.7615  -20.1161 C   0  0  0  0  0  0  0  0  0  0  0  0
    6.6992   -2.1282  -15.6998 C   0  0  0  0  0  0  0  0  0  0  0  0
    7.0710    2.3897  -17.7666 C   0  0  0  0  0  0  0  0  0  0  0  0
    7.8334   -3.9834  -18.7698 C   0  0  0  0  0  0  0  0  0  0  0  0
    7.2671   -5.0464  -17.8326 C   0  0  0  0  0  0  0  0  0  0  0  0
    7.7046   -2.6635  -17.9930 C   0  0  0  0  0  0  0  0  0  0  0  0
    5.4289    7.8623  -17.1892 C   0  0  0  0  0  0  0  0  0  0  0  0
    5.9775    5.9819  -18.7631 C   0  0  0  0  0  0  0  0  0  0  0  0
    4.4669    6.9210  -16.4490 C   0  0  0  0  0  0  0  0  0  0  0  0
    6.2663   -4.2840  -16.9660 C   0  0  2  0  0  0  0  0  0  0  0  0
    4.9863    5.0858  -17.9844 C   0  0  2  0  0  0  0  0  0  0  0  0
    9.6525    1.3148  -13.5812 C   0  0  0  0  0  0  0  0  0  0  0  0
    2.7064   -3.1628  -17.3503 C   0  0  0  0  0  0  0  0  0  0  0  0
    4.6881    2.1895  -20.5635 C   0  0  0  0  0  0  0  0  0  0  0  0
    4.8945   -4.1284  -17.6547 C   0  0  0  0  0  0  0  0  0  0  0  0
    4.3107    4.0568  -18.9041 C   0  0  2  0  0  0  0  0  0  0  0  0
    5.3415    3.0725  -19.4873 C   0  0  1  0  0  0  0  0  0  0  0  0
    7.3020    8.1771  -21.3248 N   0  0  0  0  0  0  0  0  0  0  0  0
    6.8875   -2.9662  -16.7974 N   0  0  0  0  0  0  0  0  0  0  0  0
    6.4739    7.0860  -17.9196 N   0  0  0  0  0  0  0  0  0  0  0  0
    5.8483    2.2185  -18.4044 N   0  0  0  0  0  0  0  0  0  0  0  0
    3.9300    5.9170  -17.3793 N   0  0  0  0  0  0  0  0  0  0  0  0
    6.0997   -2.5297  -14.7085 O   0  0  0  0  0  0  0  0  0  0  0  0
    7.8172    3.3189  -18.0551 O   0  0  0  0  0  0  0  0  0  0  0  0
    8.0961    9.0749  -17.6767 O   0  0  0  0  0  0  0  0  0  0  0  0
    8.8009    7.0394  -19.0330 O   0  0  0  0  0  0  0  0  0  0  0  0
    3.6239    4.7366  -19.9565 O   0  0  0  0  0  0  0  0  0  0  0  0
    4.0597   -3.2438  -16.8796 O   0  0  0  0  0  0  0  0  0  0  0  0
    8.9981    0.6155  -22.3612 F   0  0  0  0  0  0  0  0  0  0  0  0
    5.6444   -2.5777  -21.1418 F   0  0  0  0  0  0  0  0  0  0  0  0
    7.7634    7.9933  -18.6138 S   0  0  0  0  0  0  0  0  0  0  0  0
    5.2004   11.4366  -21.0888 H   0  0  0  0  0  0  0  0  0  0  0  0
    5.6242   10.3525  -23.3027 H   0  0  0  0  0  0  0  0  0  0  0  0
    6.1536   10.3882  -19.0314 H   0  0  0  0  0  0  0  0  0  0  0  0
    6.2013   -0.1524  -17.4766 H   0  0  0  0  0  0  0  0  0  0  0  0
    8.3908   -1.0806  -13.8861 H   0  0  0  0  0  0  0  0  0  0  0  0
    8.8040    2.7989  -15.7109 H   0  0  0  0  0  0  0  0  0  0  0  0
    7.2160    2.4057  -21.6165 H   0  0  0  0  0  0  0  0  0  0  0  0
    4.2341   -0.4826  -20.4430 H   0  0  0  0  0  0  0  0  0  0  0  0
    8.0075   -1.8101  -22.0415 H   0  0  0  0  0  0  0  0  0  0  0  0
    6.9664    8.2629  -23.4032 H   0  0  0  0  0  0  0  0  0  0  0  0
    8.8876   -4.1944  -19.0025 H   0  0  0  0  0  0  0  0  0  0  0  0
    7.2532   -3.9415  -19.7034 H   0  0  0  0  0  0  0  0  0  0  0  0
    6.7640   -5.8414  -18.4025 H   0  0  0  0  0  0  0  0  0  0  0  0
    8.0635   -5.4863  -17.2144 H   0  0  0  0  0  0  0  0  0  0  0  0
    8.6982   -2.2988  -17.6934 H   0  0  0  0  0  0  0  0  0  0  0  0
    7.2065   -1.9034  -18.6128 H   0  0  0  0  0  0  0  0  0  0  0  0
    4.8586    8.4663  -17.9103 H   0  0  0  0  0  0  0  0  0  0  0  0
    5.9166    8.5258  -16.4598 H   0  0  0  0  0  0  0  0  0  0  0  0
    6.8306    5.3709  -19.0931 H   0  0  0  0  0  0  0  0  0  0  0  0
    5.4667    6.4031  -19.6415 H   0  0  0  0  0  0  0  0  0  0  0  0
    5.0075    6.4127  -15.6369 H   0  0  0  0  0  0  0  0  0  0  0  0
    3.6371    7.5067  -16.0266 H   0  0  0  0  0  0  0  0  0  0  0  0
    6.1437   -4.7889  -15.9965 H   0  0  0  0  0  0  0  0  0  0  0  0
    5.5363    4.5518  -17.1955 H   0  0  0  0  0  0  0  0  0  0  0  0
   10.6747    1.0613  -13.8987 H   0  0  0  0  0  0  0  0  0  0  0  0
    9.5813    2.3983  -13.4055 H   0  0  0  0  0  0  0  0  0  0  0  0
    9.4130    0.7762  -12.6524 H   0  0  0  0  0  0  0  0  0  0  0  0
    2.1361   -2.4726  -16.7112 H   0  0  0  0  0  0  0  0  0  0  0  0
    2.7002   -2.7930  -18.3862 H   0  0  0  0  0  0  0  0  0  0  0  0
    2.2456   -4.1610  -17.3145 H   0  0  0  0  0  0  0  0  0  0  0  0
    4.4442    2.8089  -21.4392 H   0  0  0  0  0  0  0  0  0  0  0  0
    3.7656    1.7489  -20.1575 H   0  0  0  0  0  0  0  0  0  0  0  0
    5.0362   -3.7089  -18.6616 H   0  0  0  0  0  0  0  0  0  0  0  0
    4.4105   -5.1132  -17.7325 H   0  0  0  0  0  0  0  0  0  0  0  0
    3.5898    3.4819  -18.3043 H   0  0  0  0  0  0  0  0  0  0  0  0
    6.1679    3.6409  -19.9390 H   0  0  0  0  0  0  0  0  0  0  0  0
    5.2714    1.4588  -18.1045 H   0  0  0  0  0  0  0  0  0  0  0  0
    3.3001    5.3219  -16.8803 H   0  0  0  0  0  0  0  0  0  0  0  0
    3.4354    6.3885  -18.1094 H   0  0  0  0  0  0  0  0  0  0  0  0
    3.2062    4.1005  -20.5252 H   0  0  0  0  0  0  0  0  0  0  0  0
  1  2  2  0
  1  3  1  0
  2 10  1  0
  3 17  2  0
  4 11  2  0
  4 12  1  0
  5 11  1  0
  5 13  2  0
  6 12  2  0
  6 13  1  0
  7 14  2  0
  7 15  1  0
  8 14  1  0
  8 16  2  0
  9 15  2  0
  9 16  1  0
 10 34  2  0
 11 18  1  0
 12 19  1  0
 13 28  1  0
 14 30  1  0
 15 45  1  0
 16 46  1  0
 17 34  1  0
 17 47  1  0
 18 35  1  0
 18 39  2  0
 19 37  1  0
 19 40  2  0
 20 21  1  0
 20 22  1  0
 21 26  1  0
 22 35  1  0
 23 25  1  0
 23 36  1  0
 24 27  1  0
 24 36  1  0
 25 38  1  0
 26 31  1  0
 26 35  1  0
 27 32  1  0
 27 38  1  0
 29 44  1  0
 30 33  1  0
 31 44  1  0
 32 33  1  0
 32 43  1  0
 33 37  1  0
 36 47  1  0
 41 47  2  0
 42 47  2  0
  1 48  1  0
  2 49  1  0
  3 50  1  0
  4 51  1  0
  5 52  1  0
  6 53  1  0
  7 54  1  0
  8 55  1  0
  9 56  1  0
 10 57  1  0
 20 58  1  0
 20 59  1  0
 21 60  1  0
 21 61  1  0
 22 62  1  0
 22 63  1  0
 23 64  1  0
 23 65  1  0
 24 66  1  0
 24 67  1  0
 25 68  1  0
 25 69  1  0
 26 70  1  1
 27 71  1  1
 28 72  1  0
 28 73  1  0
 28 74  1  0
 29 75  1  0
 29 76  1  0
 29 77  1  0
 30 78  1  0
 30 79  1  0
 31 80  1  0
 31 81  1  0
 32 82  1  1
 33 83  1  6
 37 84  1  0
 38 85  1  0
 38 86  1  0
 43 87  1  0
M  CHG  1  38   1
M  END
>  <OMEGA_C>  (182) 
ByO5QNJ/KEERPKnBXLrAQLO4HkG6LLPBfVvKQKITH0GQAKDBCLvcQI4aED4FpIXB0BsCQUUDxL7S
smrBS7IFQfB76D8GIXvBdd/cQLZtsD/aCazBqK2mQEp7g75GzKbBlhnrQGnjgL85AK7BuzHZQHLD
C0HOlrPBBQzoQGS7Rb9wG3vBGXTuQKEiuD8Os4XBw80KQXokaj9wlGrB6eezQNh1ij/d4afB3ZD4
QKVkqj7oAq/BtwrCQHEupr+38qnB5N7iQBQvDEHV7aDB3l/WQA00CMBFMnvBtEXiQFDwGEAJIo7B
b6v6QAjwfsCWKJbB1YvoQDd8ocA2qY7BxYv2QMZ2KsCp8Y/BiLmtQPSX+0CBg4nB+Ue/QLJrv0Dq
GpbB/fCOQIl43UB/l4PBt4XIQEQWicBguofBYY+fQL++okD334/BpXAaQe9JqD9wTFnBVzYtQLhr
SsBbzYrBOQWWQI0hDED+gaTBlZ+cQBgchMDKPI3BT/GJQILRgUCDO5fBpO2qQFujREDz5ZvB6anp
QF/VAkEvmarBDmbcQO3WPcACYYbBUyrPQLLA4kBGW4/BnyW7QCv8DUA9PJPB14V7QBRYvUDXCIvB
uzDDQPrmIcDoVWvBHyb6QNFoVEDGcJDBeYkBQdcyEUHNaY3BkNAMQSFD4UCFQ5jBX+5nQNaRl0Dt
pp/Bb+mBQIOaT8B2CYfBM/gPQR6RHT+p47LBlJ60QOn4JMBSIqnBbW34QDTJ/0D76JTBgmmmQED8
NkHitajBkPmzQOajJUHta7rB8+nEQPU1JkFgQJjB4HDGQNMVHL4j0IvBlEAGQaVRir9dLV7BVt0M
QXkgM0DiX3vBaunmQHv3GUCL7qzBXX2HQAUc974zi6PBtB4AQdGx57/sVLDB1uzeQNE0BEHNObvB
vTMOQTw4hsAlBZjB5hnoQMNAfMCEoJ3BUHLYQCftusBhOJPBAgQBQZGPr8AAt4nBsCsLQVMfE8Ar
jI3BYJvmQI2h87/t5pTB7XmbQON1B0FYSI/BeVS9QJBpCEG/rYPBf5TaQC/eq0C1vpjBz+6uQBHm
zEDkIZ3Bvz2gQCw1zUDNMHrB6sZoQAw38ECSNoDBDpnEQHM+mcB38X/BhSmxQA+okUBykInBs8sq
QYbYhz/nYF7B+UwZQeN9GUAVfVbBx5sWQQS4Rj8YcErBJbYIQK4/HsCbsIXBgM8sQKHAMsD8FpPB
cLcPQMImhcAIhIrBqjaOQHTFM0Btg6vByf9wQOXb3z+pQqHBPyihQPpdbcD2SpXBMyONQDifo8BC
3I3Bg79lQB7XXkAjb5LBKV/FQJAEaUD/gp/BRa+oQFG5uj8R1pDB1DRTQOlMqkDfCofB8N1bQJdu
zEAT4JDBWjJNQEA3g0CnM6TBSz3TQJYnD0EAsrPBUaq9QKScIkFUFrLBRwflQOC2BEHLyqrBsijc
QLOs5z3hmYXBT4oBQTQeyb5FX2rB94wFQS8J5T9lRHvBOs7bQDNrqD9JT6zBr6ilQB84kL6BV6bB
It/oQNBMir+u6a3BWXu6QNAKK0FZpafBQR3nQBxbSr+W0HrBtlDuQF7asz8mx4XBqmQKQTBwZj8o
eGrB7jmzQCgmhj/C0qfBe6j2QE9mgD5wUa/BfknAQHz5q7/bdKnBDBzhQEAeDkFjiaDBIo3VQOBx
CcCSwnrBAfHiQNjnFUCCYI7BbXf6QPfigMAox5XBfLLoQOXGosBMMI7BARv2QMTuLMAVp4/Bueys
QNfS+0CQtonBuGjAQHxwv0ARJZbB+SaPQMwd3UA6tYPBoIXIQE9fisDgTIfB84ygQFyXokCv+o/B
wxcaQb2fpj81Q1nB6houQH8RS8ASoorBsCCWQOF8C0AFiqTBUIKcQO8OhsCwy4zBFeKKQADWgUBC
X5fBR4+rQATzQ0Bv/5vBWe3LQO7YIEG7I5/BsA7cQHDxP8AGEIbBSRfPQKek40Apc4/BrFK7QM85
DUDOSZPBaud8QIXMvECII4vBzALCQHx0IsAj8GrBR/X7QNSaTkDDAJHB21QBQbSeEUFZHY3BqG8M
QQwH5EBisJjBDFNqQCLDl0Dczp/BAYCCQKGpT8Dj/IbBcLwOQRzeAT9Jo7PBSpqyQG9eJ8BVOqjB
h7b3QKriAEEm55TBXxbWQBNeCEHnm7vBNKqvQCQHK0G7xbjBS4n1QLNQ60Atw6vBJtbFQHhGO77d
wYvBD3wFQQ1lir+0p13B0t0MQX8dMUCjr3vBnTXmQOaCFUD7ba3BmcqGQG05+L7pz6LBOmf9QKQF
878ZQLDBo8GpQOr1OUEPaabB8RwOQdZyh8A9p5fB88nnQEjlf8C3O53BmsfYQOyHvMB1rZLBkysB
QfZwsMC5OInBSesKQfYKFcD4SY3BkQDmQPyk+b/LqJTBjh6aQNQfB0HqjY/Bpde7QJ3tCEGz84PB
D0rcQHwwrEAoiJjBgYSwQCwhzEDXU53BRhahQPQszUDtiXrB/LBoQGI+70DEPoDBZNHEQF9AmsCz
AH/B4hCyQBhdkUBZrYnBgWYqQdQPhD8/R17BVyoZQcHYGEAwrFbBeiUWQaErRz8PTErBdd8KQD3M
G8Dd0oXB0xAtQGOyN8CnF5PBIrUPQM8ZhcA/yInB7L2OQMTXMkAkmavBgaJwQGOT4T9EQqHBEfig
QAtzdcBVDZXBh3+MQE1npcAk5ozBCR5nQGxQX0BQmZLB4jXGQFx/Z0ArpZ/B0iGoQO6vvD8utpDB
Mg5VQGWDqUBbJYfBgONcQHCty0CF+5DBn4ZPQFGCg0BAYaTB

>  <OMEGA_E>  (182) 
OBgPPoCp3T0=

>  <OMEGA_NBR>  (182) 
     24123

$$$$
50162153
     RDKit          3D

 88 92  0  0  1  0  0  0  0  0999 V2000
    6.9102    0.1739  -16.7200 C   0  0  0  0  0  0  0  0  0  0  0  0
    8.1711   -0.3285  -14.6946 C   0  0  0  0  0  0  0  0  0  0  0  0
    8.3815    1.8596  -15.7476 C   0  0  0  0  0  0  0  0  0  0  0  0
    6.8188    1.3726  -21.5621 C   0  0  0  0  0  0  0  0  0  0  0  0
    5.1652   -0.2628  -20.8119 C   0  0  0  0  0  0  0  0  0  0  0  0
    7.2739   -1.0137  -21.7780 C   0  0  0  0  0  0  0  0  0  0  0  0
    6.4786    9.6723  -20.2882 C   0  0  0  0  0  0  0  0  0  0  0  0
    6.7571    8.6763  -22.3284 C   0  0  0  0  0  0  0  0  0  0  0  0
    7.2779   -0.7285  -15.7048 C   0  0  0  0  0  0  0  0  0  0  0  0
    7.4619    1.4719  -16.7470 C   0  0  0  0  0  0  0  0  0  0  0  0
    8.7158    0.9684  -14.7087 C   0  0  0  0  0  0  0  0  0  0  0  0
    5.5613    1.0759  -20.9909 C   0  0  0  0  0  0  0  0  0  0  0  0
    7.6767    0.3267  -21.9496 C   0  0  0  0  0  0  0  0  0  0  0  0
    6.0152   -1.3052  -21.2137 C   0  0  0  0  0  0  0  0  0  0  0  0
    7.2249    8.5318  -20.1592 C   0  0  0  0  0  0  0  0  0  0  0  0
    6.7335   -2.0867  -15.6958 C   0  0  0  0  0  0  0  0  0  0  0  0
    7.0639    2.4122  -17.8042 C   0  0  0  0  0  0  0  0  0  0  0  0
    7.9009   -3.9600  -18.7380 C   0  0  0  0  0  0  0  0  0  0  0  0
    7.3141   -5.0199  -17.8076 C   0  0  0  0  0  0  0  0  0  0  0  0
    7.7323   -2.6303  -17.9874 C   0  0  0  0  0  0  0  0  0  0  0  0
    5.4361    7.8633  -17.2170 C   0  0  0  0  0  0  0  0  0  0  0  0
    5.9508    5.9664  -18.7683 C   0  0  0  0  0  0  0  0  0  0  0  0
    4.4405    6.9514  -16.4806 C   0  0  0  0  0  0  0  0  0  0  0  0
    6.3118   -4.2549  -16.9438 C   0  0  2  0  0  0  0  0  0  0  0  0
    4.9480    5.0868  -17.9936 C   0  0  2  0  0  0  0  0  0  0  0  0
    9.7140    1.3767  -13.6509 C   0  0  0  0  0  0  0  0  0  0  0  0
    5.4643   10.8325  -22.2406 C   0  0  0  0  0  0  0  0  0  0  0  0
    2.7504   -3.1375  -17.3350 C   0  0  0  0  0  0  0  0  0  0  0  0
    4.6330    2.1838  -20.5608 C   0  0  0  0  0  0  0  0  0  0  0  0
    4.9350   -4.1176  -17.6271 C   0  0  0  0  0  0  0  0  0  0  0  0
    4.2726    4.0631  -18.9178 C   0  0  2  0  0  0  0  0  0  0  0  0
    5.3020    3.0768  -19.5036 C   0  0  1  0  0  0  0  0  0  0  0  0
    7.3727    7.9352  -21.4312 N   0  0  0  0  0  0  0  0  0  0  0  0
    6.2049    9.7190  -21.6210 N   0  0  0  0  0  0  0  0  0  0  0  0
    6.9272   -2.9334  -16.7855 N   0  0  0  0  0  0  0  0  0  0  0  0
    6.4713    7.0454  -17.9129 N   0  0  0  0  0  0  0  0  0  0  0  0
    5.8297    2.2351  -18.4201 N   0  0  0  0  0  0  0  0  0  0  0  0
    3.8980    5.9374  -17.4008 N   0  0  0  0  0  0  0  0  0  0  0  0
    6.1325   -2.4805  -14.7024 O   0  0  0  0  0  0  0  0  0  0  0  0
    7.8075    3.3364  -18.1141 O   0  0  0  0  0  0  0  0  0  0  0  0
    8.0908    9.0449  -17.7225 O   0  0  0  0  0  0  0  0  0  0  0  0
    8.8570    6.9017  -18.8777 O   0  0  0  0  0  0  0  0  0  0  0  0
    3.5912    4.7485  -19.9706 O   0  0  0  0  0  0  0  0  0  0  0  0
    4.1158   -3.1814  -16.8958 O   0  0  0  0  0  0  0  0  0  0  0  0
    8.8812    0.6098  -22.4952 F   0  0  0  0  0  0  0  0  0  0  0  0
    5.6151   -2.5860  -21.0622 F   0  0  0  0  0  0  0  0  0  0  0  0
    7.8089    7.8896  -18.5852 S   0  0  0  0  0  0  0  0  0  0  0  0
    6.2044   -0.1279  -17.4797 H   0  0  0  0  0  0  0  0  0  0  0  0
    8.4389   -1.0177  -13.9073 H   0  0  0  0  0  0  0  0  0  0  0  0
    8.8297    2.8417  -15.7797 H   0  0  0  0  0  0  0  0  0  0  0  0
    7.1211    2.4001  -21.7012 H   0  0  0  0  0  0  0  0  0  0  0  0
    4.2078   -0.4878  -20.3656 H   0  0  0  0  0  0  0  0  0  0  0  0
    7.9298   -1.8173  -22.0789 H   0  0  0  0  0  0  0  0  0  0  0  0
    6.1791   10.3676  -19.5181 H   0  0  0  0  0  0  0  0  0  0  0  0
    6.6982    8.5027  -23.3927 H   0  0  0  0  0  0  0  0  0  0  0  0
    8.9648   -4.1621  -18.9311 H   0  0  0  0  0  0  0  0  0  0  0  0
    7.3531   -3.9372  -19.6916 H   0  0  0  0  0  0  0  0  0  0  0  0
    6.8084   -5.8078  -18.3852 H   0  0  0  0  0  0  0  0  0  0  0  0
    8.1012   -5.4698  -17.1846 H   0  0  0  0  0  0  0  0  0  0  0  0
    8.7146   -2.2292  -17.6971 H   0  0  0  0  0  0  0  0  0  0  0  0
    7.2102   -1.8983  -18.6213 H   0  0  0  0  0  0  0  0  0  0  0  0
    4.8937    8.4688  -17.9580 H   0  0  0  0  0  0  0  0  0  0  0  0
    5.9266    8.5269  -16.4896 H   0  0  0  0  0  0  0  0  0  0  0  0
    6.7890    5.3416  -19.1103 H   0  0  0  0  0  0  0  0  0  0  0  0
    5.4445    6.4091  -19.6387 H   0  0  0  0  0  0  0  0  0  0  0  0
    4.9559    6.4481  -15.6493 H   0  0  0  0  0  0  0  0  0  0  0  0
    3.6147    7.5608  -16.0847 H   0  0  0  0  0  0  0  0  0  0  0  0
    6.1967   -4.7533  -15.9700 H   0  0  0  0  0  0  0  0  0  0  0  0
    5.4856    4.5503  -17.1979 H   0  0  0  0  0  0  0  0  0  0  0  0
   10.7296    1.1174  -13.9848 H   0  0  0  0  0  0  0  0  0  0  0  0
    9.6488    2.4621  -13.4849 H   0  0  0  0  0  0  0  0  0  0  0  0
    9.4905    0.8481  -12.7125 H   0  0  0  0  0  0  0  0  0  0  0  0
    5.3654   10.6515  -23.3211 H   0  0  0  0  0  0  0  0  0  0  0  0
    4.4644   10.9045  -21.7880 H   0  0  0  0  0  0  0  0  0  0  0  0
    6.0103   11.7730  -22.0750 H   0  0  0  0  0  0  0  0  0  0  0  0
    2.1942   -2.4046  -16.7322 H   0  0  0  0  0  0  0  0  0  0  0  0
    2.7154   -2.8429  -18.3943 H   0  0  0  0  0  0  0  0  0  0  0  0
    2.2948   -4.1316  -17.2157 H   0  0  0  0  0  0  0  0  0  0  0  0
    4.3716    2.7957  -21.4367 H   0  0  0  0  0  0  0  0  0  0  0  0
    3.7192    1.7437  -20.1350 H   0  0  0  0  0  0  0  0  0  0  0  0
    5.0730   -3.7551  -18.6565 H   0  0  0  0  0  0  0  0  0  0  0  0
    4.4382   -5.0988  -17.6474 H   0  0  0  0  0  0  0  0  0  0  0  0
    3.5482    3.4881  -18.3222 H   0  0  0  0  0  0  0  0  0  0  0  0
    6.1186    3.6444  -19.9737 H   0  0  0  0  0  0  0  0  0  0  0  0
    5.2584    1.4786  -18.1020 H   0  0  0  0  0  0  0  0  0  0  0  0
    3.2615    5.3546  -16.8956 H   0  0  0  0  0  0  0  0  0  0  0  0
    3.4095    6.4035  -18.1385 H   0  0  0  0  0  0  0  0  0  0  0  0
    3.1732    4.1156  -20.5426 H   0  0  0  0  0  0  0  0  0  0  0  0
  1  9  2  0
  1 10  1  0
  2  9  1  0
  2 11  2  0
  3 10  2  0
  3 11  1  0
  4 12  2  0
  4 13  1  0
  5 12  1  0
  5 14  2  0
  6 13  2  0
  6 14  1  0
  7 15  2  0
  7 34  1  0
  8 33  2  0
  8 34  1  0
  9 16  1  0
 10 17  1  0
 11 26  1  0
 12 29  1  0
 13 45  1  0
 14 46  1  0
 15 33  1  0
 15 47  1  0
 16 35  1  0
 16 39  2  0
 17 37  1  0
 17 40  2  0
 18 19  1  0
 18 20  1  0
 19 24  1  0
 20 35  1  0
 21 23  1  0
 21 36  1  0
 22 25  1  0
 22 36  1  0
 23 38  1  0
 24 30  1  0
 24 35  1  0
 25 31  1  0
 25 38  1  0
 27 34  1  0
 28 44  1  0
 29 32  1  0
 30 44  1  0
 31 32  1  0
 31 43  1  0
 32 37  1  0
 36 47  1  0
 41 47  2  0
 42 47  2  0
  1 48  1  0
  2 49  1  0
  3 50  1  0
  4 51  1  0
  5 52  1  0
  6 53  1  0
  7 54  1  0
  8 55  1  0
 18 56  1  0
 18 57  1  0
 19 58  1  0
 19 59  1  0
 20 60  1  0
 20 61  1  0
 21 62  1  0
 21 63  1  0
 22 64  1  0
 22 65  1  0
 23 66  1  0
 23 67  1  0
 24 68  1  1
 25 69  1  1
 26 70  1  0
 26 71  1  0
 26 72  1  0
 27 73  1  0
 27 74  1  0
 27 75  1  0
 28 76  1  0
 28 77  1  0
 28 78  1  0
 29 79  1  0
 29 80  1  0
 30 81  1  0
 30 82  1  0
 31 83  1  1
 32 84  1  6
 37 85  1  0
 38 86  1  0
 38 87  1  0
 43 88  1  0
M  CHG  1  38   1
M  END
>  <OMEGA_C>  (183) 
XCDdQCYHMj6DwoXBrrwCQfQyqL76HGvBxxoGQSEH7j8C9nvB4zPaQHixrz9If6zBX0mlQGWJhr7I
fqbB+cPoQAXCgb9cOa7B/1DPQI/BGkFSTqLBQTrYQBjSCkGKoLLByeToQAx8Or+8RnvBqcfuQOxm
vD/p+YXB1HMLQRzqdz8CV2vBO/axQHq1iT9q7afBlqf1QOlApz7NmK/BqnzAQFoSp7+utanBuzLn
QGaCCEEARqHB6HjXQDmMBcD9IXvBkAviQONhGkACb47Bj9T8QNtvfcBq55XB6gzqQEujoMAJdo7B
5W73QAhWKMA95o/BcvStQGug+0BkvInBE22+QPXsvkBsJZbBLxiOQJJx3kA12IPBOvrJQBYoiMDe
jIfBnVWeQE7HokDx8o/Bu2wbQUQ4sD8valrBs9uuQPZRLUHY7LHBmgYwQM3MSMArrorBpUGUQDXD
C0BxfKTBRuudQBjDg8BNBI3BGLmIQKUEgkCPV5fBD6qpQMjqREB2B5zBWO3rQEzt/UAec6vBmY7G
QPCAG0Hh96zBqavdQKe8O8CqSIbB9xTPQA904UCcTY/B5oy6QIgMD0BMXJPB5Xh5QCD/vUDrNIvB
bz3EQGTAHsAKPWvB99b5QHCHVUCd6ZDB6nMBQfa3EEGux43BVbYNQcTa3ECfBZfBcNZlQA30l0C5
w5/BCrWDQFqcS8CxKofBZhkOQbAYHD9E9rPBvK6zQIuAJcB0f6jBYeL5QL53/EBprpTBm4rGQIT0
Ar591ovBzQUHQZ9Cgr95hF7BYUYNQWLeNUDCeXzBWeDjQLyaGUAAnK3BcqaGQMDG+b7X7KLB9cD9
QEKc6L+jobDBIrvFQJ3hJUH4JJzBalfWQAsLCEFIJLvB/m8PQZMvhcDYcpfBjUzrQDb7e8BgiJ3B
rt7ZQKHZucDcFJPBVJ4BQbwIr8AoeonB024LQVKrDsCUk43BCLrmQNj88r9T+JTB/picQF6AB0EN
qo/BD6e9QAhuCEG26oPBqz/ZQA3uqkDM4ZjBTDmuQEsXzUAbHJ3B+paeQKxWzkCWY3rB31ZnQP/x
8UCErYDB+0rGQAUbmMDzhH/BxomvQC2ckUBflYnBTqwrQVMGjz+rwV/BgWEaQd2THUD1wVfBP9kX
QUMeWT9tZkvBIrGrQIZsKkGskbrBE9yOQNB4LkHHTa7BsFTAQAhePEGxmbDBTG0MQK7kGcCE24XB
r8gtQHvyNcCAJ5PBSN4SQOA1hMCpuYnBXOSLQEDtMkBKfqvBEwduQPMx3z+NFKHBL1aiQOFTcMBs
QJXBvgWOQFEpo8DcLY3BzhVjQKo8X0Dtk5LBkcvDQIc+aUA8yp/BfUSoQLFBvT/j0JDBcbxQQBtZ
q0A6KofBzTRaQD3pzECZG5HB6xVLQFezg0A7V6TBjSDcQNIn6D1o54XBaGsCQWblyL6Zf2vBwjEG
QUAV5D8RpnzBuznZQBwEoj9YqqzBRp2iQDO7l752XqbBVenkQGrCkb9qJa7BjrbmQDDNBEGcmarB
gIW/QDSNI0FcyqvBwcznQITGSb/8eHvBB5HuQPSDsz8gQIbB/GsLQXMgZT/98mvBLNKwQEA9gz/4
/qfBFkrzQNzbOz6+tK/BuXy8QJwusL+Kg6nBL0/iQEHiDUHOraDBjyjWQE9ICcBl8nrBTYriQCkf
FkBExo7BqWP6QPJsgcAsu5XBbQ7oQARTo8D8Lo7B6hvzQDDiLMDAEJDB+LSrQO9D/EAy24nB/ZHA
QD2dwEDUZpbBDOKOQJ3D3EC03YPBa5vIQCrtisDMEYfBcu2gQOINo0BcUpDBF54bQWC/pT+zM1vB
WJPNQFTwDkGMz7zBxZ4tQDLtS8C2ronBKpiUQBp4C0DutqTBsMybQMoyh8A6KozBROeKQDaMgkDM
uJfBSveqQPU7REAyVZzBvgLKQGnTIEH4qqHBIZnQQHJEEkHsH7HBwvfbQFS5QMByFYbBmXfOQL7i
5ECwho/BYMW6QDOKDUDIm5PBizJ9QKqJvEBqWovB/HfEQDNdIsC7mGrB5Sj7QCGUT0AMYZHBqnX/
QARWE0Gk/ozBm+UMQfjY5kB425fBLLZqQOy6mECaJaDBlkOCQIXAUsCEGIbBlPUMQUdQ1D6uNrTB
hVWuQH0KKcB4H6jBBCP3QCv0AUHUoJTBQBbFQMcGOr5K5YvBmqkGQf0iir8W217BTJ4NQYllMEAY
Vn3B2hzkQNnbEUDa5q3B3dyDQEZb9b4mtaLBw9/4QDwh/L8+gLDBS7b3QC2/7EB4u6zBnFytQJOX
MEFwL6/BVmEOQeLohsBXC5fBl4zpQB4PgsAFdZ3BbGrXQPJyvMAlu5LB7M8AQdTVscANWInBCvkI
QckxDsAvQI7By9nfQMEgAsB3IpXBQXSYQO4JB0GfuY/BH/K5QIhkCUH/GoTB9NDcQPTlrUAUyZjB
HbGwQF9ZzUDMlJ3Bb2ehQHHkzEDiCnvBw7VnQLgr7kArSIDBwinGQLCTmsD6a37BzKyyQHCXkUDn
GYrBlMErQQkmgj84omDBV98aQRd6GEAtq1jBTQUYQcTnRj/oGEzB7y+6QLbFG0FnYsDBFNvtQH0u
D0FbUcDB5HC+QNrC/kAXbb7B4zQLQOZuHcCgqoTBDqosQEVUNsCqDpLBD1AOQOplhcDiE4nB8SSN
QJJWMkC3z6vBtX9tQOpT5D/fSKHBA+eeQIJzd8C7cpTBLzeMQLfCpsBMJYzBj6VmQOd9YUA18JLB
QavFQJunZkBgH6DBuIinQKDdvT/X+ZDBRiZWQPLEqEBmYofBz3BcQHxqy0DkIZHBcHtPQHWhhECq
uKTB

>  <OMEGA_E>  (183) 
eA6CPihTPD4=

>  <OMEGA_NBR>  (183) 
     27190

$$$$
50162154
     RDKit          3D

 81 84  0  0  1  0  0  0  0  0999 V2000
    6.8895    0.0603  -16.6768 C   0  0  0  0  0  0  0  0  0  0  0  0
    8.0629   -0.4934  -14.6123 C   0  0  0  0  0  0  0  0  0  0  0  0
    8.3637    1.7004  -15.6323 C   0  0  0  0  0  0  0  0  0  0  0  0
    6.9704    1.2956  -21.4561 C   0  0  0  0  0  0  0  0  0  0  0  0
    5.2429   -0.3038  -20.8011 C   0  0  0  0  0  0  0  0  0  0  0  0
    7.3614   -1.0982  -21.7107 C   0  0  0  0  0  0  0  0  0  0  0  0
    7.1970   -0.8620  -15.6580 C   0  0  0  0  0  0  0  0  0  0  0  0
    7.4720    1.3466  -16.6682 C   0  0  0  0  0  0  0  0  0  0  0  0
    8.6383    0.7905  -14.5923 C   0  0  0  0  0  0  0  0  0  0  0  0
    5.6861    1.0265  -20.9335 C   0  0  0  0  0  0  0  0  0  0  0  0
    7.8094    0.2325  -21.8377 C   0  0  0  0  0  0  0  0  0  0  0  0
    6.0750   -1.3635  -21.1988 C   0  0  0  0  0  0  0  0  0  0  0  0
    6.6117   -2.2050  -15.6760 C   0  0  0  0  0  0  0  0  0  0  0  0
    7.1259    2.3149  -17.7201 C   0  0  0  0  0  0  0  0  0  0  0  0
    7.8239   -4.0964  -18.6896 C   0  0  0  0  0  0  0  0  0  0  0  0
    7.1918   -5.1455  -17.7775 C   0  0  0  0  0  0  0  0  0  0  0  0
    7.6705   -2.7670  -17.9351 C   0  0  0  0  0  0  0  0  0  0  0  0
    5.3961    7.9126  -17.2779 C   0  0  0  0  0  0  0  0  0  0  0  0
    6.0562    6.0056  -18.7977 C   0  0  0  0  0  0  0  0  0  0  0  0
    4.5167    6.9367  -16.4898 C   0  0  0  0  0  0  0  0  0  0  0  0
    6.1785   -4.3608  -16.9456 C   0  0  2  0  0  0  0  0  0  0  0  0
    5.0816    5.0977  -17.9986 C   0  0  2  0  0  0  0  0  0  0  0  0
    9.6030    1.1666  -13.4921 C   0  0  0  0  0  0  0  0  0  0  0  0
    2.6425   -3.2075  -17.4074 C   0  0  0  0  0  0  0  0  0  0  0  0
    6.9189    9.0815  -20.1017 C   0  0  0  0  0  0  0  0  0  0  0  0
    4.7725    2.1573  -20.5266 C   0  0  0  0  0  0  0  0  0  0  0  0
    4.8304   -4.1862  -17.6741 C   0  0  0  0  0  0  0  0  0  0  0  0
    4.4062    4.0470  -18.8941 C   0  0  2  0  0  0  0  0  0  0  0  0
    5.4300    3.0434  -19.4527 C   0  0  1  0  0  0  0  0  0  0  0  0
    6.8176   -3.0531  -16.7625 N   0  0  0  0  0  0  0  0  0  0  0  0
    6.4772    7.1878  -18.0053 N   0  0  0  0  0  0  0  0  0  0  0  0
    5.8995    2.1859  -18.3571 N   0  0  0  0  0  0  0  0  0  0  0  0
    4.0058    5.9014  -17.3933 N   0  0  0  0  0  0  0  0  0  0  0  0
    5.9730   -2.5888  -14.7024 O   0  0  0  0  0  0  0  0  0  0  0  0
    7.8950    3.2287  -17.9989 O   0  0  0  0  0  0  0  0  0  0  0  0
    8.7041    7.2857  -19.3164 O   0  0  0  0  0  0  0  0  0  0  0  0
    8.0968    9.1744  -17.7269 O   0  0  0  0  0  0  0  0  0  0  0  0
    3.7170    4.7040  -19.9600 O   0  0  0  0  0  0  0  0  0  0  0  0
    3.9882   -3.2932  -16.9172 O   0  0  0  0  0  0  0  0  0  0  0  0
    9.0380    0.4903  -22.3402 F   0  0  0  0  0  0  0  0  0  0  0  0
    5.6302   -2.6350  -21.0999 F   0  0  0  0  0  0  0  0  0  0  0  0
    7.6946    8.1773  -18.7278 S   0  0  0  0  0  0  0  0  0  0  0  0
    6.2066   -0.2167  -17.4663 H   0  0  0  0  0  0  0  0  0  0  0  0
    8.2863   -1.1968  -13.8238 H   0  0  0  0  0  0  0  0  0  0  0  0
    8.8366    2.6713  -15.6371 H   0  0  0  0  0  0  0  0  0  0  0  0
    7.3079    2.3160  -21.5627 H   0  0  0  0  0  0  0  0  0  0  0  0
    4.2638   -0.5091  -20.3940 H   0  0  0  0  0  0  0  0  0  0  0  0
    8.0040   -1.9146  -22.0056 H   0  0  0  0  0  0  0  0  0  0  0  0
    8.8866   -4.3231  -18.8609 H   0  0  0  0  0  0  0  0  0  0  0  0
    7.2975   -4.0558  -19.6547 H   0  0  0  0  0  0  0  0  0  0  0  0
    6.6898   -5.9250  -18.3695 H   0  0  0  0  0  0  0  0  0  0  0  0
    7.9518   -5.6085  -17.1309 H   0  0  0  0  0  0  0  0  0  0  0  0
    8.6543   -2.3978  -17.6098 H   0  0  0  0  0  0  0  0  0  0  0  0
    7.1919   -2.0156  -18.5803 H   0  0  0  0  0  0  0  0  0  0  0  0
    4.7721    8.4524  -18.0054 H   0  0  0  0  0  0  0  0  0  0  0  0
    5.8509    8.6312  -16.5803 H   0  0  0  0  0  0  0  0  0  0  0  0
    6.9481    5.4210  -19.0676 H   0  0  0  0  0  0  0  0  0  0  0  0
    5.5531    6.3504  -19.7131 H   0  0  0  0  0  0  0  0  0  0  0  0
    5.1126    6.4670  -15.6934 H   0  0  0  0  0  0  0  0  0  0  0  0
    3.6727    7.4825  -16.0427 H   0  0  0  0  0  0  0  0  0  0  0  0
    6.0186   -4.8588  -15.9779 H   0  0  0  0  0  0  0  0  0  0  0  0
    5.6482    4.5815  -17.2096 H   0  0  0  0  0  0  0  0  0  0  0  0
   10.6250    0.8879  -13.7887 H   0  0  0  0  0  0  0  0  0  0  0  0
    9.5550    2.2516  -13.3176 H   0  0  0  0  0  0  0  0  0  0  0  0
    9.3313    0.6342  -12.5686 H   0  0  0  0  0  0  0  0  0  0  0  0
    2.0670   -2.5106  -16.7804 H   0  0  0  0  0  0  0  0  0  0  0  0
    2.6529   -2.8435  -18.4454 H   0  0  0  0  0  0  0  0  0  0  0  0
    2.1756   -4.2029  -17.3726 H   0  0  0  0  0  0  0  0  0  0  0  0
    7.6677    9.7246  -20.5872 H   0  0  0  0  0  0  0  0  0  0  0  0
    6.5214    8.3640  -20.8346 H   0  0  0  0  0  0  0  0  0  0  0  0
    6.0980    9.7029  -19.7144 H   0  0  0  0  0  0  0  0  0  0  0  0
    4.5466    2.7721  -21.4104 H   0  0  0  0  0  0  0  0  0  0  0  0
    3.8390    1.7375  -20.1237 H   0  0  0  0  0  0  0  0  0  0  0  0
    5.0060   -3.7648  -18.6749 H   0  0  0  0  0  0  0  0  0  0  0  0
    4.3357   -5.1641  -17.7697 H   0  0  0  0  0  0  0  0  0  0  0  0
    3.6838    3.4896  -18.2796 H   0  0  0  0  0  0  0  0  0  0  0  0
    6.2733    3.5916  -19.8980 H   0  0  0  0  0  0  0  0  0  0  0  0
    5.2910    1.4554  -18.0471 H   0  0  0  0  0  0  0  0  0  0  0  0
    3.4038    5.2932  -16.8759 H   0  0  0  0  0  0  0  0  0  0  0  0
    3.4854    6.3426  -18.1244 H   0  0  0  0  0  0  0  0  0  0  0  0
    3.2989    4.0557  -20.5145 H   0  0  0  0  0  0  0  0  0  0  0  0
  1  7  2  0
  1  8  1  0
  2  7  1  0
  2  9  2  0
  3  8  2  0
  3  9  1  0
  4 10  2  0
  4 11  1  0
  5 10  1  0
  5 12  2  0
  6 11  2  0
  6 12  1  0
  7 13  1  0
  8 14  1  0
  9 23  1  0
 10 26  1  0
 11 40  1  0
 12 41  1  0
 13 30  1  0
 13 34  2  0
 14 32  1  0
 14 35  2  0
 15 16  1  0
 15 17  1  0
 16 21  1  0
 17 30  1  0
 18 20  1  0
 18 31  1  0
 19 22  1  0
 19 31  1  0
 20 33  1  0
 21 27  1  0
 21 30  1  0
 22 28  1  0
 22 33  1  0
 24 39  1  0
 25 42  1  0
 26 29  1  0
 27 39  1  0
 28 29  1  0
 28 38  1  0
 29 32  1  0
 31 42  1  0
 36 42  2  0
 37 42  2  0
  1 43  1  0
  2 44  1  0
  3 45  1  0
  4 46  1  0
  5 47  1  0
  6 48  1  0
 15 49  1  0
 15 50  1  0
 16 51  1  0
 16 52  1  0
 17 53  1  0
 17 54  1  0
 18 55  1  0
 18 56  1  0
 19 57  1  0
 19 58  1  0
 20 59  1  0
 20 60  1  0
 21 61  1  1
 22 62  1  1
 23 63  1  0
 23 64  1  0
 23 65  1  0
 24 66  1  0
 24 67  1  0
 24 68  1  0
 25 69  1  0
 25 70  1  0
 25 71  1  0
 26 72  1  0
 26 73  1  0
 27 74  1  0
 27 75  1  0
 28 76  1  1
 29 77  1  6
 32 78  1  0
 33 79  1  0
 33 80  1  0
 38 81  1  0
M  CHG  1  33   1
M  END
>  <OMEGA_C>  (184) 
jXbcQDgWdz0BaoXBswEBQaqh/L7cy2nBnNEFQUym2T++HXrBcA3fQGjWpT8kpqvBzMWnQM+Om76q
aKbBtJDrQAqSjL91r63Bxk3mQKCpXL9Uh3rB3BrvQHBcrD9lWIXBiTYKQbBeSj8vemnBjvS1QO5i
gz/Fd6fBwub5QLATbj6ws67BNmbCQDCHrr8ul6nBGpPTQI4eDcAU0XrBgAfkQMAnFEC8wo3BPl36
QGEVg8BjhJXBJiPmQOKnpMBYOI7BDHX1QOcWMcAne4/BEq2sQKoz/UAsOYrBuMzBQOYtwEDDYZbB
roiQQEj53UAD64PBYbbFQICLi8CdkIfBG5yiQGwgo0AO/Y/B7aUZQQpSlT+y31fB/B0pQOFGTcBS
QovB4GfdQNtNEUE/0KDBUriYQC8RCkCSNqTBdZKaQKz1hcCkZI3Bdf+MQBSBgUAOJ5fBS8KtQJPG
QkAcn5vBrynaQB9mQ8ClGYbBQEXPQMoC5kDyCpDBosi8QLTlC0BL25LBmy+AQE7YvECBJYvBpyK/
QLWuJcDsPGvBqKP8QNmiTkDU/Y/BB0QLQWAk6UD+h5rBo4wBQX7KEkGl0I3B6+JtQDiHlkAQrp/B
1z5/QEzDUsBsVofB0psQQeQI+z64uLLBnyq0QLijKMCNzKjB2jn2QEzWAkGF0pXBnJzGQDXlXb77
uovBqJQEQRYymb8+Ll3Bj2INQUf3KkBvMXrBcNrpQK04FEBjgKzBXnGIQLtWAr8CJ6PBWRAAQT8S
9b9pC7DBWS8OQaVWisAM45bBGoXpQFzJgcDDPJ3B4hLWQIOZvcCl9JLBv3T+QMd4s8AcDInBE3gK
QSJ1GcDi4IzB7CPmQN//AMCFpJTBQrWYQAo9B0EAC5DBojq7QGwZCkFipITB8VbeQOJ4rUBhipjB
0rKxQKQ2y0B4tJ3BsZqjQHLxzkANGHvBew1rQD1w70CIV4DBIJjAQDl7m8CepX/B+b20QOSbkkA6
rYnBz/8pQVtMYz+InlzBVeEYQbAZEEC9FFXBIk0VQQReIj8YGUnBOUkEQPKsIMAvPobBiskpQCr7
NcAZkJPBwzwLQMB9hsAM+4rBMV71QNqXG0GcsqTBlq/QQPrSBUFLrabBsyLDQO4+G0Elt53BqX2R
QNRpMUB6SKvBhbJ1QBxn3j89/aDBhTGgQFXycMAzZpXBVr6KQDVApcBuKI7BHMRrQHZVX0C4PJLB
277IQALcZUAUL5/B9E+pQF5Juj9/YJDBV9hZQNhhqUDhAYfBzBBfQJX2ykDQ/pDBmyFTQHzIgUCr
HaTByw3cQJCUcj34d4XB+MUAQefI+b402mnBlJ8FQUq12T/OSHrBsdOnQN3zkr5UiKbBOG7fQLNF
pz92qqvBFcrrQG5Zi79Up63Bx9vlQAAGXL9okXrBVbPuQFQ6rD8Ca4XB1mQKQfR+SD8B4GnBsSa2
QCpVhT/jk6fB7nTCQNm5rL8jpanBG0j6QK5qdj7Lp67BAUzTQJ0ODcB4wHrBG7njQFkYFEAS1o3B
Mb/4QF71gsC+pJXBs6zmQHGhpMBnCo7Bw070QFbhMMCAk4/Bn7CsQKRP/UAIOorB6KbBQHROwEDD
ZJbBzlaQQLIq3kB68YPBFQjGQGEQjMDHU4fBOXiiQCU/o0DRApDBessYQZxkmD+ymlfBi8spQAn5
TcA5J4vBiRPeQLsSEUFD36DBz+aYQKMoC0CCX6TBbVOaQCfsh8DB+YzBsOmMQGi0gUBQNpfBZ7et
QC9eQ0AatJvB3GTZQAAhQ8DKHIbBID3PQE395UCfCJDBN4e8QOwbDEBE9JLBqgeAQDX4vECnKovB
JAjAQLBwJsC84WrBb4b8QKQyTkAdF5DB+GcLQVKq6ECpYprBqJUBQUq9EkExzY3B5M5tQDvVlkCN
up/ByAKAQBE8U8BlRofBHQm0QHKeJ8B04KjBft0QQbHh/D6xnLLB0XL2QDq1AkHbyJXBGkHGQJjN
Yb7YyYvBogQEQbD8lr8S/FzBeukMQRGGK0BxNHrBdV+IQJln+r6nVqPBlV3qQDfeFEDpfqzB1y0A
Qfsk9L8v9a/BdUUNQeWjicBRc5fB0kjmQDQfgsAOIp3ByRnXQM+bvsAyhpLBEAoAQVEEssBv84jB
ofoJQd6MGcCZD43B0tnkQFGWAMCIrpTBGtqYQKdZB0GIDZDBQEu7QPIbCkF9oYTBrCLeQA6SrUBB
lZjBY4OxQFl5y0Dosp3BBUGjQBwoz0ClFHvBAppqQFW570AFaYDBh+jBQOerm8C0A3/Bu5O0QCas
kkA4tInBAXQpQeNzbj+VfFvBuYQXQTCoEUDYCVXBzeYTQT9NKT/A+EjBoQcGQJujHsBgaobBi1gq
QH9ROsBgmpPBjN0KQGd4hsAXa4rBVTn2QEtIG0G3vKTB6n3RQM6JBUEXuqbBwMHDQG8WG0Eo3J3B
iA2SQAHGMkB7cavBZq51QCTk4D+kPaHBXTOfQAhwecB8OpXBKluKQJlJp8A8GY3BrpFrQDuPX0Ab
UpLBjMvIQIafZkDvMZ/BavioQHbDuj9ngpDB1JZZQIKAqUBOBYfBBbReQB4My0BgBJHBjB9TQJ4k
gkD0L6TB9t3bQOCndj3dcIXBKhUBQafZ+75ODWrB7kUFQYs92z+HInrBF9XdQEzCqD8+iKvBZPqm
QCV0mb5nZabBKxvrQAr9iL/hp63B82rmQAK+Xb9Fv3rBA+vtQK9VrT8KUoXB+PoJQVjZTD9RoWnB
+MC0QEaKhD+AX6fBDw75QOGmhz46m67BafHBQMS1rL83nqnBvX3UQA0fDsDuK3vBADfiQCzfFECf
pY3BnQz6QPlRgcAuL5bB+3npQArmo8CBpo7BrbD1QHD8LsD81Y/BFbaqQD3mAEE4bozB0rXEQMfO
vkDFIJbB7byTQGAb4kCp8ITBLLvIQAqsjMDcqofBj1qiQGHOo0AJB5DBQmoZQQN1lz/aEFjBNust
QIuXUsAxJYvBN5zFQDbSH0EkaaDBQRKXQAn9CUCDEKTBJ3qcQGi8icD7DI3B2/SLQDHkgkDAPpfB
IB6sQLLwQkDdhJvBaaraQLj5QsDBb4bBfmS7QCNs7UC4cJbBgMm6QB+NDEB8q5LBiiCBQP8Lv0DS
KYvBX6PBQEPyKMAXVGvBV4f6QAjgT0DT3Y/Bi7fiQCU890C4jajBShkCQaeiCUHhXZfBvsZuQL3E
mEBk2p/BxRWAQKzpYcCPZobBWioQQbozCT9PmbLB+/qzQLj2J8A/76jBLjbeQJb0BUGiC57B1+3F
QKwmYb7MuovBwOcEQQFOmb8pi13BmqIMQTcnLEA1KnrBwlLoQGfpFUDAWazBR66HQAJWBL9yK6PB
lvP/QFuO8L9BBbDBOtoNQcFHh8DBSZjBtafmQHEZgMCThZ3BjjraQJT4vcBtK5PBfs8BQQL0sMCa
vonBdK4KQTdqGMBOO43Bo1nmQMsL+78+yZTB3/uTQEOQDUEpro7Btc3FQBv/B0EhE4jBu8XjQLUn
ukC5J5LB65XGQAQCs0DTZ57BQeOqQLIC1UAOWn7BREt0QMLw8kC4moDB8dzFQJ69nMDRvX/BaOiy
QGA3kkBWoInBk84pQdYhbD+y7VzBdGUYQXMIEUBFJVXBO0cVQdvtIz8VVEnBDGAGQIuYLMCPoIXB
kiU2QFdXL8BhsZLBCjMOQN0NiMA1wYzBbD7bQLnKKUHJPaXBNjunQN6aHUEyt6TBYW2/QBnAJ0E8
tZjBa2OPQMo0MUCcHavBx+xyQFfP3D/PyKDBULafQA9XdMDn5pTBaFGPQCkbqsDkHI7BILxnQLnx
Y0CKa5LBHIDHQJWTZEBFHJ/BVRqnQDACvT8rF5DBUwxeQMIWrUB3VIbBpdddQKZgy0C8+ZDBavJS
QLeVhEDlWKTB02LcQHxIqT25lYXBZh4CQQYx5b47sWrB/v4FQTol3z8vSnvBDevbQDiFoj/TE6zB
UFClQMtunr4MEKbBYCToQNqvkL8Is63BiL3nQGYmVb+P+3rB8oruQPwmsD/7soXBKBMLQVZzVz9X
vGrB5k2zQJ38gT+Qj6fBsV72QHfiSD6SG6/BOYS/QO2fsL/DNqnBb9HVQBPnC8CZz3rB5YHiQPGI
FUAVHI7BNUv4QPWSgsDp7pXBcBTnQC1BpMBkN47BRc70QBAeMMCk0I/BX6WoQD0UAEHRv4vBjdbC
QJUbwED0jpbB16mSQNzZ3kANkYTBvYzHQL2ri8D9LYfBPRqiQORFo0B6a5DBmgsbQbwcnT8srlnB
XNcrQIPSTMBh2onBdkgFQbWvCEFnOJfBnmuWQHULCkBpY6TB4eaaQOqih8D2WIzBbcyLQMnBgkAc
tJfBNQCsQGYcQ0Dy8pvB0fjaQDEsQsCGKYbB3Xy3QIlt7kCYPZbBF+e6QCIWDUCFDZPBaYOAQP6r
vEAeIYvB/JLDQFZQJcD6pGrB1+n6QJPmT0DfhpDBwQvFQO3JHUHrBJ3BQcjdQE64/ECeYqjBjNhu
QNzgmED9TqDBzXOBQOg5U8BtUIbBUJQOQV5h4T7QfLPBEk6xQIhcKcC6BqjBgR3XQBkgCEEK0J3B
7cnFQFY7Ur7js4vBvS8GQXBtkr8eIF7BqmMNQVAHLkDCqnvBzqfmQMRWEkAiNK3BG3SGQESdAL8i
fqLBKlz8QKNF+r9ZDrDBdegMQWpeicAFA5jB8uPkQLWZgcCBRZ3B5rfWQHUKvsCvl5LBa40AQWnn
scBSX4nB8GYKQeMtGcB6h43BaOTkQEcp/7+Vy5TBVdCRQHwXDUGqVo3B5pHEQIh9BkHQdIfBeJri
QPfvu0DA6ZLBaujDQBW9tUC09p7BUkyqQBsy0UA8BX7BPeNxQPtm7kDf+H/BQMjEQD1Am8BQo37B
4PGzQP9ukUCcSIrBM0MrQQ/4dD93+V7BzjkaQU38E0C54lbB10YXQeK+MT8CwUrBAI4JQMz/HcAd
34TBcoEqQGfgN8C8QJLBbaoMQMnYhcDyJonBZDUQQac+E0F5qZvBzlQDQee8DkHDA4/BhfgLQR3U
8EDl95bBJh+PQJW/MEBRgqvBURhxQDYD4D+WD6HBJUqeQANkeMBioJTBORaLQGMVp8CkWYzBhSdn
QLt7Y0AB8ZLBCz3HQOSkZECfn5/Biz2nQNWavj8jZJDBR0BeQGVdqUCqdYbBi11bQJOpyUAjuZDB
bRhTQOjShECl2KTB

>  <OMEGA_E>  (184) 
sEZpPsCkZj5wleM+KGjkPg==

>  <OMEGA_NBR>  (184) 
     32502

$$$$
50162152
     RDKit          3D

 85 89  0  0  1  0  0  0  0  0999 V2000
    6.4014    9.7892  -20.4564 C   0  0  0  0  0  0  0  0  0  0  0  0
    6.1039    9.9542  -21.8908 C   0  0  0  0  0  0  0  0  0  0  0  0
    6.8964    0.1041  -16.7330 C   0  0  0  0  0  0  0  0  0  0  0  0
    8.1501   -0.4254  -14.7098 C   0  0  0  0  0  0  0  0  0  0  0  0
    8.3961    1.7620  -15.7546 C   0  0  0  0  0  0  0  0  0  0  0  0
    6.8193    1.3019  -21.5393 C   0  0  0  0  0  0  0  0  0  0  0  0
    5.1167   -0.2889  -20.8027 C   0  0  0  0  0  0  0  0  0  0  0  0
    7.1995   -1.0950  -21.7819 C   0  0  0  0  0  0  0  0  0  0  0  0
    7.2503   -0.8089  -15.7204 C   0  0  0  0  0  0  0  0  0  0  0  0
    7.4725    1.3930  -16.7560 C   0  0  0  0  0  0  0  0  0  0  0  0
    8.7140    0.8628  -14.7189 C   0  0  0  0  0  0  0  0  0  0  0  0
    5.5551    1.0397  -20.9677 C   0  0  0  0  0  0  0  0  0  0  0  0
    7.6428    0.2341  -21.9404 C   0  0  0  0  0  0  0  0  0  0  0  0
    5.9330   -1.3539  -21.2195 C   0  0  0  0  0  0  0  0  0  0  0  0
    7.1417    8.6573  -20.2088 C   0  0  0  0  0  0  0  0  0  0  0  0
    6.6193    8.9316  -22.6528 C   0  0  0  0  0  0  0  0  0  0  0  0
    6.6897   -2.1624  -15.7107 C   0  0  0  0  0  0  0  0  0  0  0  0
    7.0959    2.3475  -17.8080 C   0  0  0  0  0  0  0  0  0  0  0  0
    7.8326   -4.0301  -18.7562 C   0  0  0  0  0  0  0  0  0  0  0  0
    7.2182   -5.0941  -17.8439 C   0  0  0  0  0  0  0  0  0  0  0  0
    7.6033   -2.6926  -18.0379 C   0  0  0  0  0  0  0  0  0  0  0  0
    5.3847    7.8886  -17.2102 C   0  0  0  0  0  0  0  0  0  0  0  0
    6.0238    6.0007  -18.7570 C   0  0  0  0  0  0  0  0  0  0  0  0
    4.4791    6.9142  -16.4516 C   0  0  0  0  0  0  0  0  0  0  0  0
    6.2385   -4.3280  -16.9541 C   0  0  2  0  0  0  0  0  0  0  0  0
    5.0308    5.0914  -17.9886 C   0  0  2  0  0  0  0  0  0  0  0  0
    9.7174    1.2515  -13.6597 C   0  0  0  0  0  0  0  0  0  0  0  0
    2.6875   -3.1549  -17.2797 C   0  0  0  0  0  0  0  0  0  0  0  0
    4.6589    2.1771  -20.5420 C   0  0  0  0  0  0  0  0  0  0  0  0
    4.8481   -4.1780  -17.6063 C   0  0  0  0  0  0  0  0  0  0  0  0
    4.3432    4.0699  -18.9089 C   0  0  2  0  0  0  0  0  0  0  0  0
    5.3510    3.0667  -19.4927 C   0  0  1  0  0  0  0  0  0  0  0  0
    6.8670   -3.0125  -16.8006 N   0  0  0  0  0  0  0  0  0  0  0  0
    6.4628    7.1478  -17.9225 N   0  0  0  0  0  0  0  0  0  0  0  0
    5.8520    2.2133  -18.4081 N   0  0  0  0  0  0  0  0  0  0  0  0
    3.9626    5.9023  -17.3786 N   0  0  0  0  0  0  0  0  0  0  0  0
    6.1131   -2.5598  -14.7043 O   0  0  0  0  0  0  0  0  0  0  0  0
    7.8605    3.2536  -18.1212 O   0  0  0  0  0  0  0  0  0  0  0  0
    7.8993    9.2906  -17.7537 O   0  0  0  0  0  0  0  0  0  0  0  0
    8.8650    7.1991  -18.8437 O   0  0  0  0  0  0  0  0  0  0  0  0
    3.6596    4.7559  -19.9601 O   0  0  0  0  0  0  0  0  0  0  0  0
    4.0518   -3.2462  -16.8452 O   0  0  0  0  0  0  0  0  0  0  0  0
    8.8511    0.4859  -22.4924 F   0  0  0  0  0  0  0  0  0  0  0  0
    5.4935   -2.6247  -21.0875 F   0  0  0  0  0  0  0  0  0  0  0  0
    7.4501    7.7645  -21.6719 S   0  0  0  0  0  0  0  0  0  0  0  0
    7.7297    8.0988  -18.5965 S   0  0  0  0  0  0  0  0  0  0  0  0
    6.5073    8.8133  -24.3877 Cl  0  0  0  0  0  0  0  0  0  0  0  0
    6.0759   10.4769  -19.6899 H   0  0  0  0  0  0  0  0  0  0  0  0
    5.5447   10.7839  -22.2973 H   0  0  0  0  0  0  0  0  0  0  0  0
    6.1838   -0.1819  -17.4925 H   0  0  0  0  0  0  0  0  0  0  0  0
    8.4083   -1.1214  -13.9254 H   0  0  0  0  0  0  0  0  0  0  0  0
    8.8601    2.7368  -15.7828 H   0  0  0  0  0  0  0  0  0  0  0  0
    7.1537    2.3207  -21.6683 H   0  0  0  0  0  0  0  0  0  0  0  0
    4.1539   -0.4887  -20.3561 H   0  0  0  0  0  0  0  0  0  0  0  0
    7.8306   -1.9149  -22.0914 H   0  0  0  0  0  0  0  0  0  0  0  0
    8.9086   -4.2143  -18.8915 H   0  0  0  0  0  0  0  0  0  0  0  0
    7.3344   -4.0302  -19.7370 H   0  0  0  0  0  0  0  0  0  0  0  0
    6.6894   -5.8547  -18.4371 H   0  0  0  0  0  0  0  0  0  0  0  0
    7.9960   -5.5790  -17.2357 H   0  0  0  0  0  0  0  0  0  0  0  0
    8.5663   -2.2187  -17.7972 H   0  0  0  0  0  0  0  0  0  0  0  0
    7.0099   -2.0164  -18.6709 H   0  0  0  0  0  0  0  0  0  0  0  0
    4.7833    8.4467  -17.9429 H   0  0  0  0  0  0  0  0  0  0  0  0
    5.8386    8.5920  -16.4966 H   0  0  0  0  0  0  0  0  0  0  0  0
    6.9051    5.4075  -19.0426 H   0  0  0  0  0  0  0  0  0  0  0  0
    5.5310    6.3844  -19.6625 H   0  0  0  0  0  0  0  0  0  0  0  0
    5.0566    6.4212  -15.6557 H   0  0  0  0  0  0  0  0  0  0  0  0
    3.6383    7.4663  -16.0063 H   0  0  0  0  0  0  0  0  0  0  0  0
    6.1412   -4.8320  -15.9812 H   0  0  0  0  0  0  0  0  0  0  0  0
    5.5810    4.5508  -17.2044 H   0  0  0  0  0  0  0  0  0  0  0  0
   10.7289    0.9772  -13.9939 H   0  0  0  0  0  0  0  0  0  0  0  0
    9.6693    2.3373  -13.4901 H   0  0  0  0  0  0  0  0  0  0  0  0
    9.4850    0.7234  -12.7232 H   0  0  0  0  0  0  0  0  0  0  0  0
    2.1504   -2.4280  -16.6527 H   0  0  0  0  0  0  0  0  0  0  0  0
    2.6582   -2.8261  -18.3290 H   0  0  0  0  0  0  0  0  0  0  0  0
    2.2078   -4.1407  -17.1908 H   0  0  0  0  0  0  0  0  0  0  0  0
    4.4105    2.7876  -21.4227 H   0  0  0  0  0  0  0  0  0  0  0  0
    3.7354    1.7642  -20.1098 H   0  0  0  0  0  0  0  0  0  0  0  0
    4.9648   -3.8047  -18.6344 H   0  0  0  0  0  0  0  0  0  0  0  0
    4.3462   -5.1567  -17.6264 H   0  0  0  0  0  0  0  0  0  0  0  0
    3.6147    3.5073  -18.3066 H   0  0  0  0  0  0  0  0  0  0  0  0
    6.1803    3.6131  -19.9657 H   0  0  0  0  0  0  0  0  0  0  0  0
    5.2539    1.4829  -18.0782 H   0  0  0  0  0  0  0  0  0  0  0  0
    3.3461    5.2947  -16.8779 H   0  0  0  0  0  0  0  0  0  0  0  0
    3.4564    6.3644  -18.1068 H   0  0  0  0  0  0  0  0  0  0  0  0
    3.2352    4.1236  -20.5280 H   0  0  0  0  0  0  0  0  0  0  0  0
  1  2  1  0
  1 15  2  0
  2 16  2  0
  3  9  2  0
  3 10  1  0
  4  9  1  0
  4 11  2  0
  5 10  2  0
  5 11  1  0
  6 12  2  0
  6 13  1  0
  7 12  1  0
  7 14  2  0
  8 13  2  0
  8 14  1  0
  9 17  1  0
 10 18  1  0
 11 27  1  0
 12 29  1  0
 13 43  1  0
 14 44  1  0
 15 45  1  0
 15 46  1  0
 16 45  1  0
 16 47  1  0
 17 33  1  0
 17 37  2  0
 18 35  1  0
 18 38  2  0
 19 20  1  0
 19 21  1  0
 20 25  1  0
 21 33  1  0
 22 24  1  0
 22 34  1  0
 23 26  1  0
 23 34  1  0
 24 36  1  0
 25 30  1  0
 25 33  1  0
 26 31  1  0
 26 36  1  0
 28 42  1  0
 29 32  1  0
 30 42  1  0
 31 32  1  0
 31 41  1  0
 32 35  1  0
 34 46  1  0
 39 46  2  0
 40 46  2  0
  1 48  1  0
  2 49  1  0
  3 50  1  0
  4 51  1  0
  5 52  1  0
  6 53  1  0
  7 54  1  0
  8 55  1  0
 19 56  1  0
 19 57  1  0
 20 58  1  0
 20 59  1  0
 21 60  1  0
 21 61  1  0
 22 62  1  0
 22 63  1  0
 23 64  1  0
 23 65  1  0
 24 66  1  0
 24 67  1  0
 25 68  1  1
 26 69  1  1
 27 70  1  0
 27 71  1  0
 27 72  1  0
 28 73  1  0
 28 74  1  0
 28 75  1  0
 29 76  1  0
 29 77  1  0
 30 78  1  0
 30 79  1  0
 31 80  1  1
 32 81  1  6
 35 82  1  0
 36 83  1  0
 36 84  1  0
 41 85  1  0
M  CHG  1  36   1
M  END
>  <OMEGA_C>  (185) 
DdjMQL2gHEHOpqPBNlPDQHBEH0FUIK/BMa/cQJI/1T1E3YXBpGYCQd7O2b5BW2vBOVYGQRaJ4T/g
EnzBGzjaQLGkpj93UKzBOryjQKDqk77ka6bBkGLmQJMnjL9DQa7BJgLoQOMVT7/thnvBpB7vQIxO
sj9PDIbBqmwLQZDfXD/CgGvBjMOxQHwUhT/lvafBf5H0QGmvbz71ha/B/dq9QBlOrb+TwanBtojk
QHCECkGyq6HBEdHTQPPnDkHcOLXBBRLWQItkCsDUXnvBhRHjQKQ8FkC5do7Br6T6QEL2gMDJDJbB
bvvmQCEDo8BJwI7B2U3zQD5TLMC3TZDBL0+sQG5v/ECFronBGMPAQJ4FwEBtDpbBjlSPQNpA3UDV
nIPBwqHHQP1+isAJoofB9fugQMHsokCz6I/BjnobQdowoD9SjlrBnAAsQC7pScC/PIrBohWVQCNW
C0DxVaTBeSObQHSyhcC32YzBGvuKQNQ8gkB/RZfBNjurQCxEREAX8ZvBwb7bQJ3MQMCSZ4bBpM/O
QPC65EBFYY/B5kO7QKumDUDKQ5PBe5t9QAbgvEBoB4vBbp7DQBTTI8CiRGvB2Ij7QGo6UEAr+JDB
DMf8QCKmFEGRB47BGtcNQc9e5kDuv5bBHjdqQJQwmEBNrp/BDqiBQPjBT8AKw4bBRp4NQbLG+D5m
8LPBpcqvQKn6J8Ats6jBAmfuQOd2+EAKYK3BlFn3QNuUAUGIxZTB6TvQQC0DDUH+GcPBIG7CQGCh
J0HghJ3BK26xQAeLLEHNYLLBneHFQOxPOr6h8IvBaYgGQe2Jj79Kzl7BJ8MNQYsnL0B3hnzBMevk
QFKGFEDEWK3Bz+yEQNo1+r472aLBIpT6QAgd9b8eu7DBlIkOQafbhsDiIZfBbrPqQJj3gMBJ5Z3B
Vw/WQFlZu8BGf5PBdd//QH+HssDQ4onBow8JQSv/DcC8YI7BU1HgQAUMAcAZXpXBuBCZQJ4lB0Em
i4/BztW6QKp4CUEO+YPBXPbcQJEKrUBRV5jBr/2wQAJNzEDRTJ3Brc+hQGl6zUC2fXrBgtpoQBDs
7kDaDIDBv4TEQOufmsAms3/BY5eyQM+fkUCsoonBqakrQWIrej/t5l/BT7UaQayVFUBh11fBeMIX
QbIuOT9dkkvBcaAJQI1jG8CuOIXBqyAqQL3eNMC9oZLB5EsNQLaAhMCyhonBJyONQBtoMkCiYavB
gxFvQN/S4T/b4KDB19+eQLl/c8A/E5XB7xOLQE4DpcDVAo3B1ldnQAN3YEDkc5LB6MTFQFQ8Z0C6
uZ/BIyCoQB3RvT8hoJDBCidWQHluqUDaBYfBzDVdQEipy0C52pDBpQ1PQEP0g0BWOaTB

>  <OMEGA_E>  (185) 
wJoTPg==

>  <OMEGA_NBR>  (185) 
     34216

$$$$
50162157
     RDKit          3D

 85 89  0  0  1  0  0  0  0  0999 V2000
    6.8687    0.0444  -16.6748 C   0  0  0  0  0  0  0  0  0  0  0  0
    8.0214   -0.5182  -14.6015 C   0  0  0  0  0  0  0  0  0  0  0  0
    8.3502    1.6715  -15.6201 C   0  0  0  0  0  0  0  0  0  0  0  0
    7.0065    1.3067  -21.4972 C   0  0  0  0  0  0  0  0  0  0  0  0
    5.2711   -0.2752  -20.8204 C   0  0  0  0  0  0  0  0  0  0  0  0
    7.3903   -1.0928  -21.7068 C   0  0  0  0  0  0  0  0  0  0  0  0
    7.1598   -0.8793  -15.6535 C   0  0  0  0  0  0  0  0  0  0  0  0
    7.4651    1.3234  -16.6638 C   0  0  0  0  0  0  0  0  0  0  0  0
    8.6081    0.7604  -14.5774 C   0  0  0  0  0  0  0  0  0  0  0  0
    5.7186    1.0505  -20.9778 C   0  0  0  0  0  0  0  0  0  0  0  0
    7.8429    0.2342  -21.8575 C   0  0  0  0  0  0  0  0  0  0  0  0
    6.1022   -1.3444  -21.1918 C   0  0  0  0  0  0  0  0  0  0  0  0
    6.5640   -2.2173  -15.6773 C   0  0  0  0  0  0  0  0  0  0  0  0
    7.1436    2.2889  -17.7239 C   0  0  0  0  0  0  0  0  0  0  0  0
    7.7783   -4.1067  -18.6914 C   0  0  0  0  0  0  0  0  0  0  0  0
    6.7567   10.2013  -20.7708 C   0  0  0  0  0  0  0  0  0  0  0  0
    7.2394    9.0100  -21.6045 C   0  0  0  0  0  0  0  0  0  0  0  0
    7.1341   -5.1555  -17.7875 C   0  0  0  0  0  0  0  0  0  0  0  0
    7.6220   -2.7776  -17.9372 C   0  0  0  0  0  0  0  0  0  0  0  0
    5.4596    7.8401  -17.1633 C   0  0  0  0  0  0  0  0  0  0  0  0
    6.1351    5.9360  -18.6978 C   0  0  0  0  0  0  0  0  0  0  0  0
    4.5741    6.8492  -16.4073 C   0  0  0  0  0  0  0  0  0  0  0  0
    6.5575    8.7743  -20.2488 C   0  0  0  0  0  0  0  0  0  0  0  0
    6.1245   -4.3692  -16.9520 C   0  0  2  0  0  0  0  0  0  0  0  0
    5.1215    5.0415  -17.9426 C   0  0  2  0  0  0  0  0  0  0  0  0
    9.5688    1.1274  -13.4705 C   0  0  0  0  0  0  0  0  0  0  0  0
    2.6148   -3.1448  -17.4656 C   0  0  0  0  0  0  0  0  0  0  0  0
    4.8172    2.1900  -20.5725 C   0  0  0  0  0  0  0  0  0  0  0  0
    4.7773   -4.1876  -17.6798 C   0  0  0  0  0  0  0  0  0  0  0  0
    4.4477    4.0314  -18.8876 C   0  0  2  0  0  0  0  0  0  0  0  0
    5.4716    3.0417  -19.4696 C   0  0  1  0  0  0  0  0  0  0  0  0
    6.7683   -3.0643  -16.7651 N   0  0  0  0  0  0  0  0  0  0  0  0
    6.5346    7.1520  -17.9414 N   0  0  0  0  0  0  0  0  0  0  0  0
    5.9335    2.1580  -18.3920 N   0  0  0  0  0  0  0  0  0  0  0  0
    4.0537    5.8601  -17.3512 N   0  0  0  0  0  0  0  0  0  0  0  0
    5.9237   -2.6006  -14.7045 O   0  0  0  0  0  0  0  0  0  0  0  0
    7.9213    3.2003  -17.9841 O   0  0  0  0  0  0  0  0  0  0  0  0
    8.6724    7.3932  -19.3553 O   0  0  0  0  0  0  0  0  0  0  0  0
    7.8417    9.3695  -17.9780 O   0  0  0  0  0  0  0  0  0  0  0  0
    3.7791    4.7295  -19.9421 O   0  0  0  0  0  0  0  0  0  0  0  0
    3.9260   -3.3169  -16.9079 O   0  0  0  0  0  0  0  0  0  0  0  0
    9.0758    0.4791  -22.3560 F   0  0  0  0  0  0  0  0  0  0  0  0
    5.6565   -2.6121  -21.0580 F   0  0  0  0  0  0  0  0  0  0  0  0
    7.5641    8.2038  -18.8286 S   0  0  0  0  0  0  0  0  0  0  0  0
    6.1878   -0.2261  -17.4683 H   0  0  0  0  0  0  0  0  0  0  0  0
    8.2327   -1.2235  -13.8114 H   0  0  0  0  0  0  0  0  0  0  0  0
    8.8306    2.6388  -15.6214 H   0  0  0  0  0  0  0  0  0  0  0  0
    7.3488    2.3240  -21.6176 H   0  0  0  0  0  0  0  0  0  0  0  0
    4.2894   -0.4696  -20.4144 H   0  0  0  0  0  0  0  0  0  0  0  0
    8.0305   -1.9166  -21.9859 H   0  0  0  0  0  0  0  0  0  0  0  0
    8.8419   -4.3365  -18.8523 H   0  0  0  0  0  0  0  0  0  0  0  0
    7.2616   -4.0632  -19.6615 H   0  0  0  0  0  0  0  0  0  0  0  0
    7.4878   10.8661  -20.2876 H   0  0  0  0  0  0  0  0  0  0  0  0
    5.8898   10.7904  -21.1045 H   0  0  0  0  0  0  0  0  0  0  0  0
    6.7186    8.7434  -22.5360 H   0  0  0  0  0  0  0  0  0  0  0  0
    8.3166    8.8191  -21.7191 H   0  0  0  0  0  0  0  0  0  0  0  0
    6.6272   -5.9267  -18.3862 H   0  0  0  0  0  0  0  0  0  0  0  0
    7.8884   -5.6293  -17.1421 H   0  0  0  0  0  0  0  0  0  0  0  0
    8.6048   -2.4068  -17.6110 H   0  0  0  0  0  0  0  0  0  0  0  0
    7.1428   -2.0272  -18.5831 H   0  0  0  0  0  0  0  0  0  0  0  0
    4.8325    8.4175  -17.8586 H   0  0  0  0  0  0  0  0  0  0  0  0
    5.9275    8.5225  -16.4385 H   0  0  0  0  0  0  0  0  0  0  0  0
    7.0378    5.3420  -18.9032 H   0  0  0  0  0  0  0  0  0  0  0  0
    5.6798    6.2516  -19.6482 H   0  0  0  0  0  0  0  0  0  0  0  0
    5.1667    6.3425  -15.6314 H   0  0  0  0  0  0  0  0  0  0  0  0
    3.7373    7.3864  -15.9371 H   0  0  0  0  0  0  0  0  0  0  0  0
    5.5379    8.3615  -20.2494 H   0  0  0  0  0  0  0  0  0  0  0  0
    5.9630   -4.8698  -15.9860 H   0  0  0  0  0  0  0  0  0  0  0  0
    5.6531    4.4917  -17.1520 H   0  0  0  0  0  0  0  0  0  0  0  0
   10.5900    0.8387  -13.7599 H   0  0  0  0  0  0  0  0  0  0  0  0
    9.5302    2.2129  -13.2965 H   0  0  0  0  0  0  0  0  0  0  0  0
    9.2855    0.5980  -12.5488 H   0  0  0  0  0  0  0  0  0  0  0  0
    2.0282   -2.4712  -16.8236 H   0  0  0  0  0  0  0  0  0  0  0  0
    2.6990   -2.7103  -18.4726 H   0  0  0  0  0  0  0  0  0  0  0  0
    2.1121   -4.1212  -17.5284 H   0  0  0  0  0  0  0  0  0  0  0  0
    4.6221    2.8245  -21.4497 H   0  0  0  0  0  0  0  0  0  0  0  0
    3.8674    1.7818  -20.1967 H   0  0  0  0  0  0  0  0  0  0  0  0
    4.9532   -3.7437  -18.6708 H   0  0  0  0  0  0  0  0  0  0  0  0
    4.2897   -5.1665  -17.7978 H   0  0  0  0  0  0  0  0  0  0  0  0
    3.7125    3.4574  -18.3045 H   0  0  0  0  0  0  0  0  0  0  0  0
    6.3182    3.6007  -19.8948 H   0  0  0  0  0  0  0  0  0  0  0  0
    5.3325    1.4067  -18.1192 H   0  0  0  0  0  0  0  0  0  0  0  0
    3.4166    5.2589  -16.8690 H   0  0  0  0  0  0  0  0  0  0  0  0
    3.5706    6.3381  -18.0848 H   0  0  0  0  0  0  0  0  0  0  0  0
    3.3642    4.1033  -20.5237 H   0  0  0  0  0  0  0  0  0  0  0  0
  1  7  2  0
  1  8  1  0
  2  7  1  0
  2  9  2  0
  3  8  2  0
  3  9  1  0
  4 10  2  0
  4 11  1  0
  5 10  1  0
  5 12  2  0
  6 11  2  0
  6 12  1  0
  7 13  1  0
  8 14  1  0
  9 26  1  0
 10 28  1  0
 11 42  1  0
 12 43  1  0
 13 32  1  0
 13 36  2  0
 14 34  1  0
 14 37  2  0
 15 18  1  0
 15 19  1  0
 16 17  1  0
 16 23  1  0
 17 23  1  0
 18 24  1  0
 19 32  1  0
 20 22  1  0
 20 33  1  0
 21 25  1  0
 21 33  1  0
 22 35  1  0
 23 44  1  0
 24 29  1  0
 24 32  1  0
 25 30  1  0
 25 35  1  0
 27 41  1  0
 28 31  1  0
 29 41  1  0
 30 31  1  0
 30 40  1  0
 31 34  1  0
 33 44  1  0
 38 44  2  0
 39 44  2  0
  1 45  1  0
  2 46  1  0
  3 47  1  0
  4 48  1  0
  5 49  1  0
  6 50  1  0
 15 51  1  0
 15 52  1  0
 16 53  1  0
 16 54  1  0
 17 55  1  0
 17 56  1  0
 18 57  1  0
 18 58  1  0
 19 59  1  0
 19 60  1  0
 20 61  1  0
 20 62  1  0
 21 63  1  0
 21 64  1  0
 22 65  1  0
 22 66  1  0
 23 67  1  0
 24 68  1  1
 25 69  1  1
 26 70  1  0
 26 71  1  0
 26 72  1  0
 27 73  1  0
 27 74  1  0
 27 75  1  0
 28 76  1  0
 28 77  1  0
 29 78  1  0
 29 79  1  0
 30 80  1  1
 31 81  1  6
 34 82  1  0
 35 83  1  0
 35 84  1  0
 40 85  1  0
M  CHG  1  35   1
M  END
>  <OMEGA_C>  (186) 
eMzbQEy7NT38ZYXBgFcAQZ+oBL/vn2nBbJoFQUL01T8L7HnBFjXgQBRDpz84+qvBJq2oQJDmjL5D
kKbBXH3sQFfgi7+Mp63BtBzlQDMbYb/NdHrBSOLuQHRmqT+KT4XB6boJQYCpQj/0PGnB+/62QBl2
hj9/0qfBHPn6QInRbz483K7B+UTDQAgWrL/oiKnBIgzSQOznDcBB1nrBbJjkQMB8EkCayo3BuOf4
QAJqg8Dsh5XBHzfYQFI4I0GOKqbB0qjnQBQpEEEB1qzBgkrkQOj5pMDlTI7BBOfzQPjEMcBVf4/B
z7SuQGri+kB7TonBdlLEQBj0vUArlZXBQl+SQF0s20ArQoPBCtfRQFtjDEGK/aHBjPvDQGPQi8DL
nYfBgOOjQLpToUB5io/B7hkZQXROkD8hh1fBEFknQF1EScCTuYvBliaaQGooDECOlKTByt+YQH8A
hsBScI3BRlOOQIABgUDoGZfBbBevQJSrQkDGwZvBg5XYQBIdRMDqHobBYhvRQP7c5EDkh4/B/d69
QAgcCkDGIpPB7LeBQD2Gu0A7z4rBN4+9QMBvJsDGRWvB6nr9QO3RTEBh34/BLsIKQTKV7EDB15rB
3O76QIXpFUEB04/BiN1xQLhXl0B2iZ/BEEN7QIlIVMB3Q4fBcjYRQWpI9T4a2bLBtAG1QA4sJ8C9
dqjBRg3yQJVCA0HxoJbBTwLGQCCKZ779vovBErkDQXKanL92+1zBIkoNQezhKEAn8XnBKinrQKq7
FEDS8KzBCEOJQJdq8L6qUKPBHn0AQYpR9b8k46/Ba3gNQajEisCZ0ZbBXl/oQM8FgsDJSp3BWpzv
QJvbLUEPTaLBgHm8QIKlLEEP1qjBo/7WQBjlC0G/SbTBvhAFQTIbDUG/wK3BXBLUQKWnvcDaFpPB
uG38QNUitMAGI4nBdq0JQSMJGsBV44zBu5HkQB29AcAiqpTB8aOaQESuBkFk3o7BEK69QFtcCEEN
goPBbzXhQEPxqkC9OZfBr8C1QGQNyEBtL53B81WlQGz1ykAnGnrB2S9vQJld7ECC/n7BHzaxQOjI
BUG7/qHB+tC+QDrVm8B0xn/Bb+a0QPO7j0A1N4nB1HApQR6yVj99KFzBxHsYQaGfDUCqvlTBlZEU
QXAZGT/Vx0jBys4BQBwoHsCxlobBzLssQMZ0LcDzx5PBQy0HQOvgg8A7OozBR+iTQPnDNEDpmKvB
c4N3QMsS5D/IkqHBfYCeQPeYb8DgXZXBUUWJQPVTpcD0YY7BUJltQNFGXUClb5LBBy/KQFtxZkCV
KJ/BhaOqQIkPtD8J9JDB6KhaQLlIqECk84bBo4RkQOPRykCarZDBbE9XQEdOg0CaMKTBWkLdQOko
5j16o4XBSfkBQZd53L4XiGrBf7gGQUw14D9WSnvBqBTfQG65pT9WAqzB89GnQO96k74BcqbBrRrr
QHppjb9f2K3BLI7nQIagTb9k8nrBLCvwQEaSsj+QxIXBy1ILQdBpWT9ilmrBDRm2QAXZhD+2tKfB
kpn5QJ5CYz7LC6/BmBjCQCGfrb/QmanB8Y7UQPcmCcB123rBE5jkQLfIFkBtOI7BBvn3QIUWgsBN
vJXBPYIDQQl5B0FVPo7Bc4YPQdPV/0DaQZjB0S/lQCRRo8AAII7BOLf0QNvrLsChqI/BzpCaQJ2l
AUFldI7Bj8G+QFyzw0CzNZjBxWiUQAnH4UBeqYXBTO/8QDlvEUH1PJnB+H7FQKzuicADUYfBPaWj
QITWpEAKDJHBRRYbQZFCnT+5S1nBIcUoQCP+R8DXpIrBAu6YQAU5C0Ckk6TBwsCZQHuNhMB94IzB
TteMQFw4gkBAkJfBuMWtQDFTREAmBZzBHxLaQKEAQMBcHYbBStavQNSD8UDUQpjB7xq9QPQTDkC3
NJPBbUWDQGM8u0COoYrBeMfAQCz+IMAY/2rBqAH9QGJCUUCjmZDBy8OyQIDeHkGTlKDBOjXYQAZR
AEEeN6rBUaBpQF7klUC+8Z/Bsd5+QAw/T8A0wYbBE1QQQalu7j5eRrPBSoWzQC/YJ8B7s6jBgcbL
QGr1CkFrMaDBetXGQNI9K74H0ovBY7MFQWRakL/83l3Bt2gOQcD8LUDQqnvBZQvqQFT2E0CU96zB
p6iIQJh8974qDaPBCGz/QDrU9r9xLbDBkscMQRKeicDpk5fBlmrlQInDgMDDNJ3B+pbvQLPB+UBa
XIrBhOELQazwEEF4HojBFYggQXbxA0FyTJnBDnIMQUfD30BUipvBbLbUQDXDvMApmZLBUV3+QGWD
scBGGonBbFwKQfXrGMBSPY3BMIflQCQB/L+zuJTBHQR2QLz6B0GaupDBxnauQOayDkGXRovBHvnf
QDQRw0BZTZXBX6y9QJeyt0BYeqDBU06zQMSk2kBR14HBL7V7QKXQ7UDKOX/By/IDQdnmIUErs5rB
+TTBQNmFmcDx/37BbPW5QLuxlEAUkYvByFMrQbK0cD/LRF7BTnsaQfAvFEAmplbBe+0WQezbND+g
X0rBzd0EQH32GsAtlYXBFrMpQFJRMMA57pLBELsJQFuTg8AYZ4rB8fiRQJQiMkB3s6vBwtZ1QDKU
4T+uYKHBv5GeQEz/bsDQ9ZTB9c+JQDvbo8DNb43BUSluQMSNYUC5MZLBj5/IQA2sZ0AVm5/B6bap
QJ8ovz8+nZDBgKZxQMuIp0C35ITBW69VQLliw0BAYY/B1j1NQLN2gEDBAKTB

>  <OMEGA_E>  (186) 
IPZ0PnDE7D4=

>  <OMEGA_NBR>  (186) 
     37199

$$$$
50162127
     RDKit          3D

 87 90  0  0  1  0  0  0  0  0999 V2000
    5.7269   10.7571  -20.9061 C   0  0  0  0  0  0  0  0  0  0  0  0
    5.7967   10.2088  -22.2013 C   0  0  0  0  0  0  0  0  0  0  0  0
    6.3289   10.0876  -19.8254 C   0  0  0  0  0  0  0  0  0  0  0  0
    6.8030    1.2086  -21.4579 C   0  0  0  0  0  0  0  0  0  0  0  0
    5.1455   -0.4022  -20.6633 C   0  0  0  0  0  0  0  0  0  0  0  0
    7.0797    8.3208  -21.3354 C   0  0  0  0  0  0  0  0  0  0  0  0
    7.1942   -1.1837  -21.7273 C   0  0  0  0  0  0  0  0  0  0  0  0
    6.4589    8.9807  -22.4161 C   0  0  0  0  0  0  0  0  0  0  0  0
    5.5708    0.9298  -20.8275 C   0  0  0  0  0  0  0  0  0  0  0  0
    7.6169    0.1502  -21.9012 C   0  0  0  0  0  0  0  0  0  0  0  0
    5.9530   -1.4571  -21.1177 C   0  0  0  0  0  0  0  0  0  0  0  0
    7.0179    8.8752  -20.0388 C   0  0  0  0  0  0  0  0  0  0  0  0
    6.6933   -2.0511  -15.5566 C   0  0  0  0  0  0  0  0  0  0  0  0
    7.2121    2.4573  -17.6878 C   0  0  0  0  0  0  0  0  0  0  0  0
    8.0183   -3.9356  -18.4443 C   0  0  0  0  0  0  0  0  0  0  0  0
    6.8454   -4.8375  -18.1047 C   0  0  0  0  0  0  0  0  0  0  0  0
    7.5875   -2.5861  -17.8957 C   0  0  0  0  0  0  0  0  0  0  0  0
    5.4175    7.8566  -17.2328 C   0  0  0  0  0  0  0  0  0  0  0  0
    5.9844    5.9646  -18.7879 C   0  0  0  0  0  0  0  0  0  0  0  0
    4.4670    6.9196  -16.4787 C   0  0  0  0  0  0  0  0  0  0  0  0
    6.3004   -4.2741  -16.7775 C   0  0  2  0  0  0  0  0  0  0  0  0
    5.0191    5.0711  -17.9779 C   0  0  2  0  0  0  0  0  0  0  0  0
    6.5707    8.4125  -23.8140 C   0  0  0  0  0  0  0  0  0  0  0  0
    2.7841   -3.0657  -17.3755 C   0  0  0  0  0  0  0  0  0  0  0  0
    4.6739    2.0483  -20.3721 C   0  0  0  0  0  0  0  0  0  0  0  0
    7.4574   -0.7206  -15.4709 C   0  0  0  0  0  0  0  0  0  0  0  0
    7.6943    1.5693  -16.5289 C   0  0  0  0  0  0  0  0  0  0  0  0
    4.7572   -4.2974  -16.7656 C   0  0  0  0  0  0  0  0  0  0  0  0
    6.8280    0.3004  -16.4269 C   0  0  0  0  0  0  0  0  0  0  0  0
    4.3565    4.0023  -18.8489 C   0  0  2  0  0  0  0  0  0  0  0  0
    5.3900    2.9989  -19.3927 C   0  0  1  0  0  0  0  0  0  0  0  0
    6.8555   -2.9037  -16.6561 N   0  0  0  0  0  0  0  0  0  0  0  0
    6.4727    7.0793  -17.9477 N   0  0  0  0  0  0  0  0  0  0  0  0
    5.9613    2.2285  -18.2696 N   0  0  0  0  0  0  0  0  0  0  0  0
    3.9482    5.8965  -17.3945 N   0  0  0  0  0  0  0  0  0  0  0  0
    5.9507   -2.3656  -14.6336 O   0  0  0  0  0  0  0  0  0  0  0  0
    7.9438    3.3575  -18.0812 O   0  0  0  0  0  0  0  0  0  0  0  0
    8.1477    9.0078  -17.6385 O   0  0  0  0  0  0  0  0  0  0  0  0
    8.7501    7.0570  -19.1579 O   0  0  0  0  0  0  0  0  0  0  0  0
    3.6567    4.6350  -19.9241 O   0  0  0  0  0  0  0  0  0  0  0  0
    4.2013   -3.2306  -17.5632 O   0  0  0  0  0  0  0  0  0  0  0  0
    8.7963    0.4150  -22.5071 F   0  0  0  0  0  0  0  0  0  0  0  0
    5.5334   -2.7328  -20.9667 F   0  0  0  0  0  0  0  0  0  0  0  0
    7.7519    7.9997  -18.6313 S   0  0  0  0  0  0  0  0  0  0  0  0
    5.2111   11.6918  -20.7426 H   0  0  0  0  0  0  0  0  0  0  0  0
    5.3428   10.7288  -23.0319 H   0  0  0  0  0  0  0  0  0  0  0  0
    6.2635   10.5025  -18.8304 H   0  0  0  0  0  0  0  0  0  0  0  0
    7.1199    2.2313  -21.5993 H   0  0  0  0  0  0  0  0  0  0  0  0
    4.1987   -0.6124  -20.1880 H   0  0  0  0  0  0  0  0  0  0  0  0
    7.6029    7.3904  -21.5000 H   0  0  0  0  0  0  0  0  0  0  0  0
    7.8219   -1.9965  -22.0615 H   0  0  0  0  0  0  0  0  0  0  0  0
    8.9393   -4.2848  -17.9546 H   0  0  0  0  0  0  0  0  0  0  0  0
    8.1769   -3.8871  -19.5317 H   0  0  0  0  0  0  0  0  0  0  0  0
    6.0781   -4.7911  -18.8916 H   0  0  0  0  0  0  0  0  0  0  0  0
    7.1784   -5.8782  -17.9783 H   0  0  0  0  0  0  0  0  0  0  0  0
    8.4638   -1.9577  -17.6788 H   0  0  0  0  0  0  0  0  0  0  0  0
    6.9324   -2.0675  -18.6112 H   0  0  0  0  0  0  0  0  0  0  0  0
    4.8416    8.4410  -17.9655 H   0  0  0  0  0  0  0  0  0  0  0  0
    5.8963    8.5386  -16.5148 H   0  0  0  0  0  0  0  0  0  0  0  0
    6.8403    5.3621  -19.1259 H   0  0  0  0  0  0  0  0  0  0  0  0
    5.4553    6.3726  -19.6617 H   0  0  0  0  0  0  0  0  0  0  0  0
    5.0110    6.4318  -15.6564 H   0  0  0  0  0  0  0  0  0  0  0  0
    3.6286    7.5020  -16.0690 H   0  0  0  0  0  0  0  0  0  0  0  0
    6.6705   -4.8964  -15.9494 H   0  0  0  0  0  0  0  0  0  0  0  0
    5.5852    4.5765  -17.1748 H   0  0  0  0  0  0  0  0  0  0  0  0
    7.4767    8.8053  -24.2986 H   0  0  0  0  0  0  0  0  0  0  0  0
    6.6301    7.3155  -23.7601 H   0  0  0  0  0  0  0  0  0  0  0  0
    5.6862    8.7035  -24.3998 H   0  0  0  0  0  0  0  0  0  0  0  0
    2.4234   -2.2412  -18.0081 H   0  0  0  0  0  0  0  0  0  0  0  0
    2.2667   -3.9954  -17.6548 H   0  0  0  0  0  0  0  0  0  0  0  0
    2.5786   -2.8346  -16.3198 H   0  0  0  0  0  0  0  0  0  0  0  0
    4.3485    2.6233  -21.2515 H   0  0  0  0  0  0  0  0  0  0  0  0
    3.7951    1.6171  -19.8702 H   0  0  0  0  0  0  0  0  0  0  0  0
    7.4080   -0.3363  -14.4414 H   0  0  0  0  0  0  0  0  0  0  0  0
    8.5085   -0.8841  -15.7511 H   0  0  0  0  0  0  0  0  0  0  0  0
    8.7408    1.2802  -16.7054 H   0  0  0  0  0  0  0  0  0  0  0  0
    7.6234    2.1330  -15.5870 H   0  0  0  0  0  0  0  0  0  0  0  0
    4.4120   -5.2610  -17.1685 H   0  0  0  0  0  0  0  0  0  0  0  0
    4.4070   -4.1869  -15.7287 H   0  0  0  0  0  0  0  0  0  0  0  0
    6.7341   -0.1520  -17.4251 H   0  0  0  0  0  0  0  0  0  0  0  0
    5.8305    0.5752  -16.0535 H   0  0  0  0  0  0  0  0  0  0  0  0
    3.6412    3.4475  -18.2239 H   0  0  0  0  0  0  0  0  0  0  0  0
    6.1838    3.5431  -19.9254 H   0  0  0  0  0  0  0  0  0  0  0  0
    5.4093    1.4834  -17.8952 H   0  0  0  0  0  0  0  0  0  0  0  0
    3.3226    5.3014  -16.8901 H   0  0  0  0  0  0  0  0  0  0  0  0
    3.4525    6.3500  -18.1352 H   0  0  0  0  0  0  0  0  0  0  0  0
    3.2441    3.9734  -20.4668 H   0  0  0  0  0  0  0  0  0  0  0  0
  1  2  2  0
  1  3  1  0
  2  8  1  0
  3 12  2  0
  4  9  2  0
  4 10  1  0
  5  9  1  0
  5 11  2  0
  6  8  2  0
  6 12  1  0
  7 10  2  0
  7 11  1  0
  8 23  1  0
  9 25  1  0
 10 42  1  0
 11 43  1  0
 12 44  1  0
 13 26  1  0
 13 32  1  0
 13 36  2  0
 14 27  1  0
 14 34  1  0
 14 37  2  0
 15 16  1  0
 15 17  1  0
 16 21  1  0
 17 32  1  0
 18 20  1  0
 18 33  1  0
 19 22  1  0
 19 33  1  0
 20 35  1  0
 21 28  1  0
 21 32  1  0
 22 30  1  0
 22 35  1  0
 24 41  1  0
 25 31  1  0
 26 29  1  0
 27 29  1  0
 28 41  1  0
 30 31  1  0
 30 40  1  0
 31 34  1  0
 33 44  1  0
 38 44  2  0
 39 44  2  0
  1 45  1  0
  2 46  1  0
  3 47  1  0
  4 48  1  0
  5 49  1  0
  6 50  1  0
  7 51  1  0
 15 52  1  0
 15 53  1  0
 16 54  1  0
 16 55  1  0
 17 56  1  0
 17 57  1  0
 18 58  1  0
 18 59  1  0
 19 60  1  0
 19 61  1  0
 20 62  1  0
 20 63  1  0
 21 64  1  1
 22 65  1  1
 23 66  1  0
 23 67  1  0
 23 68  1  0
 24 69  1  0
 24 70  1  0
 24 71  1  0
 25 72  1  0
 25 73  1  0
 26 74  1  0
 26 75  1  0
 27 76  1  0
 27 77  1  0
 28 78  1  0
 28 79  1  0
 29 80  1  0
 29 81  1  0
 30 82  1  1
 31 83  1  6
 34 84  1  0
 35 85  1  0
 35 86  1  0
 40 87  1  0
M  CHG  1  35   1
M  END
>  <OMEGA_C>  (187) 
ekK3QDwdLEG/P6fBuH65QCNXI0FDnLHB+4XKQOhmIUFSmp7BkLLZQF+zmj+7qavB4KekQObqzb5a
TqXBr4ziQPYhBUEAr6rB9zbmQNiCl7+Z0a3B7a7OQMWwD0FFVLPB0kOyQC0Kbj+4nqbB6L3zQInR
GT66Na/B736+QDCDur8L8ajBZZLgQNMADkF7T6DBNS/WQBBFA8DD53jBwsnmQBhFHUCkgI3B7koA
QQLhe8DljZPBeQ3bQK3MmsB41pDBr8zyQCyDJcBvKo/BSVytQJlp+0Dd3InB+n+/QBDevkCdTZbB
XvGOQANt3UBi1IPBAZ3JQIzFiMBoOIbBXpygQIJGokCz0o/BIkPSQL+ZBkEgg77BmC4yQBo0RMAD
AYvBa5CVQMkWA0AH+qLBZqPuQId6OL/yiHfBfjf2QC7fyD9GO4TB0DqYQCaEicDgH4bBVX/aQMbP
mT5NaoPBi2iLQNgSgECNypbBPHusQJXuP0AxJJvBqWDbQArXOcDFP4XBIyDPQK2J4kDQlI/B/MK+
QGifDkAoKJLBLK98QPuvvEDhJ4vBeWy+QE5lF8BkI2rBnjP+QCjhVkBjppDB7VwCQewfEEGVG43B
kQAMQdjS4UBdQ5nBKAdqQEFSlECaZJ/BVXGGQNDCTsBygYzBrb0MQS951D6ZDrTB7BGxQOXlLsC2
u6fB3w/4QJ79/0DaDJXB/8CmQKERO0HU8KXBWfiqQEapK0FbQbjBRG7IQDcKKEGUpJbBG9bjQGvO
DkBVy6zBCFyGQGvHHL8RgaHBtErzQGR+7EAXAKzBIU36QB2O/7/7fbDBYQcPQWEdicAJo4/BntQC
QbTGeMDwQJzB6n/CQINQmcDuIZfBzLXlQDkavMCA04/Bz2sHQWyU+r8ubo3BTNbdQDtSBMC+45TB
XO6aQGEOB0FouY/Bwq68QEWeCEFHHoTB/OPaQASWq0DvAZnByJGuQLrsy0A4S53BE1qgQCvRzUDN
gHrB9DpoQLMQ8EBOjYDB83TVQF6vnMDdMH/B7LmyQNdykkAJZonBP0HvQK3iDEGTY8LBGyrUQEwY
6kDEFL7BvPW1QHtBC0G8MsPBUhkbQAtwD8COEJDBnRERQOCzf8AGPY3BCgglQJhqNcALj4LBnCaL
QGHkJ0AhA6rBGONyQDj9zj839p7B9Q3tQOUvrL4nEGfB4iIIQdRVYr+yBHzBctoLQSvdoz+YpIXB
zfLzQGKCCEBOZHnB+C6NQL9ZqMAbWYnB3wWNQHf7hcCfqHvB+X3XQOirG76yZovBY5O6QEc9Ez+h
bYDBIgppQFykXECOypHB7+HFQFLCYkAuZ5/BUxmtQIrfvT9kKY/B36RUQK6kqUDjHofBNPVcQOky
y0DMFJHBk59PQGlMfkASvKPB

>  <OMEGA_E>  (187) 
YL9zPg==

>  <OMEGA_NBR>  (187) 
     38941

$$$$
50162155
     RDKit          3D

 91 95  0  0  1  0  0  0  0  0999 V2000
    5.6917   10.4881  -22.4997 C   0  0  0  0  0  0  0  0  0  0  0  0
    6.3418    9.3713  -23.0559 C   0  0  0  0  0  0  0  0  0  0  0  0
    5.7482   10.7167  -21.1111 C   0  0  0  0  0  0  0  0  0  0  0  0
    7.0582    8.4928  -22.2246 C   0  0  0  0  0  0  0  0  0  0  0  0
    6.4674    9.8388  -20.2765 C   0  0  0  0  0  0  0  0  0  0  0  0
    6.9138    0.0871  -16.7136 C   0  0  0  0  0  0  0  0  0  0  0  0
    8.1344   -0.4693  -14.6775 C   0  0  0  0  0  0  0  0  0  0  0  0
    8.4077    1.7277  -15.6982 C   0  0  0  0  0  0  0  0  0  0  0  0
    6.9195    1.3386  -21.4958 C   0  0  0  0  0  0  0  0  0  0  0  0
    5.1961   -0.2607  -20.8295 C   0  0  0  0  0  0  0  0  0  0  0  0
    7.3035   -1.0556  -21.7627 C   0  0  0  0  0  0  0  0  0  0  0  0
    7.2469   -0.8378  -15.7061 C   0  0  0  0  0  0  0  0  0  0  0  0
    7.4938    1.3734  -16.7152 C   0  0  0  0  0  0  0  0  0  0  0  0
    7.1358    8.7178  -20.8316 C   0  0  0  0  0  0  0  0  0  0  0  0
    8.7077    0.8161  -14.6665 C   0  0  0  0  0  0  0  0  0  0  0  0
    5.6399    1.0690  -20.9613 C   0  0  0  0  0  0  0  0  0  0  0  0
    7.7529    0.2748  -21.8895 C   0  0  0  0  0  0  0  0  0  0  0  0
    6.0214   -1.3201  -21.2395 C   0  0  0  0  0  0  0  0  0  0  0  0
    6.6656   -2.1835  -15.7191 C   0  0  0  0  0  0  0  0  0  0  0  0
    7.1252    2.3391  -17.7610 C   0  0  0  0  0  0  0  0  0  0  0  0
    7.7554   -4.0373  -18.8052 C   0  0  0  0  0  0  0  0  0  0  0  0
    7.2164   -5.1009  -17.8550 C   0  0  0  0  0  0  0  0  0  0  0  0
    7.6470   -2.7206  -18.0217 C   0  0  0  0  0  0  0  0  0  0  0  0
    5.4534    7.8813  -17.1699 C   0  0  0  0  0  0  0  0  0  0  0  0
    6.0394    5.9585  -18.6815 C   0  0  0  0  0  0  0  0  0  0  0  0
    4.4460    6.9660  -16.4536 C   0  0  0  0  0  0  0  0  0  0  0  0
    6.2187   -4.3455  -16.9781 C   0  0  2  0  0  0  0  0  0  0  0  0
    5.0069    5.0825  -17.9399 C   0  0  2  0  0  0  0  0  0  0  0  0
    9.6989    1.1901  -13.5885 C   0  0  0  0  0  0  0  0  0  0  0  0
    2.6724   -3.1874  -17.3519 C   0  0  0  0  0  0  0  0  0  0  0  0
    4.7301    2.1964  -20.5388 C   0  0  0  0  0  0  0  0  0  0  0  0
    8.1232    7.8527  -20.0565 C   0  0  0  0  0  0  0  0  0  0  0  0
    4.8335   -4.2151  -17.6414 C   0  0  0  0  0  0  0  0  0  0  0  0
    4.3545    4.0634  -18.8862 C   0  0  2  0  0  0  0  0  0  0  0  0
    5.3892    3.0721  -19.4583 C   0  0  1  0  0  0  0  0  0  0  0  0
    6.8196   -3.0132  -16.8296 N   0  0  0  0  0  0  0  0  0  0  0  0
    6.5019    7.0465  -17.8099 N   0  0  0  0  0  0  0  0  0  0  0  0
    5.8835    2.2115  -18.3736 N   0  0  0  0  0  0  0  0  0  0  0  0
    3.9374    5.9355  -17.3787 N   0  0  0  0  0  0  0  0  0  0  0  0
    6.0837   -2.5889  -14.7190 O   0  0  0  0  0  0  0  0  0  0  0  0
    7.8962    3.2440  -18.0609 O   0  0  0  0  0  0  0  0  0  0  0  0
    9.0371    6.8054  -17.8296 O   0  0  0  0  0  0  0  0  0  0  0  0
    8.0523    9.1306  -17.6893 O   0  0  0  0  0  0  0  0  0  0  0  0
    3.7029    4.7607  -19.9498 O   0  0  0  0  0  0  0  0  0  0  0  0
    3.9880   -3.3899  -16.8157 O   0  0  0  0  0  0  0  0  0  0  0  0
    8.9779    0.5312  -22.4016 F   0  0  0  0  0  0  0  0  0  0  0  0
    5.5729   -2.5900  -21.1412 F   0  0  0  0  0  0  0  0  0  0  0  0
    8.0042    7.7670  -18.2337 S   0  0  0  0  0  0  0  0  0  0  0  0
    5.1492   11.1702  -23.1375 H   0  0  0  0  0  0  0  0  0  0  0  0
    6.2906    9.1894  -24.1192 H   0  0  0  0  0  0  0  0  0  0  0  0
    5.2384   11.5679  -20.6846 H   0  0  0  0  0  0  0  0  0  0  0  0
    7.5549    7.6360  -22.6554 H   0  0  0  0  0  0  0  0  0  0  0  0
    6.5099   10.0196  -19.2126 H   0  0  0  0  0  0  0  0  0  0  0  0
    6.2126   -0.1885  -17.4873 H   0  0  0  0  0  0  0  0  0  0  0  0
    8.3758   -1.1740  -13.8955 H   0  0  0  0  0  0  0  0  0  0  0  0
    8.8777    2.7000  -15.7114 H   0  0  0  0  0  0  0  0  0  0  0  0
    7.2575    2.3588  -21.6021 H   0  0  0  0  0  0  0  0  0  0  0  0
    4.2210   -0.4658  -20.4130 H   0  0  0  0  0  0  0  0  0  0  0  0
    7.9416   -1.8723  -22.0665 H   0  0  0  0  0  0  0  0  0  0  0  0
    8.8028   -4.2470  -19.0678 H   0  0  0  0  0  0  0  0  0  0  0  0
    7.1492   -3.9937  -19.7221 H   0  0  0  0  0  0  0  0  0  0  0  0
    6.7150   -5.9053  -18.4130 H   0  0  0  0  0  0  0  0  0  0  0  0
    8.0270   -5.5273  -17.2458 H   0  0  0  0  0  0  0  0  0  0  0  0
    8.6460   -2.3757  -17.7167 H   0  0  0  0  0  0  0  0  0  0  0  0
    7.1653   -1.9484  -18.6395 H   0  0  0  0  0  0  0  0  0  0  0  0
    4.9326    8.4713  -17.9385 H   0  0  0  0  0  0  0  0  0  0  0  0
    5.9182    8.5597  -16.4393 H   0  0  0  0  0  0  0  0  0  0  0  0
    6.8989    5.3375  -18.9745 H   0  0  0  0  0  0  0  0  0  0  0  0
    5.5731    6.3869  -19.5810 H   0  0  0  0  0  0  0  0  0  0  0  0
    4.9429    6.4760  -15.6034 H   0  0  0  0  0  0  0  0  0  0  0  0
    3.6038    7.5712  -16.0871 H   0  0  0  0  0  0  0  0  0  0  0  0
    6.1211   -4.8434  -16.0021 H   0  0  0  0  0  0  0  0  0  0  0  0
    5.5159    4.5423  -17.1282 H   0  0  0  0  0  0  0  0  0  0  0  0
   10.7137    0.9134  -13.9107 H   0  0  0  0  0  0  0  0  0  0  0  0
    9.6541    2.2745  -13.4095 H   0  0  0  0  0  0  0  0  0  0  0  0
    9.4503    0.6547  -12.6603 H   0  0  0  0  0  0  0  0  0  0  0  0
    2.0912   -2.5512  -16.6681 H   0  0  0  0  0  0  0  0  0  0  0  0
    2.7482   -2.6969  -18.3335 H   0  0  0  0  0  0  0  0  0  0  0  0
    2.1692   -4.1590  -17.4653 H   0  0  0  0  0  0  0  0  0  0  0  0
    4.5018    2.8203  -21.4155 H   0  0  0  0  0  0  0  0  0  0  0  0
    3.7976    1.7730  -20.1372 H   0  0  0  0  0  0  0  0  0  0  0  0
    8.0133    6.8251  -20.4333 H   0  0  0  0  0  0  0  0  0  0  0  0
    9.1307    8.2247  -20.2946 H   0  0  0  0  0  0  0  0  0  0  0  0
    4.9428   -3.7528  -18.6336 H   0  0  0  0  0  0  0  0  0  0  0  0
    4.3820   -5.2123  -17.7493 H   0  0  0  0  0  0  0  0  0  0  0  0
    3.6122    3.4890  -18.3126 H   0  0  0  0  0  0  0  0  0  0  0  0
    6.2214    3.6354  -19.9056 H   0  0  0  0  0  0  0  0  0  0  0  0
    5.2820    1.4800  -18.0526 H   0  0  0  0  0  0  0  0  0  0  0  0
    3.2927    5.3533  -16.8834 H   0  0  0  0  0  0  0  0  0  0  0  0
    3.4641    6.3904  -18.1330 H   0  0  0  0  0  0  0  0  0  0  0  0
    3.2976    4.1346  -20.5382 H   0  0  0  0  0  0  0  0  0  0  0  0
  1  2  2  0
  1  3  1  0
  2  4  1  0
  3  5  2  0
  4 14  2  0
  5 14  1  0
  6 12  2  0
  6 13  1  0
  7 12  1  0
  7 15  2  0
  8 13  2  0
  8 15  1  0
  9 16  2  0
  9 17  1  0
 10 16  1  0
 10 18  2  0
 11 17  2  0
 11 18  1  0
 12 19  1  0
 13 20  1  0
 14 32  1  0
 15 29  1  0
 16 31  1  0
 17 46  1  0
 18 47  1  0
 19 36  1  0
 19 40  2  0
 20 38  1  0
 20 41  2  0
 21 22  1  0
 21 23  1  0
 22 27  1  0
 23 36  1  0
 24 26  1  0
 24 37  1  0
 25 28  1  0
 25 37  1  0
 26 39  1  0
 27 33  1  0
 27 36  1  0
 28 34  1  0
 28 39  1  0
 30 45  1  0
 31 35  1  0
 32 48  1  0
 33 45  1  0
 34 35  1  0
 34 44  1  0
 35 38  1  0
 37 48  1  0
 42 48  2  0
 43 48  2  0
  1 49  1  0
  2 50  1  0
  3 51  1  0
  4 52  1  0
  5 53  1  0
  6 54  1  0
  7 55  1  0
  8 56  1  0
  9 57  1  0
 10 58  1  0
 11 59  1  0
 21 60  1  0
 21 61  1  0
 22 62  1  0
 22 63  1  0
 23 64  1  0
 23 65  1  0
 24 66  1  0
 24 67  1  0
 25 68  1  0
 25 69  1  0
 26 70  1  0
 26 71  1  0
 27 72  1  1
 28 73  1  1
 29 74  1  0
 29 75  1  0
 29 76  1  0
 30 77  1  0
 30 78  1  0
 30 79  1  0
 31 80  1  0
 31 81  1  0
 32 82  1  0
 32 83  1  0
 33 84  1  0
 33 85  1  0
 34 86  1  1
 35 87  1  6
 38 88  1  0
 39 89  1  0
 39 90  1  0
 44 91  1  0
M  CHG  1  39   1
M  END
>  <OMEGA_C>  (188) 
JCK2QGHPJ0FJ/7PB9u/KQPfwFUFrcrjBcvG3QIR3K0GA46jBmNzhQGLiB0Hsy7HBKvXOQKxrHUFA
NqLBCj7dQLJtsj1atYXBhSYCQUBD8L7s1mrBvYUGQXEl3T/TK3vBYmzdQEVWqz9d96vBcEamQDB6
hb7CoqbBBrbpQPMdh7/4Ga7BNubnQMV3Vr8CTHvB8MzvQGrLrz+luIXBhFjkQBN8C0EVp6bB7lIL
Qb3qUD8AqmrBOHq0QAnUiD/WsKfBCBj4QMS0jD6ZHa/BSK/AQHL3qL9+6qnBkkzVQG6+C8CegXvB
cAHkQF6zFUCZFo7B6iv4QKAxgcAjcZbBpuzmQGM6o8Dx1o7BVLT0QFoeLsCJLJDB7IGuQJAz/EDg
W4nBKkPBQOervkDQc5XB6EWOQGPp3kAToYPB2v/GQCUOi8Ay04fBSDigQAykokD7hI/B3C4bQR9U
mD9ealnBnwgrQDT+S8Ce0IrB4FyXQIeRDEB8T6TBxfgBQQJJ+0Cuc6DBPqyaQBjihsCuIY3BFliL
QBMHgkD3FpfBeHSsQO+cRECRqpvBNDraQH7YQMAUo4bB1A/QQIp84UDFeo7B3EW8QH+JDUAw/ZLB
P/57QNrvvUCCB4vBoK3CQLmvJcDtgGvBXK38QOOdT0DMfJDBI5gQQW/F2UATo47BN9YAQQ4XEkGz
g43B2ftsQPBXmEA6mZ/BNzt/QOb0WMB9hobBhaUPQVn9Bz+QNrPBYlWyQMDCJcBDIanBEBEAQY2L
+ECG3pHBL8akQEe5MkGbGbnBl0zJQK8HE0Ef9MDBP6GnQFAWOUEjeqXB6MHxQD9a9EBHPrXBFFHQ
QFJQIEFes5nBmc3GQNoIQb4E5ovBRQMGQYJElr/aU17BEQsOQSPMLEDHYXvBqj3oQDb2FkAV0azB
LRKHQB167r7ITaPBTyH+QIKm778hiLDBM9gMQbvnh8DLipjBSMbkQFuZf8Dqxp3BEuHWQGj4vMDj
TZPBp24AQeffsMB594nB7lUKQc8KGMC2u43B7knlQIFk+b+qHZXBHdidQEiKB0EEgo/BzmG9QIX0
CEG1g4PBbcPcQBHNqkDXy5fBr1ayQLxhzEDNpZzBEyyeQAQ7z0BTp3nBZKRmQANH8kBWsoDBCeDD
QPL8msBcBIDBbYKwQDVakUB2BonBJ2srQYXVaT8Qkl7BF3caQSyREUBhjVbBoTQXQb6YJz91kErB
h9UFQJZHI8BbWIXBluIvQHGZLMAKq5LB6NQKQD4WhcACuYvBZA6QQJN/NED5UqvBkgxzQOXw4j8I
GaHBeDYAQRJn2kBod6PBLxcSQVyYA0FIW6LBmyueQLotcMCREZXBhzmMQIzLpsCo/o3BfC1nQJZL
X0BAgJLBBRbHQKyqaECYPp/BMgapQGRxvT+ha5DBELtSQBlOq0AkEYfBcbNdQHt+zEBlEJHB0gtT
QEZOhEApTqTB

>  <OMEGA_E>  (188) 
AK5dPg==

>  <OMEGA_NBR>  (188) 
     40750

$$$$
50168357
     RDKit          3D

 68 71  0  0  1  0  0  0  0  0999 V2000
    8.4007    6.9638  -18.5765 C   0  0  0  0  0  0  0  0  0  0  0  0
    7.5055    6.5676  -17.5646 C   0  0  0  0  0  0  0  0  0  0  0  0
    7.9395    7.7035  -19.6797 C   0  0  0  0  0  0  0  0  0  0  0  0
    5.6583    9.3362  -22.8937 C   0  0  0  0  0  0  0  0  0  0  0  0
    5.6900    7.6760  -18.7454 C   0  0  0  0  0  0  0  0  0  0  0  0
    6.2318    0.6547  -21.6327 C   0  0  0  0  0  0  0  0  0  0  0  0
    4.5515   -0.8429  -20.6823 C   0  0  0  0  0  0  0  0  0  0  0  0
    6.6133   -1.7536  -21.6173 C   0  0  0  0  0  0  0  0  0  0  0  0
    4.8609   10.1417  -21.9407 C   0  0  0  0  0  0  0  0  0  0  0  0
    6.4403    8.4925  -22.1510 C   0  0  0  0  0  0  0  0  0  0  0  0
    6.1346    6.9344  -17.6295 C   0  0  0  0  0  0  0  0  0  0  0  0
    4.9830    0.4612  -21.0043 C   0  0  0  0  0  0  0  0  0  0  0  0
    6.5786    8.0661  -19.7615 C   0  0  0  0  0  0  0  0  0  0  0  0
    7.0484   -0.4507  -21.9318 C   0  0  0  0  0  0  0  0  0  0  0  0
    5.3636   -1.9491  -20.9952 C   0  0  0  0  0  0  0  0  0  0  0  0
    6.5793    1.1403  -17.9375 C   0  0  0  0  0  0  0  0  0  0  0  0
    5.4168    8.0267  -14.1114 C   0  0  0  0  0  0  0  0  0  0  0  0
    4.8151    8.6331  -15.3904 C   0  0  0  0  0  0  0  0  0  0  0  0
    6.3705    6.8589  -14.4298 C   0  0  0  0  0  0  0  0  0  0  0  0
    4.0990    7.5411  -16.1947 C   0  0  0  0  0  0  0  0  0  0  0  0
    5.6887    5.7943  -15.3185 C   0  0  0  0  0  0  0  0  0  0  0  0
    5.0843    6.4151  -16.6164 C   0  0  0  0  0  0  0  0  0  0  0  0
    6.7946   -0.0668  -17.0295 C   0  0  0  0  0  0  0  0  0  0  0  0
    4.1808    1.6588  -20.5468 C   0  0  0  0  0  0  0  0  0  0  0  0
    5.0089    4.2536  -17.8129 C   0  0  0  0  0  0  0  0  0  0  0  0
    4.9571    2.3877  -19.4294 C   0  0  1  0  0  0  0  0  0  0  0  0
    4.1365    3.5259  -18.8247 C   0  0  2  0  0  0  0  0  0  0  0  0
    5.1488    9.7539  -20.7186 N   0  0  0  0  0  0  0  0  0  0  0  0
    6.0829    8.7747  -20.8533 N   0  0  0  0  0  0  0  0  0  0  0  0
    5.2873    1.4235  -18.3620 N   0  0  0  0  0  0  0  0  0  0  0  0
    4.2570    5.4045  -17.2967 N   0  0  0  0  0  0  0  0  0  0  0  0
    7.5504    1.7228  -18.4082 O   0  0  0  0  0  0  0  0  0  0  0  0
    3.7425    4.4503  -19.8390 O   0  0  0  0  0  0  0  0  0  0  0  0
    8.2592   -0.2588  -22.5015 F   0  0  0  0  0  0  0  0  0  0  0  0
    4.9508   -3.1980  -20.6830 F   0  0  0  0  0  0  0  0  0  0  0  0
    9.4452    6.6986  -18.5051 H   0  0  0  0  0  0  0  0  0  0  0  0
    7.8640    5.9801  -16.7323 H   0  0  0  0  0  0  0  0  0  0  0  0
    8.6251    7.9933  -20.4623 H   0  0  0  0  0  0  0  0  0  0  0  0
    5.6287    9.4018  -23.9713 H   0  0  0  0  0  0  0  0  0  0  0  0
    4.6476    7.9485  -18.8195 H   0  0  0  0  0  0  0  0  0  0  0  0
    6.5605    1.6523  -21.8842 H   0  0  0  0  0  0  0  0  0  0  0  0
    3.5987   -0.9922  -20.1961 H   0  0  0  0  0  0  0  0  0  0  0  0
    7.2377   -2.6027  -21.8529 H   0  0  0  0  0  0  0  0  0  0  0  0
    4.1594   10.9188  -22.2060 H   0  0  0  0  0  0  0  0  0  0  0  0
    7.1667    7.7744  -22.5017 H   0  0  0  0  0  0  0  0  0  0  0  0
    5.9759    8.8078  -13.5752 H   0  0  0  0  0  0  0  0  0  0  0  0
    4.6004    7.6569  -13.4737 H   0  0  0  0  0  0  0  0  0  0  0  0
    4.0946    9.4184  -15.1184 H   0  0  0  0  0  0  0  0  0  0  0  0
    5.6193    9.0689  -16.0014 H   0  0  0  0  0  0  0  0  0  0  0  0
    7.2527    7.2518  -14.9565 H   0  0  0  0  0  0  0  0  0  0  0  0
    6.6858    6.3882  -13.4870 H   0  0  0  0  0  0  0  0  0  0  0  0
    3.3002    7.1058  -15.5764 H   0  0  0  0  0  0  0  0  0  0  0  0
    3.6600    7.9904  -17.0977 H   0  0  0  0  0  0  0  0  0  0  0  0
    6.4349    5.0372  -15.6013 H   0  0  0  0  0  0  0  0  0  0  0  0
    4.8813    5.3167  -14.7441 H   0  0  0  0  0  0  0  0  0  0  0  0
    7.8727   -0.2556  -16.9192 H   0  0  0  0  0  0  0  0  0  0  0  0
    6.3548    0.1345  -16.0416 H   0  0  0  0  0  0  0  0  0  0  0  0
    6.3114   -0.9498  -17.4730 H   0  0  0  0  0  0  0  0  0  0  0  0
    4.0243    2.3430  -21.3937 H   0  0  0  0  0  0  0  0  0  0  0  0
    3.2065    1.3242  -20.1608 H   0  0  0  0  0  0  0  0  0  0  0  0
    5.2638    3.5748  -16.9856 H   0  0  0  0  0  0  0  0  0  0  0  0
    5.9321    4.6009  -18.2998 H   0  0  0  0  0  0  0  0  0  0  0  0
    5.8837    2.8014  -19.8542 H   0  0  0  0  0  0  0  0  0  0  0  0
    3.2557    3.1085  -18.3148 H   0  0  0  0  0  0  0  0  0  0  0  0
    4.5323    0.9431  -17.9157 H   0  0  0  0  0  0  0  0  0  0  0  0
    3.5767    5.0674  -16.6458 H   0  0  0  0  0  0  0  0  0  0  0  0
    3.7933    5.8454  -18.0651 H   0  0  0  0  0  0  0  0  0  0  0  0
    3.1965    4.0068  -20.4776 H   0  0  0  0  0  0  0  0  0  0  0  0
  1  2  2  0
  1  3  1  0
  2 11  1  0
  3 13  2  0
  4  9  1  0
  4 10  2  0
  5 11  2  0
  5 13  1  0
  6 12  2  0
  6 14  1  0
  7 12  1  0
  7 15  2  0
  8 14  2  0
  8 15  1  0
  9 28  2  0
 10 29  1  0
 11 22  1  0
 12 24  1  0
 13 29  1  0
 14 34  1  0
 15 35  1  0
 16 23  1  0
 16 30  1  0
 16 32  2  0
 17 18  1  0
 17 19  1  0
 18 20  1  0
 19 21  1  0
 20 22  1  0
 21 22  1  0
 22 31  1  0
 24 26  1  0
 25 27  1  0
 25 31  1  0
 26 27  1  0
 26 30  1  0
 27 33  1  0
 28 29  1  0
  1 36  1  0
  2 37  1  0
  3 38  1  0
  4 39  1  0
  5 40  1  0
  6 41  1  0
  7 42  1  0
  8 43  1  0
  9 44  1  0
 10 45  1  0
 17 46  1  0
 17 47  1  0
 18 48  1  0
 18 49  1  0
 19 50  1  0
 19 51  1  0
 20 52  1  0
 20 53  1  0
 21 54  1  0
 21 55  1  0
 23 56  1  0
 23 57  1  0
 23 58  1  0
 24 59  1  0
 24 60  1  0
 25 61  1  0
 25 62  1  0
 26 63  1  6
 27 64  1  1
 30 65  1  0
 31 66  1  0
 31 67  1  0
 33 68  1  0
M  CHG  1  31   1
M  END
>  <OMEGA_C>  (189) 
dmkGQT3X3kClnJTBVi3wQPEp0kBWhIzBchD+QCmD9kAPcJ3BFRG1QBFhFUFZJrfBmBS2QLSh9UCY
9pXBs2rHQEOdJz/XD63B5aWRQOzFV79bdaXBJaDTQNh04L8i8KzB4YybQGdEIkGLhq/BpBbOQGXh
B0EyNbHB207EQNbm3UBECY3BHnWfQCkf7D7GCKjB0YPSQMsOAUGGF57BMozhQOrA5r5ddK/BBaOr
QMt8+b8b9qfBe4nSQO71kT/mf4/Bs1atQJFtAEEmyGHBchWaQPogCkERP3bBEtvLQD5820CY4GbB
8CqDQOJQ8UDKjoHBzAm2QPtquUCVGHXBUbKiQJ5IzUBv7oTBqG3ZQMrBiL2EPIjB18iFQCxS1D/A
X6TBPUmgQG8diEC6gI7B8KCeQO/PGECDb5vBDV6EQCWoYUAVmZbBC8OkQP0PHEGuv6XBv6bCQFVl
DEGH06bBmjGpQNw0tj9r5ZLBKDmIQMPxrECMX4rBB53xQD6G3D8LRJPBm4RvQCNpjkBUtp7BfSUE
QTZ8hL4jA7TBo2yeQIWrTMDedqXBuB8XQc1a1kBeCpTBfKX7QOlcv0DB24XBdgAKQffI/0C3sqPB
eh60QMptFkFFxb/BB7mUQA5a/kBKjpbB9+/RQDx+0z/AEq/BzVFmQNYAfr+0kaHB2prnQMSSJsDJ
0q7BrhmFQEazLkHXpbHB4FXlQDjI+EBwA7TBUTq/QJXsDEHmM1nBsjaTQC0F9UAUlFfBkgaDQOax
FkEh5XHBJdGzQCcaEUHyAoDB+BXoQNwO6EDNTW/BR/LVQPZrzECrylfBDzZTQFdi40DbOHnB8z1q
QGGx/0AxyIjBu+rNQNcwoUDynnnBSjOcQC4iqkDs52vBBO37QHrbgr6bWofBkFrLQE7FCT44VYDB
pfbJQMwnc7++yIvBv8aAQPbzFUBFJqvBCThNQDd/qT9RSaHBuXCoQOHJZECH4ofB49O9QMc6k0D6
ZZLBG0e8QNtJM0Bb1Z7BFV5QQI/xRkCkhJLB8giRQO9tcT9DU4/Bx+hkQAsookClKoXBrMRyQN4N
u0BehZDBRpNMQAI4gEAI0qPBur0FQRdM30AwrZTBfEDvQBoS00B6c4zB/hH8QPhW9UC1sJ3BAqGZ
QGR8H0GdILHBkjy0QJIU9EAbGpbB7t/HQCj0Ij+eT63B/7yQQIzkTL88kaXBQB3RQKqZ5L9oSq3B
IXa0QPc/EUHoz7fBs/ihQExnGkEIsabByh/DQIq73UCgAY3B296fQCp4+T6/NKjBOU7QQGjq/0BE
Zp7B2nngQN7L/76i1a/BJD6pQCy8978fKajBPRvTQDZAiT8QNpDBecisQBaO/kCL1WDBEIiZQLqH
CUHvB3XBMKrLQIzt2UARhWbBKq6CQMr48EDXPYHB7OC1QHh2uEA3CnXBZwKiQB8HzUAMxYTBzIfZ
QHggx72ji4jBPDGHQNHb2j/uoqTBHCKfQKNNh0CwBo7BW32fQOhoGkDeepvBjLGEQJCAYkAynpbB
tJrLQCD/BEFqgbHB1SXAQH5lCkElYqfBfK6pQIKZtj++E5PBPE6HQPjHrEDHKorBXR7yQMcI3T+5
KpPBEMhzQGXTj0Cjq57BooUDQTHTtb6VmLTBVpmaQHrHSsAdqaXBCY4WQci210BPD5TBVUH7QOxr
wUDgp4XBQtoIQR0n/kC1DqTB9aqDQJCSK0EB9LPBHrySQHo5/EDgspbBuJrTQOuizz+9R6/BhLFk
QHwyar+UjqHBAenjQHIXKsAhRq/B3/O0QLP4EEE8c8DBxSGUQPVSIUEekp/BUli+QDWSC0EhzlfB
/rOSQAHH8UCm41bBwWyCQKXxFUFPUnDB3kezQCbQEEGIkX7Bx5LnQKZC50AS7G7B8DzWQCY3ykAw
r1fBu5FRQIy94kAq63jBpCdqQAocAEE5aIjBbNzNQFmfoEA77XnB/kycQJiUqED262vBN7r7QEQZ
R74rnIbBTEvHQCjxqj2dKIHBRzHOQHchg792VozBoreDQIXOGUCWaavB26dOQJzbsz8UzaHBOdmk
QKweYkBtW4fBT/e9QFSVkUDAZ5HBQEq9QOWfNUD/sp7By01PQDVHR0AA/pLBWGORQIQHfT//OY/B
eRNiQDa3okCHAIXB8SxyQPqrukDEb5DBq7FSQNRXgkAtFaTB

>  <OMEGA_E>  (189) 
YCoTPahWVz4=

>  <OMEGA_NBR>  (189) 
      2494

$$$$
50212900
     RDKit          3D

 63 66  0  0  1  0  0  0  0  0999 V2000
    8.3539    6.9512  -18.6144 C   0  0  0  0  0  0  0  0  0  0  0  0
    7.4950    6.6117  -17.5550 C   0  0  0  0  0  0  0  0  0  0  0  0
    7.8580    7.6406  -19.7325 C   0  0  0  0  0  0  0  0  0  0  0  0
    5.6664    9.2694  -22.9536 C   0  0  0  0  0  0  0  0  0  0  0  0
    5.6364    7.6687  -18.7283 C   0  0  0  0  0  0  0  0  0  0  0  0
    6.3452    0.6851  -21.6431 C   0  0  0  0  0  0  0  0  0  0  0  0
    4.5712   -0.7433  -20.7597 C   0  0  0  0  0  0  0  0  0  0  0  0
    6.6117   -1.7416  -21.6505 C   0  0  0  0  0  0  0  0  0  0  0  0
    4.9000   10.1302  -22.0238 C   0  0  0  0  0  0  0  0  0  0  0  0
    6.3630    8.3749  -22.1875 C   0  0  0  0  0  0  0  0  0  0  0  0
    6.1207    6.9616  -17.6033 C   0  0  0  0  0  0  0  0  0  0  0  0
    5.0696    0.5450  -21.0534 C   0  0  0  0  0  0  0  0  0  0  0  0
    6.4982    8.0130  -19.7884 C   0  0  0  0  0  0  0  0  0  0  0  0
    7.1148   -0.4575  -21.9394 C   0  0  0  0  0  0  0  0  0  0  0  0
    5.3398   -1.8842  -21.0616 C   0  0  0  0  0  0  0  0  0  0  0  0
    6.5446    1.0466  -18.0120 C   0  0  0  0  0  0  0  0  0  0  0  0
    4.3101    7.6144  -15.9580 C   0  0  0  0  0  0  0  0  0  0  0  0
    5.1574    8.0455  -14.7462 C   0  0  0  0  0  0  0  0  0  0  0  0
    5.7245    5.8628  -15.2824 C   0  0  0  0  0  0  0  0  0  0  0  0
    5.1061    6.4515  -16.5609 C   0  0  2  0  0  0  0  0  0  0  0  0
    6.6877   -0.1365  -17.0590 C   0  0  0  0  0  0  0  0  0  0  0  0
    4.2916    1.7755  -20.6196 C   0  0  0  0  0  0  0  0  0  0  0  0
    4.9396    4.2782  -17.7197 C   0  0  0  0  0  0  0  0  0  0  0  0
    4.9967    2.4617  -19.4247 C   0  0  1  0  0  0  0  0  0  0  0  0
    4.1343    3.5840  -18.8177 C   0  0  2  0  0  0  0  0  0  0  0  0
    5.1259    9.7283  -20.7919 N   0  0  0  0  0  0  0  0  0  0  0  0
    6.0011    8.6942  -20.8983 N   0  0  0  0  0  0  0  0  0  0  0  0
    5.2687    1.4519  -18.3842 N   0  0  0  0  0  0  0  0  0  0  0  0
    4.2176    5.4681  -17.2172 N   0  0  0  0  0  0  0  0  0  0  0  0
    7.5418    1.6723  -18.3557 O   0  0  0  0  0  0  0  0  0  0  0  0
    6.1625    7.0157  -14.5436 O   0  0  0  0  0  0  0  0  0  0  0  0
    3.7983    4.5405  -19.8224 O   0  0  0  0  0  0  0  0  0  0  0  0
    8.3451   -0.3219  -22.4836 F   0  0  0  0  0  0  0  0  0  0  0  0
    4.8624   -3.1163  -20.7745 F   0  0  0  0  0  0  0  0  0  0  0  0
    9.3985    6.6809  -18.5683 H   0  0  0  0  0  0  0  0  0  0  0  0
    7.8835    6.0810  -16.6984 H   0  0  0  0  0  0  0  0  0  0  0  0
    8.5183    7.8863  -20.5510 H   0  0  0  0  0  0  0  0  0  0  0  0
    5.6740    9.3350  -24.0316 H   0  0  0  0  0  0  0  0  0  0  0  0
    4.5942    7.9478  -18.7754 H   0  0  0  0  0  0  0  0  0  0  0  0
    6.7310    1.6686  -21.8673 H   0  0  0  0  0  0  0  0  0  0  0  0
    3.5989   -0.8538  -20.3028 H   0  0  0  0  0  0  0  0  0  0  0  0
    7.2012   -2.6168  -21.8806 H   0  0  0  0  0  0  0  0  0  0  0  0
    4.2610   10.9525  -22.3100 H   0  0  0  0  0  0  0  0  0  0  0  0
    7.0388    7.5997  -22.5172 H   0  0  0  0  0  0  0  0  0  0  0  0
    3.3107    7.2828  -15.6401 H   0  0  0  0  0  0  0  0  0  0  0  0
    4.2107    8.4380  -16.6803 H   0  0  0  0  0  0  0  0  0  0  0  0
    5.6420    9.0120  -14.9485 H   0  0  0  0  0  0  0  0  0  0  0  0
    4.5216    8.1339  -13.8529 H   0  0  0  0  0  0  0  0  0  0  0  0
    4.9752    5.2945  -14.7118 H   0  0  0  0  0  0  0  0  0  0  0  0
    6.5745    5.2081  -15.5251 H   0  0  0  0  0  0  0  0  0  0  0  0
    7.7474   -0.2699  -16.7957 H   0  0  0  0  0  0  0  0  0  0  0  0
    6.1046    0.0554  -16.1463 H   0  0  0  0  0  0  0  0  0  0  0  0
    6.3140   -1.0483  -17.5480 H   0  0  0  0  0  0  0  0  0  0  0  0
    4.2316    2.4822  -21.4604 H   0  0  0  0  0  0  0  0  0  0  0  0
    3.2767    1.4761  -20.3191 H   0  0  0  0  0  0  0  0  0  0  0  0
    5.0995    3.5749  -16.8892 H   0  0  0  0  0  0  0  0  0  0  0  0
    5.9120    4.5911  -18.1277 H   0  0  0  0  0  0  0  0  0  0  0  0
    5.9448    2.8947  -19.7764 H   0  0  0  0  0  0  0  0  0  0  0  0
    3.2261    3.1442  -18.3796 H   0  0  0  0  0  0  0  0  0  0  0  0
    4.4882    1.0342  -17.9190 H   0  0  0  0  0  0  0  0  0  0  0  0
    3.5312    5.1676  -16.5549 H   0  0  0  0  0  0  0  0  0  0  0  0
    3.7638    5.9142  -17.9885 H   0  0  0  0  0  0  0  0  0  0  0  0
    3.2972    4.1163  -20.5091 H   0  0  0  0  0  0  0  0  0  0  0  0
  1  2  2  0
  1  3  1  0
  2 11  1  0
  3 13  2  0
  4  9  1  0
  4 10  2  0
  5 11  2  0
  5 13  1  0
  6 12  2  0
  6 14  1  0
  7 12  1  0
  7 15  2  0
  8 14  2  0
  8 15  1  0
  9 26  2  0
 10 27  1  0
 11 20  1  0
 12 22  1  0
 13 27  1  0
 14 33  1  0
 15 34  1  0
 16 21  1  0
 16 28  1  0
 16 30  2  0
 17 18  1  0
 17 20  1  0
 18 31  1  0
 19 20  1  0
 19 31  1  0
 20 29  1  6
 22 24  1  0
 23 25  1  0
 23 29  1  0
 24 25  1  0
 24 28  1  0
 25 32  1  0
 26 27  1  0
  1 35  1  0
  2 36  1  0
  3 37  1  0
  4 38  1  0
  5 39  1  0
  6 40  1  0
  7 41  1  0
  8 42  1  0
  9 43  1  0
 10 44  1  0
 17 45  1  0
 17 46  1  0
 18 47  1  0
 18 48  1  0
 19 49  1  0
 19 50  1  0
 21 51  1  0
 21 52  1  0
 21 53  1  0
 22 54  1  0
 22 55  1  0
 23 56  1  0
 23 57  1  0
 24 58  1  6
 25 59  1  1
 28 60  1  0
 29 61  1  0
 29 62  1  0
 32 63  1  0
M  CHG  1  29   1
M  END
>  <OMEGA_C>  (190) 
cakFQf1v3kBE6pTBqNbvQDyT00COcIzBZHT7QAmA9EAx3J3B9lK1QFpPFEH7oLfBVl20QLdl9UCd
05XB1QvLQMBfLz8nJa3BLkeSQKxHPr/WE6bBupLTQIjs3r82NK3B+cycQGUVIkHEMLDBpZ3LQML/
BUH2f7HB6dzDQFrF3kCJ04zBhTqiQJqGCz9KbajBAvHPQDc1AEGqTp7Bg6zjQMU76r7dg6/BBeCq
QAAs8b86fqjBR23RQA73hT+OGJDBt+yJQN+o80ARVH/BPAmlQC66AEE98GvBMC+3QAOcu0DHhHTB
JGWjQFlyzkCnfITBugHWQHzRC77leIjBEFWJQM5C4z//9KTB3BCeQD7niEADwo3BC+WfQEaNHUDY
ZZvBCEyEQEFgZUCgipbBEAekQEqnG0HXVabBqQjAQHIbC0HIL6fB6pioQBnYuT/dEpPB9vaGQE/6
rkDAvInBUlbxQBQP1j9z2JLBUDPFQE+A4EBnsmjBABdzQI9LkUBMlJ7BmYUFQRLMpL533rPBFJmb
QDVxR8A5MqbBLmAWQb/J1UDii5TB/UX8QNWXwkA8loXBJ0sIQYxc/EB4aKTBbZG1QFNcFUGsQMDB
VAOTQJRU/kDvM5bBtWTXQIOT1T8n8K7B+lNmQFeVWr8MbKLBR3DmQNV4J8BsC6/BHVqIQHA9L0Hr
erLB9j3hQNAw80AgI7TBu+FTQG0M6UD5PXrBBr6GQCQCB0FGcYXBcou0QBYxEEEALW/BC7GQQKUk
AkFQpV3BODWfQFRsqUB9Y2vBcmLSQBeppkD9ZnjBj+r3QNMqir6tXYbBuVjDQHzKYj2QK4HBTgzK
QFQuhr88YozBdmmHQOrbHkD/rqvBobVRQALwvD+bjaLBuS6jQL/LZEAMHYfBbi+9QB7qkkByBZHB
yDu+QFFCOUApNp7BJHlOQFM7SUB3CZPBf5+PQGZfhD8tWo/BzP9hQCtdpUBzcITBCOJwQIdBvUBo
6I/BBwVTQCK5g0CbEqTBn5cFQX0P4EB6oJTBqojvQL4W1UAjMIzBSR/7QNlf9ECqz53Bs9GZQBri
HUEa6LHBP46zQDGz80CjCJbBv3XJQN7VMz/kIq3BB5GSQJutRr92z6XBLB/UQGaA278AT63BzLq2
QJUXEEHJRbjBDv2fQHyqGEH0YqfB4zrDQGSt3kAm0IzBnCuhQGSiBj+6OKjBRzzPQFiE/kBWiJ7B
nfbiQL4a1b5Yn6/Bf/GrQPB98r9uZqjBuQzSQBqHjz8brY/B+ouIQAFd80DWnH/B3k6iQLOnAEFz
y2vBfou2QA0cvEBIUHTBOsSiQJZMzkCidITBdRTYQKza7r3fsojBB6OHQJYp3j93maTBTCqeQLij
iEBBtY3B6zWfQFWmHEBWU5vBYjWEQFdOZUDtfZbBlffMQHD9A0Gzs7HBviK/QOIWCUGEtqfBn+Ko
QGiJuj//6ZLBE7SGQCpRrkBWnonBw43xQDJv2D9IWJPB7n3DQHJu4UCUimjB7Rd0QAFkkUASjZ7B
WgEFQYiAeL6REbTBsvmdQK77SMAvD6bBcXMWQWXX2EB/C5TB2Bv8QINAxUB4LoXBjDMIQdk8/EA3
VKTBogKEQHHLKUEn+7TBpPmRQDGT+0DPk5bBcLvUQOgu2T+9/a7BKtNnQFgear8p+qHBIoznQKSo
JMBDTK/B3Se5QAH9D0Eh5MDBsyGQQEk7H0FscqDBsKRQQMmP6EBbCHvBJ/CFQPjdBkFAmYXBf86w
QHZ0EEHri27BUEaNQFdmAUG4s13BBMueQHN/qUBdQGvBDkfSQKe5p0CCAHjBH236QHsWrL4S6IfB
QlPKQF5rij3Lu4DBCtPHQMFUeb/KbIzBaPiDQCy8G0A4V6vBU7xPQFJ6tD/52KHBb56jQCHvY0C4
HYfBPCC9QBICk0D3/pDBKDq9QJjNN0DVbJ7BB8NNQJksSkBzAJPBLlGQQKf+fz/qUo/BllJiQE1X
pEARQYTBp0lvQK5VvEDyvo/BP8lTQMcJhEBsDqTB

>  <OMEGA_E>  (190) 
QDMiPphRoD4=

>  <OMEGA_NBR>  (190) 
      4851

$$$$
50168362
     RDKit          3D

 66 69  0  0  1  0  0  0  0  0999 V2000
    8.3595    6.9455  -18.6067 C   0  0  0  0  0  0  0  0  0  0  0  0
    7.4893    6.6045  -17.5542 C   0  0  0  0  0  0  0  0  0  0  0  0
    7.8789    7.6526  -19.7218 C   0  0  0  0  0  0  0  0  0  0  0  0
    5.6359    9.2857  -22.9334 C   0  0  0  0  0  0  0  0  0  0  0  0
    5.6577    7.7054  -18.7212 C   0  0  0  0  0  0  0  0  0  0  0  0
    6.2516    0.6301  -21.6502 C   0  0  0  0  0  0  0  0  0  0  0  0
    4.5154   -0.8023  -20.7001 C   0  0  0  0  0  0  0  0  0  0  0  0
    6.5404   -1.7923  -21.6343 C   0  0  0  0  0  0  0  0  0  0  0  0
    4.8663   10.1331  -21.9941 C   0  0  0  0  0  0  0  0  0  0  0  0
    6.3727    8.4153  -22.1762 C   0  0  0  0  0  0  0  0  0  0  0  0
    6.1200    6.9805  -17.5980 C   0  0  0  0  0  0  0  0  0  0  0  0
    4.9963    0.4851  -21.0215 C   0  0  0  0  0  0  0  0  0  0  0  0
    6.5247    8.0437  -19.7768 C   0  0  0  0  0  0  0  0  0  0  0  0
    7.0231   -0.5075  -21.9536 C   0  0  0  0  0  0  0  0  0  0  0  0
    5.2863   -1.9392  -21.0089 C   0  0  0  0  0  0  0  0  0  0  0  0
    6.5735    1.0989  -17.9520 C   0  0  0  0  0  0  0  0  0  0  0  0
    4.1072    7.5636  -16.1073 C   0  0  0  0  0  0  0  0  0  0  0  0
    5.6936    5.7802  -15.3039 C   0  0  0  0  0  0  0  0  0  0  0  0
    4.8192    8.5506  -15.1723 C   0  0  0  0  0  0  0  0  0  0  0  0
    6.3102    6.8334  -14.3623 C   0  0  0  0  0  0  0  0  0  0  0  0
    5.0821    6.4442  -16.5801 C   0  0  0  0  0  0  0  0  0  0  0  0
    6.7524   -0.1291  -17.0639 C   0  0  0  0  0  0  0  0  0  0  0  0
    4.2306    1.7123  -20.5739 C   0  0  0  0  0  0  0  0  0  0  0  0
    5.0123    4.2835  -17.7891 C   0  0  0  0  0  0  0  0  0  0  0  0
    4.9929    2.4163  -19.4278 C   0  0  1  0  0  0  0  0  0  0  0  0
    4.1669    3.5604  -18.8290 C   0  0  2  0  0  0  0  0  0  0  0  0
    5.1264    9.7442  -20.7654 N   0  0  0  0  0  0  0  0  0  0  0  0
    6.0231    8.7290  -20.8826 N   0  0  0  0  0  0  0  0  0  0  0  0
    5.2902    1.4338  -18.3673 N   0  0  0  0  0  0  0  0  0  0  0  0
    4.2564    5.4439  -17.2842 N   0  0  0  0  0  0  0  0  0  0  0  0
    7.5624    1.6608  -18.4107 O   0  0  0  0  0  0  0  0  0  0  0  0
    5.3263    7.8347  -14.0286 O   0  0  0  0  0  0  0  0  0  0  0  0
    3.8045    4.4893  -19.8502 O   0  0  0  0  0  0  0  0  0  0  0  0
    8.2367   -0.3650  -22.5318 F   0  0  0  0  0  0  0  0  0  0  0  0
    4.8313   -3.1709  -20.6870 F   0  0  0  0  0  0  0  0  0  0  0  0
    9.4006    6.6626  -18.5570 H   0  0  0  0  0  0  0  0  0  0  0  0
    7.8658    6.0522  -16.7059 H   0  0  0  0  0  0  0  0  0  0  0  0
    8.5455    7.8963  -20.5358 H   0  0  0  0  0  0  0  0  0  0  0  0
    5.6190    9.3434  -24.0118 H   0  0  0  0  0  0  0  0  0  0  0  0
    4.6210    8.0044  -18.7696 H   0  0  0  0  0  0  0  0  0  0  0  0
    6.6204    1.6143  -21.8987 H   0  0  0  0  0  0  0  0  0  0  0  0
    3.5560   -0.9153  -20.2173 H   0  0  0  0  0  0  0  0  0  0  0  0
    7.1320   -2.6648  -21.8690 H   0  0  0  0  0  0  0  0  0  0  0  0
    4.2015   10.9375  -22.2722 H   0  0  0  0  0  0  0  0  0  0  0  0
    7.0660    7.6596  -22.5147 H   0  0  0  0  0  0  0  0  0  0  0  0
    3.2639    7.1040  -15.5711 H   0  0  0  0  0  0  0  0  0  0  0  0
    3.7303    8.1077  -16.9859 H   0  0  0  0  0  0  0  0  0  0  0  0
    6.4771    5.0713  -15.6099 H   0  0  0  0  0  0  0  0  0  0  0  0
    4.9002    5.2403  -14.7663 H   0  0  0  0  0  0  0  0  0  0  0  0
    5.6532    9.0285  -15.7072 H   0  0  0  0  0  0  0  0  0  0  0  0
    4.1080    9.3208  -14.8392 H   0  0  0  0  0  0  0  0  0  0  0  0
    6.6553    6.3409  -13.4413 H   0  0  0  0  0  0  0  0  0  0  0  0
    7.1636    7.3142  -14.8629 H   0  0  0  0  0  0  0  0  0  0  0  0
    7.8243   -0.3503  -16.9547 H   0  0  0  0  0  0  0  0  0  0  0  0
    6.3161    0.0681  -16.0735 H   0  0  0  0  0  0  0  0  0  0  0  0
    6.2452   -0.9905  -17.5230 H   0  0  0  0  0  0  0  0  0  0  0  0
    4.1239    2.4054  -21.4213 H   0  0  0  0  0  0  0  0  0  0  0  0
    3.2339    1.4114  -20.2187 H   0  0  0  0  0  0  0  0  0  0  0  0
    5.2393    3.6002  -16.9574 H   0  0  0  0  0  0  0  0  0  0  0  0
    5.9510    4.6257  -18.2491 H   0  0  0  0  0  0  0  0  0  0  0  0
    5.9324    2.8259  -19.8273 H   0  0  0  0  0  0  0  0  0  0  0  0
    3.2705    3.1451  -18.3452 H   0  0  0  0  0  0  0  0  0  0  0  0
    4.5197    0.9805  -17.9192 H   0  0  0  0  0  0  0  0  0  0  0  0
    3.5580    5.1116  -16.6504 H   0  0  0  0  0  0  0  0  0  0  0  0
    3.8150    5.8927  -18.0612 H   0  0  0  0  0  0  0  0  0  0  0  0
    3.2761    4.0496  -20.5059 H   0  0  0  0  0  0  0  0  0  0  0  0
  1  2  2  0
  1  3  1  0
  2 11  1  0
  3 13  2  0
  4  9  1  0
  4 10  2  0
  5 11  2  0
  5 13  1  0
  6 12  2  0
  6 14  1  0
  7 12  1  0
  7 15  2  0
  8 14  2  0
  8 15  1  0
  9 27  2  0
 10 28  1  0
 11 21  1  0
 12 23  1  0
 13 28  1  0
 14 34  1  0
 15 35  1  0
 16 22  1  0
 16 29  1  0
 16 31  2  0
 17 19  1  0
 17 21  1  0
 18 20  1  0
 18 21  1  0
 19 32  1  0
 20 32  1  0
 21 30  1  0
 23 25  1  0
 24 26  1  0
 24 30  1  0
 25 26  1  0
 25 29  1  0
 26 33  1  0
 27 28  1  0
  1 36  1  0
  2 37  1  0
  3 38  1  0
  4 39  1  0
  5 40  1  0
  6 41  1  0
  7 42  1  0
  8 43  1  0
  9 44  1  0
 10 45  1  0
 17 46  1  0
 17 47  1  0
 18 48  1  0
 18 49  1  0
 19 50  1  0
 19 51  1  0
 20 52  1  0
 20 53  1  0
 22 54  1  0
 22 55  1  0
 22 56  1  0
 23 57  1  0
 23 58  1  0
 24 59  1  0
 24 60  1  0
 25 61  1  6
 26 62  1  1
 29 63  1  0
 30 64  1  0
 30 65  1  0
 33 66  1  0
M  CHG  1  30   1
M  END
>  <OMEGA_C>  (191) 
c8AFQYBB3kCA2pTBEKjvQDZY00DvbozBpB/8QPnh9EBIxp3B51i0QEmSFEGud7fBngu1QD6S9kAX
xZXBJg3IQN1OIT+1M63BG36QQK9hTb/jmaXBO0vRQOtp5b8TE63BBLmbQE4hIkHT86/BPu3LQDCl
BkHmaLHBWdfDQFVg30DHyIzBzeGfQApd+D4XLKjBbcrQQNOyAEHMNp7B/LzgQJPrAb/7oK/B+Cip
QCg3+L84EqjBOVrSQHGpjD+0nY/BE26DQC4J8kC+24DB7zG2QEH3uEC+3HTBrzaaQF/PCEHiwXLB
Zu3JQI+r2kD/y2XBOKCiQCw3zkD0o4TBVhPYQN01BL7WgojBumCHQP0r2z9Dl6TBvGSgQC0SiUD+
T47BhcWfQN+kGkAabJvBMleFQPXcY0DGoZbBVwukQE3oG0GJH6bB9rzAQPypC0GVD6fBtUmpQNKH
tz8q8JLBwDSIQJ80rkAWRorBj//xQBaU1D8aSZPB2XCqQD+2+kAEdWDBTHxzQGyoj0A/zZ7BqskD
QRzkur4fQbTBvpmaQDjwSsD8fqXBxWgWQbQz1UCwdJTBuLT7QPyrwUCfpYXBMroIQbWu/EBpSaTB
dc6zQKN+FUEXGMDBcd+TQAkSAEErKJbBJNrTQEiizj+CMK/B5ZRjQDxPar8OvaHBhTnkQK+MKsDJ
867BynKGQBwAL0FxLbLBtxziQBIb9UAKHrTBAeNQQMpT40ArI3nB6LxuQCy5AUEV44fBC0TPQLdH
okDzwXnBeM6cQGmwp0CiQmzBx+a0QJF0EEHfUHvBeHSDQBAiFUFFbW3Bh/jUQJjoykB2D1fBcTzl
QOwN6kBizm3B/2D6QHlgs75Ko4fBfx3KQK9ziz2bloDB2tjHQNSRfb8nL4zBSveDQIryGUDZXqvB
lfhOQEOntD/Uv6HBWKinQKppZkDPqIfB4m6+QM4FlEAq/pHB6dW9QAfbNEBJnp7BQFBRQAJJSUD0
wpLBMaGQQIIDez+ZWo/B/rZjQNeRo0DzM4XBZih0QL2QvEBifZDB1qpRQCCWgUAVDKTBs74FQR5y
30AbcpTBITPvQKSr1EDoGYzBSj/8QI1N9EATp53B6wOcQC4+H0GZg7HBrV20QCZ79EDsFJbBL6jG
QFHiLj9HT63BJd2RQEFaU78EbaXBCKHSQKD/3L+zna3BU821QJtEEEGXDbjB+O+jQKxoGkGxBqfB
0w3DQJQY30CWzozBymifQI509z679afB4ZvQQNJA/0C7cZ7BR1XgQJLz1r4HErDBBFurQDj09r+J
UajBnOjTQMrajT/p64/BIu+BQA8l8kAfLoHBsgi1QC5WukCfeXTBaAGYQLheCUFitnPBreTHQNoA
3UDfpGXBVbGhQK5czkBRoITBCL/aQIZD7L041ojBeP2FQFbG1j8SF6TBgBOgQPC+iEApEY7BPDyf
QI5OGkA1OZvBAd+EQJQKY0CZV5bB2fTLQDTSA0F0nrHBd9/AQCvSCUH2jKfBokyqQGAmuT8uvpLB
E5qHQB+wrUDEE4rBCeTyQIx91D/oBJTBIfenQKAM/UCY/GDBka5xQCY9j0D9ep7BCzsDQeHuY76i
7bTBsFWeQKe+S8AM7aXBcYYWQZGm10DqxJPBIC77QNZUxEAGGoXB7vYIQXvr+0APG6TBL/mGQP+d
K0GGdrTBTeiSQAay/ECUw5bBVv7QQIWB1z9aSa/BjPBnQL0De791RaHBlzvmQNevJMCvy6/BtlW2
QNWpD0HQr8DBVpyWQIfcIUGV+p/BxtdNQBCU40CuvXnBOwBsQG1UAUElW4jBk4/OQPLQo0BE9HjB
+KybQHMRqUDB2GvBNMayQJjmEEEvT3zBUuCAQAy6FUHf4W7BroPSQPkTzkB7nVbBGF7jQIg57EDf
lm3BECD9QKd+sL63YojBDXTOQBM8uz0uwoDBfpTJQPSveb+GQYzBlmGAQMplF0Be0KrBQjJOQBIj
qz8036DBoImnQPf+ZUBaZ4fBGwO+QJbQk0A0x5HBc6W8QMMSNUC+tp7BqsNQQEogSEApa5LBbFSS
QK0EgT8hxY7BakpjQFX6okD06ITBdfZxQASEu0AdTJDB/atPQNYagUAmsqPB

>  <OMEGA_E>  (191) 
gH3/PTDTkD4=

>  <OMEGA_NBR>  (191) 
      7289

$$$$
50168458
     RDKit          3D

 59 62  0  0  1  0  0  0  0  0999 V2000
    8.3673    6.8785  -18.5959 C   0  0  0  0  0  0  0  0  0  0  0  0
    7.4880    6.5602  -17.5458 C   0  0  0  0  0  0  0  0  0  0  0  0
    7.8962    7.5861  -19.7180 C   0  0  0  0  0  0  0  0  0  0  0  0
    5.7415    9.2533  -22.9575 C   0  0  0  0  0  0  0  0  0  0  0  0
    5.6758    7.7058  -18.7162 C   0  0  0  0  0  0  0  0  0  0  0  0
    6.3739    0.6991  -21.6907 C   0  0  0  0  0  0  0  0  0  0  0  0
    4.6048   -0.7680  -20.8646 C   0  0  0  0  0  0  0  0  0  0  0  0
    6.6568   -1.7251  -21.7774 C   0  0  0  0  0  0  0  0  0  0  0  0
    4.9519   10.1033  -22.0374 C   0  0  0  0  0  0  0  0  0  0  0  0
    6.4449    8.3713  -22.1828 C   0  0  0  0  0  0  0  0  0  0  0  0
    6.1390    6.9689  -17.6124 C   0  0  0  0  0  0  0  0  0  0  0  0
    5.0961    0.5344  -21.1099 C   0  0  0  0  0  0  0  0  0  0  0  0
    6.5470    8.0059  -19.7807 C   0  0  0  0  0  0  0  0  0  0  0  0
    7.1536   -0.4292  -22.0193 C   0  0  0  0  0  0  0  0  0  0  0  0
    5.3812   -1.8946  -21.2046 C   0  0  0  0  0  0  0  0  0  0  0  0
    6.5775    1.0239  -18.0814 C   0  0  0  0  0  0  0  0  0  0  0  0
    4.5346    7.4681  -15.6288 C   0  0  0  0  0  0  0  0  0  0  0  0
    5.5022    6.3703  -15.1300 C   0  0  0  0  0  0  0  0  0  0  0  0
    5.1329    6.4652  -16.6131 C   0  0  0  0  0  0  0  0  0  0  0  0
    6.7504   -0.1996  -17.1868 C   0  0  0  0  0  0  0  0  0  0  0  0
    4.2991    1.7511  -20.6498 C   0  0  0  0  0  0  0  0  0  0  0  0
    4.9581    4.2642  -17.7246 C   0  0  0  0  0  0  0  0  0  0  0  0
    4.9963    2.4395  -19.4464 C   0  0  1  0  0  0  0  0  0  0  0  0
    4.1265    3.5400  -18.7972 C   0  0  2  0  0  0  0  0  0  0  0  0
    5.1719    9.7073  -20.8029 N   0  0  0  0  0  0  0  0  0  0  0  0
    6.0648    8.6868  -20.8978 N   0  0  0  0  0  0  0  0  0  0  0  0
    5.2926    1.4150  -18.4313 N   0  0  0  0  0  0  0  0  0  0  0  0
    4.2335    5.4436  -17.1917 N   0  0  0  0  0  0  0  0  0  0  0  0
    7.5585    1.6865  -18.4021 O   0  0  0  0  0  0  0  0  0  0  0  0
    3.7167    4.4822  -19.7874 O   0  0  0  0  0  0  0  0  0  0  0  0
    8.3837   -0.2696  -22.5584 F   0  0  0  0  0  0  0  0  0  0  0  0
    4.9074   -3.1397  -20.9707 F   0  0  0  0  0  0  0  0  0  0  0  0
    9.4039    6.5801  -18.5417 H   0  0  0  0  0  0  0  0  0  0  0  0
    7.8440    6.0046  -16.6908 H   0  0  0  0  0  0  0  0  0  0  0  0
    8.5675    7.8093  -20.5340 H   0  0  0  0  0  0  0  0  0  0  0  0
    5.7591    9.3172  -24.0354 H   0  0  0  0  0  0  0  0  0  0  0  0
    4.6501    8.0423  -18.7478 H   0  0  0  0  0  0  0  0  0  0  0  0
    6.7542    1.6914  -21.8834 H   0  0  0  0  0  0  0  0  0  0  0  0
    3.6316   -0.9005  -20.4154 H   0  0  0  0  0  0  0  0  0  0  0  0
    7.2539   -2.5885  -22.0311 H   0  0  0  0  0  0  0  0  0  0  0  0
    4.3025   10.9145  -22.3316 H   0  0  0  0  0  0  0  0  0  0  0  0
    7.1365    7.6066  -22.5043 H   0  0  0  0  0  0  0  0  0  0  0  0
    3.4660    7.4180  -15.3729 H   0  0  0  0  0  0  0  0  0  0  0  0
    4.8579    8.5193  -15.6490 H   0  0  0  0  0  0  0  0  0  0  0  0
    6.5152    6.6386  -14.7959 H   0  0  0  0  0  0  0  0  0  0  0  0
    5.1233    5.5373  -14.5197 H   0  0  0  0  0  0  0  0  0  0  0  0
    7.8142   -0.3240  -16.9364 H   0  0  0  0  0  0  0  0  0  0  0  0
    6.1698   -0.0628  -16.2626 H   0  0  0  0  0  0  0  0  0  0  0  0
    6.3913   -1.0944  -17.7163 H   0  0  0  0  0  0  0  0  0  0  0  0
    4.2218    2.4677  -21.4808 H   0  0  0  0  0  0  0  0  0  0  0  0
    3.2913    1.4298  -20.3479 H   0  0  0  0  0  0  0  0  0  0  0  0
    5.1652    3.5670  -16.8994 H   0  0  0  0  0  0  0  0  0  0  0  0
    5.9071    4.5971  -18.1702 H   0  0  0  0  0  0  0  0  0  0  0  0
    5.9345    2.8939  -19.7977 H   0  0  0  0  0  0  0  0  0  0  0  0
    3.2525    3.0720  -18.3206 H   0  0  0  0  0  0  0  0  0  0  0  0
    4.5235    0.9756  -17.9670 H   0  0  0  0  0  0  0  0  0  0  0  0
    3.6031    5.1347  -16.4795 H   0  0  0  0  0  0  0  0  0  0  0  0
    3.7148    5.8620  -17.9373 H   0  0  0  0  0  0  0  0  0  0  0  0
    3.2025    4.0399  -20.4525 H   0  0  0  0  0  0  0  0  0  0  0  0
  1  2  2  0
  1  3  1  0
  2 11  1  0
  3 13  2  0
  4  9  1  0
  4 10  2  0
  5 11  2  0
  5 13  1  0
  6 12  2  0
  6 14  1  0
  7 12  1  0
  7 15  2  0
  8 14  2  0
  8 15  1  0
  9 25  2  0
 10 26  1  0
 11 19  1  0
 12 21  1  0
 13 26  1  0
 14 31  1  0
 15 32  1  0
 16 20  1  0
 16 27  1  0
 16 29  2  0
 17 18  1  0
 17 19  1  0
 18 19  1  0
 19 28  1  0
 21 23  1  0
 22 24  1  0
 22 28  1  0
 23 24  1  0
 23 27  1  0
 24 30  1  0
 25 26  1  0
  1 33  1  0
  2 34  1  0
  3 35  1  0
  4 36  1  0
  5 37  1  0
  6 38  1  0
  7 39  1  0
  8 40  1  0
  9 41  1  0
 10 42  1  0
 17 43  1  0
 17 44  1  0
 18 45  1  0
 18 46  1  0
 20 47  1  0
 20 48  1  0
 20 49  1  0
 21 50  1  0
 21 51  1  0
 22 52  1  0
 22 53  1  0
 23 54  1  6
 24 55  1  1
 27 56  1  0
 28 57  1  0
 28 58  1  0
 30 59  1  0
M  CHG  1  28   1
M  END
>  <OMEGA_C>  (192) 
guAFQaMc3EBzxJTBep3vQEnt0UC9XYzBdq38QK7B8kB6vp3Brrq3QHgNFEHfqLfBQKC1QECW9kDg
upXBEPfLQOT5Mj+Phq3BPlqTQKScRL+t6qbBfATVQJ7Q3L8LOK7BCXaeQPimIUGVTLDBiDzOQPnw
BUFQdrHBrXLEQHoB30Aq5ozBGxOjQGPNCD/84KjB6oDRQDcYAEHXPp7BSurkQDu+2757J7DBfTKs
QM2C8r/0oqnB9XrSQEMPgz/FppDBhRuRQL/67kCND3rBnxGwQNnZy0CkFHLBg0CkQPnizkCP54TB
3wLYQORWTL6lfonB1JGJQPUk4D/SMqXBGameQJZ0iEDxy43BwOGfQBohHEA/kpvBLwyEQGqPYkCT
YJbBToClQPFQG0FmbKbBoBLCQAP9CkG0LqfBklypQBIgtT9Ac5PB0HiHQE0yrkCDiInB7N7xQBHe
1z+aN5PB3t5tQItuj0CDTJ7BlSMGQWcHir6Fd7TBRAmdQBLxSMD8w6fBN3YWQXKQ0kBRVZTB8wH7
QN0lwEDEhoXBaxQJQRnm+UC8RaTBQ0q4QG8TFUGKSMDBOs2UQF2tAEGE+5XBiSLYQCuA2D85Ea/B
T2xoQCaKZr+pUqPBWSDoQB+qJcCgP7DBKK6JQNChLkEnp7LB6V3kQJRp80DECLTBhdJdQC9g7UA1
93XB6HObQDJPCEFKYnrB1nzQQKJv1EDWu2zBMPKjQG4xsUDBUGjBDg76QMnfpb7KfYfBDG/FQCOH
gL3DGYLByYXMQOMVjL/1uo3BYxmHQJ7uHUC72KvBWaRSQAMDtz+PyKLBTEmlQLpJZEDiMYfBXAe9
QIAbk0CUXJHBRee9QNk0OUC3YZ7BVShQQGecRECckJLBv8CQQBfDeT94vI/B7plmQB9PpED91YPB
v79tQHeVu0CPf4/By/VMQMNGgUCxnqPB84MFQcZy3EBEi5TBCsTuQBYs00DnGIzBeNH7QO7K8EDe
2p3BDtibQGNFHUE2HLLBFlK0QDYr9ECiFJbB2vnKQA+HLz9Zra3B/HGSQEirRb/J5KbBMoTTQEq1
3r8Lb67B5nq4QPhKD0G9crjBDu+hQOgZGEFclqfBxEXDQMXV3kD96IzBDmGiQBsMBz8n3qjB7FrQ
QGj2/EASpJ7BZHrjQPWZ5L5fcrDBvuqqQOCR87+QtqnBQB/TQDi9gj+nt5DBnLGPQJLy7kBTCXrB
3KOuQCXey0ASA3LBLPmiQOfdzkAz4oTBMCvZQLxYb76c8InBhlaJQDDY3z9oG6XBwFCeQOoRiEBs
mo3BsCygQP/iG0CAi5vBdHOEQK6vYkCjYZbB6nrOQKsbA0Gl27HBgszAQLBdCEH636fBKN6pQIBA
tD/Xc5PB+pyGQKO4rUBZcYnBlDnyQJwK2z+KBpPBQ+FwQCgBkECRS57BXS8FQcbYlb59B7XBbpGb
QCNQScDe1KfBKjcWQcb200Di45PBI1X6QFEpw0DmAYXBtLUIQXwc90BkaaTBv0KGQHpDKUGONLXB
8DSTQKLd/UD1kZbBNEXXQACI1j9aPK/B+OBmQJM5Zr8pN6PBpGfmQNfNJsB0grDBuOm6QOsfD0H8
EMHBDDSSQBnMHkE1qaDBmvNaQI9N7UCv/XXBSgCaQKxMCEEDWHrBsgPPQPB+1ECEnWzBNH2iQCcz
sUAwQ2jBNDz7QAxos75N7ofBMmHGQNVaEr6wiILBPj3OQCtzjr/sd47BC7CGQFfIHUAzwKvB6kpS
QDB4tz+vmKLBaTmkQGUZY0DTAIfBqQ69QKjFkkC/85DB/x++QMu9OED6b57BD91PQNkuRUBvxpLB
TGCRQD30dj/DuI/BHgJlQN3So0CXu4PBRdZrQOWvukDqco/B49VQQLtCgkCgw6PB

>  <OMEGA_E>  (192) 
8KVTPvhlwz4=

>  <OMEGA_NBR>  (192) 
      9531

$$$$
50212926
     RDKit          3D

 66 69  0  0  1  0  0  0  0  0999 V2000
    8.3696    7.0224  -18.5351 C   0  0  0  0  0  0  0  0  0  0  0  0
    7.4832    6.6533  -17.5065 C   0  0  0  0  0  0  0  0  0  0  0  0
    7.8894    7.6770  -19.6826 C   0  0  0  0  0  0  0  0  0  0  0  0
    4.8448    9.9362  -22.1810 C   0  0  0  0  0  0  0  0  0  0  0  0
    5.6336    7.6233  -18.7597 C   0  0  0  0  0  0  0  0  0  0  0  0
    6.2626    0.6962  -21.6450 C   0  0  0  0  0  0  0  0  0  0  0  0
    4.5823   -0.8120  -20.7114 C   0  0  0  0  0  0  0  0  0  0  0  0
    6.6526   -1.7114  -21.6387 C   0  0  0  0  0  0  0  0  0  0  0  0
    5.7262    9.0667  -22.9934 C   0  0  0  0  0  0  0  0  0  0  0  0
    5.0619    9.6097  -20.8705 C   0  0  0  0  0  0  0  0  0  0  0  0
    6.0983    6.9490  -17.6081 C   0  0  0  0  0  0  0  0  0  0  0  0
    5.0110    0.4959  -21.0235 C   0  0  0  0  0  0  0  0  0  0  0  0
    6.5187    7.9898  -19.7928 C   0  0  0  0  0  0  0  0  0  0  0  0
    7.0839   -0.4060  -21.9468 C   0  0  0  0  0  0  0  0  0  0  0  0
    5.4006   -1.9141  -21.0245 C   0  0  0  0  0  0  0  0  0  0  0  0
    6.5886    1.0764  -18.0320 C   0  0  0  0  0  0  0  0  0  0  0  0
    4.8541    8.5519  -15.2305 C   0  0  0  0  0  0  0  0  0  0  0  0
    4.1060    7.5409  -16.1127 C   0  0  0  0  0  0  0  0  0  0  0  0
    5.5408    7.8199  -14.0612 C   0  0  0  0  0  0  0  0  0  0  0  0
    5.6994    5.7678  -15.3222 C   0  0  0  0  0  0  0  0  0  0  0  0
    5.0642    6.4152  -16.5890 C   0  0  2  0  0  0  0  0  0  0  0  0
    6.7952   -0.0755  -17.0527 C   0  0  0  0  0  0  0  0  0  0  0  0
    4.2004    1.6890  -20.5630 C   0  0  0  0  0  0  0  0  0  0  0  0
    4.9754    4.2620  -17.7893 C   0  0  0  0  0  0  0  0  0  0  0  0
    4.9583    2.4128  -19.4286 C   0  0  1  0  0  0  0  0  0  0  0  0
    4.1212    3.5403  -18.8200 C   0  0  2  0  0  0  0  0  0  0  0  0
    6.4325    8.3054  -22.1857 N   0  0  0  0  0  0  0  0  0  0  0  0
    6.0252    8.6269  -20.9306 N   0  0  0  0  0  0  0  0  0  0  0  0
    5.2908    1.4372  -18.3722 N   0  0  0  0  0  0  0  0  0  0  0  0
    4.2259    5.4160  -17.2723 N   0  0  0  0  0  0  0  0  0  0  0  0
    7.5559    1.7208  -18.4236 O   0  0  0  0  0  0  0  0  0  0  0  0
    6.3990    6.7676  -14.5531 O   0  0  0  0  0  0  0  0  0  0  0  0
    3.7371    4.4709  -19.8322 O   0  0  0  0  0  0  0  0  0  0  0  0
    8.2961   -0.2092  -22.5120 F   0  0  0  0  0  0  0  0  0  0  0  0
    4.9909   -3.1665  -20.7222 F   0  0  0  0  0  0  0  0  0  0  0  0
    9.4228    6.8020  -18.4425 H   0  0  0  0  0  0  0  0  0  0  0  0
    7.8592    6.1411  -16.6331 H   0  0  0  0  0  0  0  0  0  0  0  0
    8.5695    7.9401  -20.4791 H   0  0  0  0  0  0  0  0  0  0  0  0
    4.1611   10.6852  -22.5523 H   0  0  0  0  0  0  0  0  0  0  0  0
    4.5839    7.8614  -18.8493 H   0  0  0  0  0  0  0  0  0  0  0  0
    6.5901    1.6960  -21.8890 H   0  0  0  0  0  0  0  0  0  0  0  0
    3.6269   -0.9674  -20.2325 H   0  0  0  0  0  0  0  0  0  0  0  0
    7.2818   -2.5572  -21.8735 H   0  0  0  0  0  0  0  0  0  0  0  0
    5.7804    9.0588  -24.0720 H   0  0  0  0  0  0  0  0  0  0  0  0
    4.5885   10.0255  -19.9934 H   0  0  0  0  0  0  0  0  0  0  0  0
    5.6145    9.0698  -15.8336 H   0  0  0  0  0  0  0  0  0  0  0  0
    4.1395    9.2869  -14.8315 H   0  0  0  0  0  0  0  0  0  0  0  0
    3.2840    7.0948  -15.5336 H   0  0  0  0  0  0  0  0  0  0  0  0
    3.6956    8.0615  -16.9906 H   0  0  0  0  0  0  0  0  0  0  0  0
    6.1438    8.5399  -13.4884 H   0  0  0  0  0  0  0  0  0  0  0  0
    4.7720    7.3831  -13.4070 H   0  0  0  0  0  0  0  0  0  0  0  0
    4.9058    5.3226  -14.7042 H   0  0  0  0  0  0  0  0  0  0  0  0
    6.4074    4.9842  -15.6301 H   0  0  0  0  0  0  0  0  0  0  0  0
    7.8659   -0.1713  -16.8191 H   0  0  0  0  0  0  0  0  0  0  0  0
    6.2348    0.1249  -16.1276 H   0  0  0  0  0  0  0  0  0  0  0  0
    6.4336   -1.0106  -17.5051 H   0  0  0  0  0  0  0  0  0  0  0  0
    4.0526    2.3804  -21.4057 H   0  0  0  0  0  0  0  0  0  0  0  0
    3.2224    1.3481  -20.1925 H   0  0  0  0  0  0  0  0  0  0  0  0
    5.2142    3.5766  -16.9627 H   0  0  0  0  0  0  0  0  0  0  0  0
    5.9077    4.6080  -18.2595 H   0  0  0  0  0  0  0  0  0  0  0  0
    5.8845    2.8401  -19.8404 H   0  0  0  0  0  0  0  0  0  0  0  0
    3.2361    3.1117  -18.3273 H   0  0  0  0  0  0  0  0  0  0  0  0
    4.5374    1.0106  -17.8718 H   0  0  0  0  0  0  0  0  0  0  0  0
    3.5421    5.0821  -16.6234 H   0  0  0  0  0  0  0  0  0  0  0  0
    3.7667    5.8626  -18.0401 H   0  0  0  0  0  0  0  0  0  0  0  0
    3.2024    4.0300  -20.4820 H   0  0  0  0  0  0  0  0  0  0  0  0
  1  2  2  0
  1  3  1  0
  2 11  1  0
  3 13  2  0
  4  9  1  0
  4 10  2  0
  5 11  2  0
  5 13  1  0
  6 12  2  0
  6 14  1  0
  7 12  1  0
  7 15  2  0
  8 14  2  0
  8 15  1  0
  9 27  2  0
 10 28  1  0
 11 21  1  0
 12 23  1  0
 13 28  1  0
 14 34  1  0
 15 35  1  0
 16 22  1  0
 16 29  1  0
 16 31  2  0
 17 18  1  0
 17 19  1  0
 18 21  1  0
 19 32  1  0
 20 21  1  0
 20 32  1  0
 21 30  1  6
 23 25  1  0
 24 26  1  0
 24 30  1  0
 25 26  1  0
 25 29  1  0
 26 33  1  0
 27 28  1  0
  1 36  1  0
  2 37  1  0
  3 38  1  0
  4 39  1  0
  5 40  1  0
  6 41  1  0
  7 42  1  0
  8 43  1  0
  9 44  1  0
 10 45  1  0
 17 46  1  0
 17 47  1  0
 18 48  1  0
 18 49  1  0
 19 50  1  0
 19 51  1  0
 20 52  1  0
 20 53  1  0
 22 54  1  0
 22 55  1  0
 22 56  1  0
 23 57  1  0
 23 58  1  0
 24 59  1  0
 24 60  1  0
 25 61  1  6
 26 62  1  1
 29 63  1  0
 30 64  1  0
 30 65  1  0
 33 66  1  0
M  CHG  1  30   1
M  END
>  <OMEGA_C>  (193) 
zOkFQaK34EDUR5TBUnbvQHrn1EBHDYzBpnX8QNup9UDidZ3BAgmbQLb6HkGkcrHBFka0QCry80De
E5bBemfIQNA3Mj/xKK3BaqKSQHjfT7/zsKXB8uHUQOAP278aHK3BcD23QEQREUF68rfBePuhQEjB
GUHh9qbBAyXDQOtd3kBv3YzB6VmgQOHi/T4gMKjBBpnQQKis/0CcV57BTa/iQHbdz74Ck6/B6dGs
QMsB9b8hMqjBKNbSQJfHiT+XQZDBCFWbQLHUCEErsHPBJGSDQAJP8UDa5oDBTE6xQPI8+kC4+mDB
p2G2QMSRuEDpJ3XBLw6iQPFIzUA1toTBkHLZQFSYmr3Va4jB/WmGQIky2D/0gKTBxzafQP5hiEBv
UI7BcqqeQN9qGkDCbZvBQeGDQOuTYkBxj5bBZ9fNQAHjBEFNfLHBus7AQN4HCkHRcafBRE6pQKX1
tz9d+pLBhzqHQO9PrUCdLYrB0MnxQFdD3D+WY5PBWMTMQJWQ2EB12WjB5StvQOgRj0BrqJ7B2rwE
Qd9BVr57GLTBSbWfQGqnSsAcx6XBw8MWQQ6q2UBUipPBXX77QBSExECjEIXBxBwJQWQV/kBJ1aPB
vCeFQKj2KkEWa7TBmK+SQFOQ+0BXy5bBJeLSQKkV2T+tHK/BUx5oQE6pd7883KHBowTpQE+pI8Df
/K7B1/i4QP7wEEF6k8DBEtWSQEBoIEF48p/BvamzQPIdEUFLVn3BDXeEQA6XFEHkTW3BgS1SQEUI
40CtiXjBJIVsQNr7AEGp7IfB3pnEQFOjCEF50FfBCLSYQChC7EDlglbBRPycQL9SqkB2RGvBognN
QPN+n0DwFHrBO7X7QJZzL76FjYbBcoPHQF/d/z1OBYHBRuDNQHxcgb+CCozBEK+BQBNYGEDiPqvB
GTxOQLCPrD8ziqHBdtqmQKTmZECSs4fB0wu9QLt0k0CNE5LBfU28QLHENUAyuZ7B4xtPQLYlR0BZ
npLBjTKRQNJbgT9w+Y7BX7JiQPGgokDC/ITBzRBxQMSau0AyUpDB3fRMQJD1gEA426PBArYFQRuK
30D+nJTB0VHvQF5v00CdW4zBmxX8QCuf9kAnd53BvXW0QED8FEG2QbfBTZ20QBLB9kDRqZXBZ/HJ
QGWiEj9Rv6zBbw6QQLtsTb8OkKXBrwvRQACd7b/KVKzBecubQB+eIkGex6/Bb7TLQGf+BkEoKbHB
zGDDQLvo3kDfy4zBl+KgQCxi7z5EHajBZZHQQFs8AUH4+p3ByvvhQI2uFr8o2K7BKQ6oQGo4+7/D
tafB1vHRQG5bjj8lmo/B+W6cQCLJCEHee3PBV96DQFBI8UAEs4DBf/+yQHP9+UAG/mDBCcO2QIRL
uECYSHXBHU6iQLFgzUDFtoTBLBnXQPDcx73FRYjBBa2IQAHm2z+48KTBKV2fQAeJiEAOa47B7RKg
QCUuG0AApZvBpd2EQDKBY0AH6ZbBluKjQCNrHEHn7qXBmYbAQEwmDEHP1KbBJSCpQEWxuD9TH5PB
XHOHQD+4rUDQV4rBQ9bxQGtA1z+jDpPBDdnNQOP/10B+FWnByrRyQOLCj0D1BZ/B7b8EQUb7+L7R
K7PB3OiXQAtmS8APPKXBB3AWQU4R10BJJZTBbz/7QKRIwUAqo4XBI8wIQYdJ/0Ab36PBxyi0QBvp
FUFL4r/BdmKTQPQOAEFAD5bBWunWQPCnxT/brq7Bp4BhQP9UYr8G9qHB/n3jQOrOL8Cv8q3BFaiG
QL2EL0GZCrLBWazhQKWK9UAG1bPBFXe0QCMLEUGeV33BcuGFQCSTFEEc4WzB2ghUQE/h4kA13nfB
PydsQGYDAUEroYfBDOHGQBlyCEHCDljBobWaQJFI7EALQVbBfGKdQERfqkDGRGvBqvfMQETtnkDr
V3rBhFX5QHp5mr5WCofBTNjHQJKR4j3DhIDB69HHQHFTeb9W+YvBWcyGQGJ/GUCz1qvBJ1VQQLrR
uD8aYKLBAwmmQImyZEACy4fBnLe9QIpkk0DF85HBpUK+QFMoNkD+qZ7Byz9QQKX5R0AzLJPByUKQ
QPRzfD9FqI/BKTBiQNYxo0CJQoXBurByQD9FvEDIiJDB0ZpRQA/KgUAmW6TB

>  <OMEGA_E>  (193) 
WAqOPkC29T0=

>  <OMEGA_NBR>  (193) 
     11972

$$$$
50214049
     RDKit          3D

 68 71  0  0  1  0  0  0  0  0999 V2000
    8.3786    6.9790  -18.5701 C   0  0  0  0  0  0  0  0  0  0  0  0
    7.5000    6.5855  -17.5443 C   0  0  0  0  0  0  0  0  0  0  0  0
    7.8997    7.7099  -19.6706 C   0  0  0  0  0  0  0  0  0  0  0  0
    5.6632    7.6889  -18.7038 C   0  0  0  0  0  0  0  0  0  0  0  0
    6.2529    0.6533  -21.6219 C   0  0  0  0  0  0  0  0  0  0  0  0
    4.5632   -0.8595  -20.7132 C   0  0  0  0  0  0  0  0  0  0  0  0
    6.6336   -1.7553  -21.6443 C   0  0  0  0  0  0  0  0  0  0  0  0
    5.6451    9.3648  -22.8747 C   0  0  0  0  0  0  0  0  0  0  0  0
    6.3697    8.4618  -22.1360 C   0  0  0  0  0  0  0  0  0  0  0  0
    5.1644    9.8257  -20.7516 C   0  0  0  0  0  0  0  0  0  0  0  0
    6.1263    6.9416  -17.5938 C   0  0  0  0  0  0  0  0  0  0  0  0
    4.9982    0.4500  -21.0077 C   0  0  0  0  0  0  0  0  0  0  0  0
    6.5386    8.0737  -19.7377 C   0  0  0  0  0  0  0  0  0  0  0  0
    7.0717   -0.4475  -21.9331 C   0  0  0  0  0  0  0  0  0  0  0  0
    5.3783   -1.9607  -21.0367 C   0  0  0  0  0  0  0  0  0  0  0  0
    6.5697    1.0898  -17.9362 C   0  0  0  0  0  0  0  0  0  0  0  0
    5.4432    7.8761  -13.9939 C   0  0  0  0  0  0  0  0  0  0  0  0
    4.8439    8.5483  -15.2409 C   0  0  0  0  0  0  0  0  0  0  0  0
    6.3990    6.7318  -14.3765 C   0  0  0  0  0  0  0  0  0  0  0  0
    4.1202    7.5042  -16.1022 C   0  0  0  0  0  0  0  0  0  0  0  0
    5.7135    5.7130  -15.3122 C   0  0  0  0  0  0  0  0  0  0  0  0
    5.0936    6.3900  -16.5781 C   0  0  0  0  0  0  0  0  0  0  0  0
    6.7767   -0.1260  -17.0371 C   0  0  0  0  0  0  0  0  0  0  0  0
    4.1881    1.6407  -20.5417 C   0  0  0  0  0  0  0  0  0  0  0  0
    5.0034    4.2374  -17.7972 C   0  0  0  0  0  0  0  0  0  0  0  0
    4.9555    2.3650  -19.4142 C   0  0  1  0  0  0  0  0  0  0  0  0
    4.1318    3.5036  -18.8074 C   0  0  2  0  0  0  0  0  0  0  0  0
    4.9312   10.1991  -21.9916 N   0  0  0  0  0  0  0  0  0  0  0  0
    6.0440    8.7698  -20.8421 N   0  0  0  0  0  0  0  0  0  0  0  0
    5.2789    1.3920  -18.3525 N   0  0  0  0  0  0  0  0  0  0  0  0
    4.2594    5.3986  -17.2833 N   0  0  0  0  0  0  0  0  0  0  0  0
    7.5450    1.6708  -18.4001 O   0  0  0  0  0  0  0  0  0  0  0  0
    3.7338    4.4264  -19.8210 O   0  0  0  0  0  0  0  0  0  0  0  0
    8.2873   -0.2467  -22.4896 F   0  0  0  0  0  0  0  0  0  0  0  0
    4.9625   -3.2143  -20.7485 F   0  0  0  0  0  0  0  0  0  0  0  0
    9.4251    6.7185  -18.5115 H   0  0  0  0  0  0  0  0  0  0  0  0
    7.8736    6.0076  -16.7119 H   0  0  0  0  0  0  0  0  0  0  0  0
    8.5740    7.9930  -20.4653 H   0  0  0  0  0  0  0  0  0  0  0  0
    4.6215    7.9684  -18.7585 H   0  0  0  0  0  0  0  0  0  0  0  0
    6.5844    1.6548  -21.8531 H   0  0  0  0  0  0  0  0  0  0  0  0
    3.6054   -1.0169  -20.2399 H   0  0  0  0  0  0  0  0  0  0  0  0
    7.2598   -2.6006  -21.8886 H   0  0  0  0  0  0  0  0  0  0  0  0
    5.6257    9.4254  -23.9528 H   0  0  0  0  0  0  0  0  0  0  0  0
    7.0380    7.6914  -22.4913 H   0  0  0  0  0  0  0  0  0  0  0  0
    4.7522   10.2570  -19.8513 H   0  0  0  0  0  0  0  0  0  0  0  0
    5.9991    8.6279  -13.4144 H   0  0  0  0  0  0  0  0  0  0  0  0
    4.6265    7.4697  -13.3792 H   0  0  0  0  0  0  0  0  0  0  0  0
    4.1280    9.3229  -14.9288 H   0  0  0  0  0  0  0  0  0  0  0  0
    5.6506    9.0103  -15.8291 H   0  0  0  0  0  0  0  0  0  0  0  0
    7.2759    7.1544  -14.8888 H   0  0  0  0  0  0  0  0  0  0  0  0
    6.7229    6.2151  -13.4610 H   0  0  0  0  0  0  0  0  0  0  0  0
    3.3148    7.0467  -15.5090 H   0  0  0  0  0  0  0  0  0  0  0  0
    3.6891    8.0031  -16.9827 H   0  0  0  0  0  0  0  0  0  0  0  0
    6.4602    4.9734  -15.6369 H   0  0  0  0  0  0  0  0  0  0  0  0
    4.9124    5.2050  -14.7552 H   0  0  0  0  0  0  0  0  0  0  0  0
    7.8535   -0.3213  -16.9258 H   0  0  0  0  0  0  0  0  0  0  0  0
    6.3357    0.0698  -16.0486 H   0  0  0  0  0  0  0  0  0  0  0  0
    6.2899   -1.0030  -17.4886 H   0  0  0  0  0  0  0  0  0  0  0  0
    4.0314    2.3315  -21.3832 H   0  0  0  0  0  0  0  0  0  0  0  0
    3.2141    1.2977  -20.1626 H   0  0  0  0  0  0  0  0  0  0  0  0
    5.2545    3.5620  -16.9660 H   0  0  0  0  0  0  0  0  0  0  0  0
    5.9285    4.5777  -18.2854 H   0  0  0  0  0  0  0  0  0  0  0  0
    5.8852    2.7804  -19.8303 H   0  0  0  0  0  0  0  0  0  0  0  0
    3.2533    3.0839  -18.2954 H   0  0  0  0  0  0  0  0  0  0  0  0
    4.5201    0.9199  -17.9038 H   0  0  0  0  0  0  0  0  0  0  0  0
    3.5618    5.0674  -16.6479 H   0  0  0  0  0  0  0  0  0  0  0  0
    3.8172    5.8541  -18.0560 H   0  0  0  0  0  0  0  0  0  0  0  0
    3.1886    3.9811  -20.4589 H   0  0  0  0  0  0  0  0  0  0  0  0
  1  2  2  0
  1  3  1  0
  2 11  1  0
  3 13  2  0
  4 11  2  0
  4 13  1  0
  5 12  2  0
  5 14  1  0
  6 12  1  0
  6 15  2  0
  7 14  2  0
  7 15  1  0
  8  9  2  0
  8 28  1  0
  9 29  1  0
 10 28  2  0
 10 29  1  0
 11 22  1  0
 12 24  1  0
 13 29  1  0
 14 34  1  0
 15 35  1  0
 16 23  1  0
 16 30  1  0
 16 32  2  0
 17 18  1  0
 17 19  1  0
 18 20  1  0
 19 21  1  0
 20 22  1  0
 21 22  1  0
 22 31  1  0
 24 26  1  0
 25 27  1  0
 25 31  1  0
 26 27  1  0
 26 30  1  0
 27 33  1  0
  1 36  1  0
  2 37  1  0
  3 38  1  0
  4 39  1  0
  5 40  1  0
  6 41  1  0
  7 42  1  0
  8 43  1  0
  9 44  1  0
 10 45  1  0
 17 46  1  0
 17 47  1  0
 18 48  1  0
 18 49  1  0
 19 50  1  0
 19 51  1  0
 20 52  1  0
 20 53  1  0
 21 54  1  0
 21 55  1  0
 23 56  1  0
 23 57  1  0
 23 58  1  0
 24 59  1  0
 24 60  1  0
 25 61  1  0
 25 62  1  0
 26 63  1  6
 27 64  1  1
 30 65  1  0
 31 66  1  0
 31 67  1  0
 33 68  1  0
M  CHG  1  31   1
M  END
>  <OMEGA_C>  (194) 
yQ4GQUhU30B3j5TBLwDwQIO80kCuWozBc8r8QB+39kB8XZ3BTTm1QHcL9kB4oZXBXxfIQDBAJz+0
+azB+QWSQOwFXL+5tKXBFUbUQJWt4L+BJ63B2KS0QDTWFUFm/7bB+dTLQGxjB0F/FrHBYUKlQEI2
HUFPA6bBegrEQIch3kAXwIzBMvGfQORi5j7WD6jBOjzRQMQtAUHg5p3BGkviQJMZ5b4Cd6/BQRus
QKz2+r8uS6jB0jrSQFl+iz9wfY/B5y6uQCkJ/EDV5l/BngGbQArGCEGR2nPBqMTMQPhq10D5BWbB
/tiDQLYi8EBb0YDB29S2QNzQtkCs/nTBAv+iQKl6zED8n4TBE9vYQDgIAb7kS4jBpQSGQO0B0j9W
VaTBKhygQHiYh0CgYI7BW5OeQKNcF0BXUJvBpTeEQH46YECCdZbBKcydQH4vI0HL7q/Bq2jBQAhR
DEGsvKbBsOyoQKUtsj/b0ZLBqkyIQPfArEBLRIrBZXDxQA7e1T9gM5PBJfduQAaljUBkkZ7BqpgE
QdCofL606rPBmsyeQLu2TcDl/KXBIM0WQRz+1kCEF5TBPvT7QP89wED6sYXBLy8JQcjG/0ACuaPB
LOOTQGz9/kBrEZbBgLPSQIfR0z8v067BIb5mQDMqgr8/66HBE1DoQK9wJsDCG6/B8AW0QFrOFkFm
n7/BnzfhQLUf9kA77rPBUhKYQNAcJEF7z57Bu/i/QAIMCkFloVbBogyUQOEH70AAEVbBPRiEQLEq
FUFG3G7BldG0QP4pEEHZQ33BONToQJjw5ECAOG7BJiLXQBXixkAyYFfB5SVUQKB+4UC5JHjB+Bls
QKQMAEGY3IfB0LnOQBEmn0CsMHrBfjKdQJ6PpkApFWzBLFD7QAN+pL74Z4fBqb3KQGLxjj16Y4DB
LUfJQLJigL+j6IvBQgGBQAk4FUDIEKvBI7NNQPQapj8STaHBNiWoQEP3Y0B1uofBoLa9QF98kkCC
SJLBYVO8QODyMUBspJ7BYDVQQCRfRUAPXZLB0aSQQBt9az/iOo/Bj/RjQFYookDxLoXBbkx0QPVU
u0CZcpDBGRJMQEPKfkDWq6PBb4gFQYOC30A7k5TBxeDuQAR400DNVIzBQ8r7QKIj9kB4gZ3B3xm0
QHTD9UAH0pXBMtLIQCeoHj9l1KzB80+QQFiyTb/IjqXBFTHRQIQa57+F36zBd3GbQDE2IEHrTbHB
IFOiQG02G0FKv6bB78HLQJMLBkGWfbHBuOXCQKTJ3kAcyozBfEygQMoK9j4U+KfB9CXQQGuuAEHj
KJ7BrEDhQFrYBb+3Qq/BVrCoQAj0+L+ECqjBPibTQCjhiz+gmY/Ba4+rQJ6D/UDBAWDBzU+YQFFO
CUHkDXTB3v/KQIOY2UCOBWbB/geCQGrc8EDv+4DBb5q1QLtpuEAK0nTBvsihQHFzzUA2noTBOhjZ
QLNDBb76cojBqM+HQPKc2j+qcqTBsRSgQGxiiECYLY7B/gygQDZPGkBPR5vBOyWFQAB4YkD2dpbB
Exa1QEy/EkFhrrfB4CrAQHooC0FOLqfBMPOpQBLitj+q0JLBV5uHQOkvrUDhKIrB76zyQKT60z8p
UpPBf/5xQKL9jkBqlZ7BQiYEQdK6xr6HyrPBwWSZQIgnS8C6rKXBfUkWQctT10BoCZTBY8z6QHhx
wUC6loXBX7oIQfjv/kAb3qPBlb2SQKqO/kA+VJbBNRPVQPcjzT/Irq7B87xiQNoYab9nzqHB7+7j
QAeoK8Bfv67BRviFQKprLEEuO7TBh7GTQElCIkHmwZ/BgaviQFA19ECR+rPBTqq8QFb3CkFgplbB
44iRQNvw70DdSlbBZtiAQBF6FUHEKG/BRAKyQAPyEEFCWH3Bt6/mQLui50CSUW7BI9jVQDyAyUCn
VlfBRSNQQEYI4kAArnjB7ippQFhJAEHqGojB/cvNQLngoEDM0HnBjAucQF4ZqEB24WvBsG77QF7M
sb4wmIfBCzfLQNPGkD34hYDBNunIQIbcfr/oEozB+ZCEQB2RGUA0PqvBhrJPQPlotD+ho6HBFoin
QJMcZUDTh4fBUQa+QAGRk0At3ZHBC/C9QEthNUBsd57BZ21RQJL7RkDCk5LBS3GRQL3jeT9VKY/B
MP5iQAtlokBfC4XBRFpyQGNJu0CPXpDBfDdQQOfTgEBb0aPB

>  <OMEGA_E>  (194) 
EKZyPgD+hz4=

>  <OMEGA_NBR>  (194) 
     14466

$$$$
50214055
     RDKit          3D

 67 70  0  0  1  0  0  0  0  0999 V2000
    8.3795    6.9657  -18.5625 C   0  0  0  0  0  0  0  0  0  0  0  0
    7.4880    6.5855  -17.5417 C   0  0  0  0  0  0  0  0  0  0  0  0
    7.9149    7.6900  -19.6734 C   0  0  0  0  0  0  0  0  0  0  0  0
    5.6708    7.6920  -18.7221 C   0  0  0  0  0  0  0  0  0  0  0  0
    4.5311   -0.7967  -20.6847 C   0  0  0  0  0  0  0  0  0  0  0  0
    6.2330    0.6746  -21.6382 C   0  0  0  0  0  0  0  0  0  0  0  0
    6.5784   -1.7394  -21.6186 C   0  0  0  0  0  0  0  0  0  0  0  0
    5.6709    9.1773  -22.8780 C   0  0  0  0  0  0  0  0  0  0  0  0
    4.8501   10.0319  -21.9908 C   0  0  0  0  0  0  0  0  0  0  0  0
    6.1178    6.9564  -17.6022 C   0  0  0  0  0  0  0  0  0  0  0  0
    4.9825    0.5001  -21.0081 C   0  0  0  0  0  0  0  0  0  0  0  0
    6.5567    8.0583  -19.7513 C   0  0  0  0  0  0  0  0  0  0  0  0
    5.3268   -1.9152  -20.9949 C   0  0  0  0  0  0  0  0  0  0  0  0
    7.0313   -0.4440  -21.9388 C   0  0  0  0  0  0  0  0  0  0  0  0
    6.5931    1.1312  -17.9747 C   0  0  0  0  0  0  0  0  0  0  0  0
    5.3983    7.9455  -14.0283 C   0  0  0  0  0  0  0  0  0  0  0  0
    4.8040    8.6034  -15.2855 C   0  0  0  0  0  0  0  0  0  0  0  0
    6.3603    6.8010  -14.3936 C   0  0  0  0  0  0  0  0  0  0  0  0
    4.0909    7.5498  -16.1419 C   0  0  0  0  0  0  0  0  0  0  0  0
    5.6754    5.7677  -15.3119 C   0  0  0  0  0  0  0  0  0  0  0  0
    5.0693    6.4284  -16.5907 C   0  0  0  0  0  0  0  0  0  0  0  0
    6.7998   -0.0849  -17.0759 C   0  0  0  0  0  0  0  0  0  0  0  0
    4.1964    1.7084  -20.5538 C   0  0  0  0  0  0  0  0  0  0  0  0
    4.9866    4.2719  -17.7858 C   0  0  0  0  0  0  0  0  0  0  0  0
    4.9697    2.4256  -19.4268 C   0  0  1  0  0  0  0  0  0  0  0  0
    4.1399    3.5606  -18.8268 C   0  0  2  0  0  0  0  0  0  0  0  0
    6.4191    8.4095  -22.1244 N   0  0  0  0  0  0  0  0  0  0  0  0
    5.1317    9.7147  -20.7522 N   0  0  0  0  0  0  0  0  0  0  0  0
    6.0651    8.7384  -20.8606 N   0  0  0  0  0  0  0  0  0  0  0  0
    5.2982    1.4537  -18.3643 N   0  0  0  0  0  0  0  0  0  0  0  0
    4.2388    5.4345  -17.2894 N   0  0  0  0  0  0  0  0  0  0  0  0
    7.5680    1.6942  -18.4612 O   0  0  0  0  0  0  0  0  0  0  0  0
    3.7788    4.4954  -19.8441 O   0  0  0  0  0  0  0  0  0  0  0  0
    4.8964   -3.1571  -20.6791 F   0  0  0  0  0  0  0  0  0  0  0  0
    8.2402   -0.2726  -22.5189 F   0  0  0  0  0  0  0  0  0  0  0  0
    9.4239    6.6998  -18.4918 H   0  0  0  0  0  0  0  0  0  0  0  0
    7.8490    6.0065  -16.7046 H   0  0  0  0  0  0  0  0  0  0  0  0
    8.5966    7.9638  -20.4651 H   0  0  0  0  0  0  0  0  0  0  0  0
    4.6315    7.9779  -18.7893 H   0  0  0  0  0  0  0  0  0  0  0  0
    3.5757   -0.9310  -20.1994 H   0  0  0  0  0  0  0  0  0  0  0  0
    6.5772    1.6669  -21.8897 H   0  0  0  0  0  0  0  0  0  0  0  0
    7.1908   -2.5980  -21.8512 H   0  0  0  0  0  0  0  0  0  0  0  0
    5.6558    9.1852  -23.9578 H   0  0  0  0  0  0  0  0  0  0  0  0
    4.1436   10.7842  -22.3090 H   0  0  0  0  0  0  0  0  0  0  0  0
    5.9480    8.7050  -13.4530 H   0  0  0  0  0  0  0  0  0  0  0  0
    4.5794    7.5423  -13.4145 H   0  0  0  0  0  0  0  0  0  0  0  0
    4.0826    9.3775  -14.9850 H   0  0  0  0  0  0  0  0  0  0  0  0
    5.6125    9.0635  -15.8725 H   0  0  0  0  0  0  0  0  0  0  0  0
    7.2345    7.2195  -14.9139 H   0  0  0  0  0  0  0  0  0  0  0  0
    6.6880    6.2996  -13.4711 H   0  0  0  0  0  0  0  0  0  0  0  0
    3.2773    7.1008  -15.5533 H   0  0  0  0  0  0  0  0  0  0  0  0
    3.6719    8.0377  -17.0343 H   0  0  0  0  0  0  0  0  0  0  0  0
    6.4193    5.0178  -15.6187 H   0  0  0  0  0  0  0  0  0  0  0  0
    4.8678    5.2748  -14.7507 H   0  0  0  0  0  0  0  0  0  0  0  0
    7.8754   -0.2974  -16.9871 H   0  0  0  0  0  0  0  0  0  0  0  0
    6.3834    0.1213  -16.0788 H   0  0  0  0  0  0  0  0  0  0  0  0
    6.2891   -0.9553  -17.5137 H   0  0  0  0  0  0  0  0  0  0  0  0
    4.0585    2.3967  -21.4006 H   0  0  0  0  0  0  0  0  0  0  0  0
    3.2135    1.3874  -20.1784 H   0  0  0  0  0  0  0  0  0  0  0  0
    5.2027    3.5869  -16.9527 H   0  0  0  0  0  0  0  0  0  0  0  0
    5.9309    4.6053  -18.2408 H   0  0  0  0  0  0  0  0  0  0  0  0
    5.8972    2.8438  -19.8449 H   0  0  0  0  0  0  0  0  0  0  0  0
    3.2435    3.1417  -18.3463 H   0  0  0  0  0  0  0  0  0  0  0  0
    4.5411    0.9987  -17.8954 H   0  0  0  0  0  0  0  0  0  0  0  0
    3.5374    5.1095  -16.6551 H   0  0  0  0  0  0  0  0  0  0  0  0
    3.8013    5.8829  -18.0689 H   0  0  0  0  0  0  0  0  0  0  0  0
    3.2484    4.0601  -20.5010 H   0  0  0  0  0  0  0  0  0  0  0  0
  1  2  2  0
  1  3  1  0
  2 10  1  0
  3 12  2  0
  4 10  2  0
  4 12  1  0
  5 11  2  0
  5 13  1  0
  6 11  1  0
  6 14  2  0
  7 13  2  0
  7 14  1  0
  8  9  1  0
  8 27  2  0
  9 28  2  0
 10 21  1  0
 11 23  1  0
 12 29  1  0
 13 34  1  0
 14 35  1  0
 15 22  1  0
 15 30  1  0
 15 32  2  0
 16 17  1  0
 16 18  1  0
 17 19  1  0
 18 20  1  0
 19 21  1  0
 20 21  1  0
 21 31  1  0
 23 25  1  0
 24 26  1  0
 24 31  1  0
 25 26  1  0
 25 30  1  0
 26 33  1  0
 27 29  1  0
 28 29  1  0
  1 36  1  0
  2 37  1  0
  3 38  1  0
  4 39  1  0
  5 40  1  0
  6 41  1  0
  7 42  1  0
  8 43  1  0
  9 44  1  0
 16 45  1  0
 16 46  1  0
 17 47  1  0
 17 48  1  0
 18 49  1  0
 18 50  1  0
 19 51  1  0
 19 52  1  0
 20 53  1  0
 20 54  1  0
 22 55  1  0
 22 56  1  0
 22 57  1  0
 23 58  1  0
 23 59  1  0
 24 60  1  0
 24 61  1  0
 25 62  1  6
 26 63  1  1
 30 64  1  0
 31 65  1  0
 31 66  1  0
 33 67  1  0
M  CHG  1  31   1
M  END
>  <OMEGA_C>  (195) 
bxIGQfvm3kAagJTBCJ7vQMu80kBzVYzBEUf9QNsU9kAPY53BGHe1QMok9kDnxpXBq/6QQHHzS78y
eqXBA3XHQEixLD8eG63BRoLSQKak3r/U8qzBQHi1QDrWEkEPBrfB9DObQH+CIEET7a/BNsXDQNCa
3kA10YzBvnCfQLgJAD+MEKjBYdDRQKjuAEGsAp7BNXWqQCAm9b+e9afBmwDhQHJR476+gq/BFPvS
QALKkD8yzI/Bt76sQLxB/kD3c2DBhbqZQFqnCUFGkXTBu4fLQCui2UBhTGbBB+mCQAOY8UCjIoHB
vpy1QGaRuEBm/XTByjeiQK21zUDAuYTBnJfZQOjprb1mm4jBzkiGQISr2j8vbqTB4ZGfQLqziEBN
SY7BYAefQL09G0AXapvBMHqEQPDgY0BCnZbBnGnNQFyNBkHJ/rDBCDekQIFvG0GVBKbB9RTCQFPQ
C0GH4qbB5oqpQOgRuj8Z6pLBN6SHQI/nrUCwUIrBdy3yQNjc2D+dsJPBcthxQKjaj0CewJ7Bmq+c
QFkOSsC6bqXBAtgDQSiPi761JrTBJMgWQbtk1kAz75PBMSv7QBQ1wEAGo4XBposJQYjX/kBzuKPB
JDWUQPxK/0BnUJbBeddkQJBVbr9UmKHBmnjSQKZc1T80Hq/B+xrmQGpGJsAvz67BTfy0QKz2EkGf
qb/BUpiEQPWLLEHgeLLBBVa+QNBHC0GXP1fBI4qSQEpa8UDOoVbBAaWCQGEKFkGnwm/BkJmzQDYE
EUHD9X3BEYHnQEUG50Bpn27BfgTWQECWyUCIiVfBFsBRQHo540B22njBo/9qQDyaAEFCRojBEmvN
QAaSoEBd5nnBa8WbQI/LqEDBAmzBHwP8QFVHmL6l5YfBqUTMQGBW+D1toYDBMUDJQNGNdL8FHIzB
dN+BQCZkGUCBNKvB/alNQJiVsT9sbaHBjnymQFyQZUAen4fBBcq9QL9ek0A37ZHByrW8QH0ANkBq
wp7B4JRPQOURSUAlxZLB3VCRQLKrfz/bKY/B8mRiQKyAo0CMPYXBUUhzQFBAvEAOjZDB2+VPQCPs
gUATAqTBKDQGQXD03kA7g5TBiNPvQLze0kA3WozB/5b9QHgE9kCKa53BILu1QGhD9kA005XB+rHH
QJZLNz+wXa3BMYqSQA3ISb/hkqXB/gvUQB+T2L8mWa3BpUy1QApoEkGcF7fBRPWbQFiNIEEBBLDB
bPvDQLTD3kDD2YzBrAqgQOZmBD9CNKjBKyfSQI3tAEGrDp7BZbvhQOBdxr7x46/BhXGsQE4i8r89
MqjBkvnSQIn9jj+B14/BrTGtQLBN/kA8aWDBxxyaQJi+CUFNeXTBhfbLQADG2UBUYWbB8zyDQGDq
8UDCIIHBa9+1QKzFuECzDXXBI2uiQDr0zUBiv4TBFcnZQDyR1L1Ht4jBXmaGQNzT2j8PdKTBsISf
QFreiEBqT47Bx9meQETfGkCzWZvB9BSEQCXwYkC0d5bBljTNQCQiBkHEDLHB5VKlQOyzG0FrGabB
Ko7CQPnIC0GW8qbBYH2pQFATuD/K7pLBIrOHQEwtrkB3VIrBBRfyQMqZ2T+clZPBhuJuQAT/jkAo
l57B4BkEQQw1Rb5plbTBXYmfQIIUScBZpaXBAOoWQUZ51kDL7JPB0VT7QDlfwEAYpYXBLbYJQfil
/kCswqPBLn6UQN54/0C/X5bB4g3SQG+K2z/aYK/BeLFoQH/KcL/sjKHBwuvnQJWFIsBuWa/B0EO0
QGM7EkFYur/BF62FQHq5LEGPlLLBWs2+QBpFC0GEK1fBYgiTQBFM8UAwmFbBuAqDQGIcFkErmW/B
8vWzQLwlEUHA2X3BeNPnQJA850CmxG7BTaPWQIOpyUCfq1fBeUVSQLyQ40DI4HjBeNFrQA7WAEG3
QYjBH5fNQIq2oEC7/nnBgwmcQNwQqUCWCmzBhUP8QN7Vmb4Y5ofBgenLQOm5sT3zxYDBJxTKQGVX
er+aVozBvcSBQCUZGkB4J6vBNBtOQK2hrz9Vf6HBJwCnQESbZkCCnIfBZG69QFiJk0D7GpLBMH+8
QGY+NkAco57B8NlPQHxtR0CUdZLB6lKRQNyTeT/OOI/B1YNiQC7Yo0DpPoXBJmdzQEGNvEDej5DB
34JMQBWvgEDlvKPB

>  <OMEGA_E>  (195) 
YGwEPqBcBT4=

>  <OMEGA_NBR>  (195) 
     16932

$$$$
50214064
     RDKit          3D

 66 70  0  0  1  0  0  0  0  0999 V2000
    8.3361    6.8639  -18.3274 C   0  0  0  0  0  0  0  0  0  0  0  0
    7.4424    6.4813  -17.3085 C   0  0  0  0  0  0  0  0  0  0  0  0
    7.8731    7.6116  -19.4306 C   0  0  0  0  0  0  0  0  0  0  0  0
    5.6317    7.6050  -18.4855 C   0  0  0  0  0  0  0  0  0  0  0  0
    6.3575    0.6944  -21.6607 C   0  0  0  0  0  0  0  0  0  0  0  0
    4.6014   -0.7757  -20.8126 C   0  0  0  0  0  0  0  0  0  0  0  0
    6.6613   -1.7276  -21.7140 C   0  0  0  0  0  0  0  0  0  0  0  0
    6.0881    6.8631  -17.3956 C   0  0  0  0  0  0  0  0  0  0  0  0
    5.0827    0.5276  -21.0749 C   0  0  0  0  0  0  0  0  0  0  0  0
    6.5068    7.9748  -19.5174 C   0  0  0  0  0  0  0  0  0  0  0  0
    7.1464   -0.4310  -21.9741 C   0  0  0  0  0  0  0  0  0  0  0  0
    5.3873   -1.9004  -21.1387 C   0  0  0  0  0  0  0  0  0  0  0  0
    6.5458    1.0149  -18.0523 C   0  0  0  0  0  0  0  0  0  0  0  0
    4.4097    7.3678  -15.4994 C   0  0  0  0  0  0  0  0  0  0  0  0
    5.3471    6.2704  -14.9441 C   0  0  0  0  0  0  0  0  0  0  0  0
    5.6979    8.3681  -22.8908 C   0  0  0  0  0  0  0  0  0  0  0  0
    4.5188    8.8202  -20.8907 C   0  0  0  0  0  0  0  0  0  0  0  0
    6.4363   10.4750  -22.1702 C   0  0  0  0  0  0  0  0  0  0  0  0
    6.6530    8.9752  -21.8982 C   0  0  1  0  0  0  0  0  0  0  0  0
    4.5291    9.1880  -22.3804 C   0  0  1  0  0  0  0  0  0  0  0  0
    5.0522    6.3519  -16.4414 C   0  0  0  0  0  0  0  0  0  0  0  0
    6.6886   -0.2189  -17.1660 C   0  0  0  0  0  0  0  0  0  0  0  0
    4.2834    1.7464  -20.6254 C   0  0  0  0  0  0  0  0  0  0  0  0
    4.8970    4.1971  -17.6385 C   0  0  0  0  0  0  0  0  0  0  0  0
    4.9868    2.4479  -19.4340 C   0  0  1  0  0  0  0  0  0  0  0  0
    4.1288    3.5748  -18.8161 C   0  0  2  0  0  0  0  0  0  0  0  0
    5.9841    8.6823  -20.5999 N   0  0  0  0  0  0  0  0  0  0  0  0
    5.2679    1.4422  -18.3931 N   0  0  0  0  0  0  0  0  0  0  0  0
    4.1627    5.3528  -17.0729 N   0  0  0  0  0  0  0  0  0  0  0  0
    7.5443    1.5037  -18.5703 O   0  0  0  0  0  0  0  0  0  0  0  0
    5.0104   10.5553  -22.4885 O   0  0  0  0  0  0  0  0  0  0  0  0
    3.8753    4.5850  -19.7937 O   0  0  0  0  0  0  0  0  0  0  0  0
    8.3753   -0.2670  -22.5141 F   0  0  0  0  0  0  0  0  0  0  0  0
    4.9249   -3.1469  -20.8894 F   0  0  0  0  0  0  0  0  0  0  0  0
    9.3775    6.5845  -18.2643 H   0  0  0  0  0  0  0  0  0  0  0  0
    7.7915    5.9005  -16.4676 H   0  0  0  0  0  0  0  0  0  0  0  0
    8.5607    7.9072  -20.2092 H   0  0  0  0  0  0  0  0  0  0  0  0
    4.5933    7.8977  -18.5352 H   0  0  0  0  0  0  0  0  0  0  0  0
    6.7286    1.6870  -21.8690 H   0  0  0  0  0  0  0  0  0  0  0  0
    3.6294   -0.9102  -20.3614 H   0  0  0  0  0  0  0  0  0  0  0  0
    7.2662   -2.5891  -21.9557 H   0  0  0  0  0  0  0  0  0  0  0  0
    3.3295    7.3244  -15.2961 H   0  0  0  0  0  0  0  0  0  0  0  0
    4.7382    8.4175  -15.5141 H   0  0  0  0  0  0  0  0  0  0  0  0
    6.3438    6.5378  -14.5633 H   0  0  0  0  0  0  0  0  0  0  0  0
    4.9351    5.4447  -14.3453 H   0  0  0  0  0  0  0  0  0  0  0  0
    5.9592    8.5824  -23.9376 H   0  0  0  0  0  0  0  0  0  0  0  0
    5.5621    7.2842  -22.7613 H   0  0  0  0  0  0  0  0  0  0  0  0
    4.0631    9.6168  -20.2843 H   0  0  0  0  0  0  0  0  0  0  0  0
    3.9847    7.8747  -20.7150 H   0  0  0  0  0  0  0  0  0  0  0  0
    6.6762   11.0758  -21.2806 H   0  0  0  0  0  0  0  0  0  0  0  0
    7.0493   10.8145  -23.0181 H   0  0  0  0  0  0  0  0  0  0  0  0
    7.6967    8.6381  -21.9824 H   0  0  0  0  0  0  0  0  0  0  0  0
    3.5784    8.9838  -22.8946 H   0  0  0  0  0  0  0  0  0  0  0  0
    7.7470   -0.5143  -17.1157 H   0  0  0  0  0  0  0  0  0  0  0  0
    6.3241    0.0125  -16.1543 H   0  0  0  0  0  0  0  0  0  0  0  0
    6.0973   -1.0444  -17.5889 H   0  0  0  0  0  0  0  0  0  0  0  0
    4.1995    2.4537  -21.4637 H   0  0  0  0  0  0  0  0  0  0  0  0
    3.2782    1.4256  -20.3144 H   0  0  0  0  0  0  0  0  0  0  0  0
    5.0294    3.4371  -16.8543 H   0  0  0  0  0  0  0  0  0  0  0  0
    5.8825    4.5355  -17.9912 H   0  0  0  0  0  0  0  0  0  0  0  0
    5.9322    2.8819  -19.7918 H   0  0  0  0  0  0  0  0  0  0  0  0
    3.1856    3.1465  -18.4461 H   0  0  0  0  0  0  0  0  0  0  0  0
    4.4927    1.0437  -17.9030 H   0  0  0  0  0  0  0  0  0  0  0  0
    3.5217    5.0161  -16.3832 H   0  0  0  0  0  0  0  0  0  0  0  0
    3.6552    5.7991  -17.8100 H   0  0  0  0  0  0  0  0  0  0  0  0
    3.4006    4.2070  -20.5246 H   0  0  0  0  0  0  0  0  0  0  0  0
  1  2  2  0
  1  3  1  0
  2  8  1  0
  3 10  2  0
  4  8  2  0
  4 10  1  0
  5  9  2  0
  5 11  1  0
  6  9  1  0
  6 12  2  0
  7 11  2  0
  7 12  1  0
  8 21  1  0
  9 23  1  0
 10 27  1  0
 11 33  1  0
 12 34  1  0
 13 22  1  0
 13 28  1  0
 13 30  2  0
 14 15  1  0
 14 21  1  0
 15 21  1  0
 16 19  1  0
 16 20  1  0
 17 20  1  0
 17 27  1  0
 18 19  1  0
 18 31  1  0
 19 27  1  0
 20 31  1  0
 21 29  1  0
 23 25  1  0
 24 26  1  0
 24 29  1  0
 25 26  1  0
 25 28  1  0
 26 32  1  0
  1 35  1  0
  2 36  1  0
  3 37  1  0
  4 38  1  0
  5 39  1  0
  6 40  1  0
  7 41  1  0
 14 42  1  0
 14 43  1  0
 15 44  1  0
 15 45  1  0
 16 46  1  0
 16 47  1  0
 17 48  1  0
 17 49  1  0
 18 50  1  0
 18 51  1  0
 19 52  1  1
 20 53  1  6
 22 54  1  0
 22 55  1  0
 22 56  1  0
 23 57  1  0
 23 58  1  0
 24 59  1  0
 24 60  1  0
 25 61  1  6
 26 62  1  1
 28 63  1  0
 29 64  1  0
 29 65  1  0
 32 66  1  0
M  CHG  1  29   1
M  END
>  <OMEGA_C>  (196) 
xmAFQRil20CZnpLBJyjuQMdmz0C+d4rBG/D7QHWS80DRcZvBDze0QP9b80Bm4pPBd3DLQP/FMT8l
Sa3BYT6TQMeRRr85gKbBninVQLoh3b9Utq3BtdHCQCme20BKKovBdKWiQFwRBz9omajBGDjQQOkx
/0CyI5zBb6/kQDym3L72yq/BrmSsQOJB87/9G6nBhnfRQMrmgT8ma5DBMByNQK7E60CT/XfBbxur
QCGnyEAcG2/B2VS2QJnjBUFWILfBEZqQQFkfDUESIKfBg/bNQHWZJ0GjXLHBdeXUQEeaD0GHL6/B
fe6QQCMCE0EHC7PBhKuhQIdCy0Dyh4PBDAnWQIshYL4FVInBPhGJQLaK3z/lAKXBf7ScQK1OhkCP
G43BJZSfQBaqHEDjeJvBOh+EQOLIZEBlh5bBmn2/QOXqCkGOzKTB1pKoQN6ZuD8dJZPB8zSFQNVJ
q0BhlYjBS2vxQGZ5wD/xj5TBMlWgQFviKEF46LPBzgR4QLC4kkCJWZ7BVgEGQd2xiL7LHLTBuZid
QJBmScCIHafBCgoWQWK00kBIHZLBJlT5QI/QvECLvYPBjvgIQb8H/UBirKHBkfySQNq5/EAoSJTB
olDXQO3w1z/F867B/0doQOADab8x5KLBcYToQFyzJcBapa/BwxZVQI9h6kDGvHTBU5+XQOitBkGp
OXjBoQDLQKE10UA4A2nBr+ydQGA7rkBVhmXB57G+QKFRCUEigL/BhPyxQAIY6UA7F7bB6ASCQGze
GUE7RqLB4wV/QGD9+0BhuKXBiqPVQEc2MUGWPqrBL5ThQDIILUEoJbjBfEv2QMA1CkHk26/BwQRl
QJ69D0E8KLfBS+f3QL+rA7/m7IjBCl/KQAEjTDz5O4HBMR3DQH2vhb8ntozBa2KGQAMJHUDAtavB
1s1RQBp6tj/8g6LB+vCgQPn5W0CW1YbBEj28QN4ikUD67Y/BRNS9QGpwOECnVZ7B++BLQO9fSUCG
kZPBQ8SPQMWXhT9POY/BfWNhQIqDoEDQEIPBGu9pQCGSuUDceo7B5aJZQAeghkB1MqTBX/gEQSSi
4kBjk5HBhWbsQK3p1ECSz4nBo6b7QMmC+UDDmJrB8RCyQFwJ80D6XZTBYPLGQGRPNT+8/63BSBOU
QJICUL/lgqXBY4/TQA+l2b9KZq7BQHbAQBOe3UD6MovBa6WgQKpTAD9CPqjBN5HPQHjOAEFv+ZvB
5VzgQEctyL4XDrHB/l2tQOOp9L/fp6jBd1jWQOspkz8c35DBpa2KQKtO60D0oXfBcYGpQJJYyEDc
YW/BlaqOQKQ3G0FnCLDBrmbWQIz+HkGRzanBu/20QI84+kAdILbBWH+eQBLnBUEXD6zBcKO6QBbD
IUFX77PBJ5WfQP8mzEB4pYPBSbreQIjiIr0JhonBzb2GQGO02D9kWKTB5FmdQEHTh0DVb43BTkOf
QFXGHECzcJvBwXqDQL/KYkD9OJbBooPAQC+qDEHfhKTBMC2sQKUjvj8DIpPBdWKEQMZ5q0B1wYjB
/lz0QB8b1z8PjpXBL5rFQBl5EEG1PrvB0l5uQEIpkEAgFp7B5H8CQXG7Qr4PlLbBWv2gQDXbSsBc
LKbBTsgVQa2f20BknpDBC0/3QP/Kw0CA0YLBCzIJQeZrAkEmdKDBaT+QQONM+EDikJXBGMjQQIH/
2j8rELDBjRZuQPOQeb/WAaHBUwbnQHi0IsBmxLDB+WpQQHYG6UCyQHTBSoKUQEqNBkG/aXfBN1PJ
QOMy0UCqS2nBagadQMQerUCeImbBPKttQLHpGUHoebbBdhuCQLKSJUHFpanBw733QDcWG0ES16vB
EbTVQJ5pLUFmwqTBdR3PQDxG5EAf9rPBiyqeQLqV6UCTYLvBuMOFQEyk9kDMtajBpga8QB3wMUGg
YrfB1pMAQSKtib4leYnBDzjUQAPsUj61W4HB29fMQKsQar9fcIzBO+qAQCwRGEBuFqvBLu1PQLhX
qz/zJqHBLCSlQBwyYUA1HofBTR67QDeIlEB15ZDBb9K7QODIOkDf9Z7BuSVOQIPPREA9n5LB1h2V
QI28hT+/2Y7Bqu5gQMiJn0BdQIPBYttmQJtouUDvk47B00ROQCVzgkAmjqPB

>  <OMEGA_E>  (196) 
qMgBP+ogCD8=

>  <OMEGA_NBR>  (196) 
     19376

$$$$
50214041
     RDKit          3D

 77 80  0  0  1  0  0  0  0  0999 V2000
    8.4420    6.8645  -18.3230 C   0  0  0  0  0  0  0  0  0  0  0  0
    7.4996    6.4782  -17.3546 C   0  0  0  0  0  0  0  0  0  0  0  0
    8.0342    7.5958  -19.4488 C   0  0  0  0  0  0  0  0  0  0  0  0
    5.7349    7.5188  -18.6572 C   0  0  0  0  0  0  0  0  0  0  0  0
    6.2133    0.6401  -21.6949 C   0  0  0  0  0  0  0  0  0  0  0  0
    4.5005   -0.7863  -20.6937 C   0  0  0  0  0  0  0  0  0  0  0  0
    6.5051   -1.7818  -21.6636 C   0  0  0  0  0  0  0  0  0  0  0  0
    6.1342    6.8411  -17.4941 C   0  0  0  0  0  0  0  0  0  0  0  0
    4.9715    0.4978  -21.0397 C   0  0  0  0  0  0  0  0  0  0  0  0
    6.6698    7.9157  -19.6274 C   0  0  0  0  0  0  0  0  0  0  0  0
    6.9784   -0.4994  -22.0066 C   0  0  0  0  0  0  0  0  0  0  0  0
    5.2665   -1.9244  -21.0067 C   0  0  0  0  0  0  0  0  0  0  0  0
    6.6349    1.1471  -18.0051 C   0  0  0  0  0  0  0  0  0  0  0  0
    5.3371    8.0402  -14.0489 C   0  0  0  0  0  0  0  0  0  0  0  0
    4.7760    8.6280  -15.3549 C   0  0  0  0  0  0  0  0  0  0  0  0
    6.2723    6.8460  -14.3162 C   0  0  0  0  0  0  0  0  0  0  0  0
    4.0631    7.5319  -16.1585 C   0  0  0  0  0  0  0  0  0  0  0  0
    5.5839    5.7716  -15.1913 C   0  0  0  0  0  0  0  0  0  0  0  0
    4.9069   10.5380  -21.7052 C   0  0  0  0  0  0  0  0  0  0  0  0
    4.9575    9.3751  -20.7092 C   0  0  0  0  0  0  0  0  0  0  0  0
    6.9036    8.2686  -22.0712 C   0  0  0  0  0  0  0  0  0  0  0  0
    4.5008   10.0642  -23.1084 C   0  0  0  0  0  0  0  0  0  0  0  0
    5.9166    8.0881  -23.2257 C   0  0  0  0  0  0  0  0  0  0  0  0
    5.0357    6.3705  -16.5186 C   0  0  0  0  0  0  0  0  0  0  0  0
    6.8698   -0.0911  -17.1443 C   0  0  0  0  0  0  0  0  0  0  0  0
    4.2139    1.7248  -20.5842 C   0  0  0  0  0  0  0  0  0  0  0  0
    4.9832    4.2238  -17.7463 C   0  0  0  0  0  0  0  0  0  0  0  0
    4.9912    2.4252  -19.4485 C   0  0  1  0  0  0  0  0  0  0  0  0
    4.1517    3.5394  -18.8198 C   0  0  2  0  0  0  0  0  0  0  0  0
    6.2266    8.5751  -20.7763 N   0  0  0  0  0  0  0  0  0  0  0  0
    5.3362    1.4358  -18.4079 N   0  0  0  0  0  0  0  0  0  0  0  0
    4.2173    5.3617  -17.2149 N   0  0  0  0  0  0  0  0  0  0  0  0
    7.5971    1.7607  -18.4545 O   0  0  0  0  0  0  0  0  0  0  0  0
    5.5660    9.3679  -23.7808 O   0  0  0  0  0  0  0  0  0  0  0  0
    3.7923    4.5002  -19.8141 O   0  0  0  0  0  0  0  0  0  0  0  0
    8.1766   -0.3613  -22.6173 F   0  0  0  0  0  0  0  0  0  0  0  0
    4.8216   -3.1527  -20.6592 F   0  0  0  0  0  0  0  0  0  0  0  0
    9.4814    6.5981  -18.2004 H   0  0  0  0  0  0  0  0  0  0  0  0
    7.8164    5.9013  -16.4983 H   0  0  0  0  0  0  0  0  0  0  0  0
    8.7635    7.9142  -20.1790 H   0  0  0  0  0  0  0  0  0  0  0  0
    4.6885    7.7392  -18.8088 H   0  0  0  0  0  0  0  0  0  0  0  0
    6.5763    1.6229  -21.9570 H   0  0  0  0  0  0  0  0  0  0  0  0
    3.5521   -0.8958  -20.1888 H   0  0  0  0  0  0  0  0  0  0  0  0
    7.0921   -2.6559  -21.9042 H   0  0  0  0  0  0  0  0  0  0  0  0
    5.9005    8.8224  -13.5192 H   0  0  0  0  0  0  0  0  0  0  0  0
    4.4992    7.7029  -13.4210 H   0  0  0  0  0  0  0  0  0  0  0  0
    4.0606    9.4288  -15.1165 H   0  0  0  0  0  0  0  0  0  0  0  0
    5.6017    9.0401  -15.9535 H   0  0  0  0  0  0  0  0  0  0  0  0
    7.1729    7.2064  -14.8350 H   0  0  0  0  0  0  0  0  0  0  0  0
    6.5590    6.3943  -13.3551 H   0  0  0  0  0  0  0  0  0  0  0  0
    3.2327    7.1309  -15.5589 H   0  0  0  0  0  0  0  0  0  0  0  0
    3.6673    7.9687  -17.0872 H   0  0  0  0  0  0  0  0  0  0  0  0
    6.3152    4.9856  -15.4308 H   0  0  0  0  0  0  0  0  0  0  0  0
    4.7477    5.3345  -14.6259 H   0  0  0  0  0  0  0  0  0  0  0  0
    4.1737   11.2783  -21.3524 H   0  0  0  0  0  0  0  0  0  0  0  0
    5.9016   11.0044  -21.7600 H   0  0  0  0  0  0  0  0  0  0  0  0
    4.8587    9.7843  -19.6929 H   0  0  0  0  0  0  0  0  0  0  0  0
    4.1122    8.7028  -20.9175 H   0  0  0  0  0  0  0  0  0  0  0  0
    7.4822    7.3403  -21.9546 H   0  0  0  0  0  0  0  0  0  0  0  0
    7.5847    9.0967  -22.3169 H   0  0  0  0  0  0  0  0  0  0  0  0
    3.6383    9.3875  -23.0172 H   0  0  0  0  0  0  0  0  0  0  0  0
    4.2170   10.9409  -23.7091 H   0  0  0  0  0  0  0  0  0  0  0  0
    6.3799    7.4673  -24.0068 H   0  0  0  0  0  0  0  0  0  0  0  0
    5.0083    7.5917  -22.8535 H   0  0  0  0  0  0  0  0  0  0  0  0
    7.9507   -0.2684  -17.0432 H   0  0  0  0  0  0  0  0  0  0  0  0
    6.4294    0.0657  -16.1486 H   0  0  0  0  0  0  0  0  0  0  0  0
    6.3983   -0.9634  -17.6205 H   0  0  0  0  0  0  0  0  0  0  0  0
    4.0989    2.4184  -21.4302 H   0  0  0  0  0  0  0  0  0  0  0  0
    3.2209    1.4260  -20.2173 H   0  0  0  0  0  0  0  0  0  0  0  0
    5.2006    3.5125  -16.9359 H   0  0  0  0  0  0  0  0  0  0  0  0
    5.9273    4.5834  -18.1816 H   0  0  0  0  0  0  0  0  0  0  0  0
    5.9110    2.8616  -19.8648 H   0  0  0  0  0  0  0  0  0  0  0  0
    3.2532    3.1011  -18.3608 H   0  0  0  0  0  0  0  0  0  0  0  0
    4.5879    0.9420  -17.9649 H   0  0  0  0  0  0  0  0  0  0  0  0
    3.5391    5.0091  -16.5701 H   0  0  0  0  0  0  0  0  0  0  0  0
    3.7508    5.8091  -17.9779 H   0  0  0  0  0  0  0  0  0  0  0  0
    3.2722    4.0792  -20.4885 H   0  0  0  0  0  0  0  0  0  0  0  0
  1  2  2  0
  1  3  1  0
  2  8  1  0
  3 10  2  0
  4  8  2  0
  4 10  1  0
  5  9  2  0
  5 11  1  0
  6  9  1  0
  6 12  2  0
  7 11  2  0
  7 12  1  0
  8 24  1  0
  9 26  1  0
 10 30  1  0
 11 36  1  0
 12 37  1  0
 13 25  1  0
 13 31  1  0
 13 33  2  0
 14 15  1  0
 14 16  1  0
 15 17  1  0
 16 18  1  0
 17 24  1  0
 18 24  1  0
 19 20  1  0
 19 22  1  0
 20 30  1  0
 21 23  1  0
 21 30  1  0
 22 34  1  0
 23 34  1  0
 24 32  1  0
 26 28  1  0
 27 29  1  0
 27 32  1  0
 28 29  1  0
 28 31  1  0
 29 35  1  0
  1 38  1  0
  2 39  1  0
  3 40  1  0
  4 41  1  0
  5 42  1  0
  6 43  1  0
  7 44  1  0
 14 45  1  0
 14 46  1  0
 15 47  1  0
 15 48  1  0
 16 49  1  0
 16 50  1  0
 17 51  1  0
 17 52  1  0
 18 53  1  0
 18 54  1  0
 19 55  1  0
 19 56  1  0
 20 57  1  0
 20 58  1  0
 21 59  1  0
 21 60  1  0
 22 61  1  0
 22 62  1  0
 23 63  1  0
 23 64  1  0
 25 65  1  0
 25 66  1  0
 25 67  1  0
 26 68  1  0
 26 69  1  0
 27 70  1  0
 27 71  1  0
 28 72  1  6
 29 73  1  1
 31 74  1  0
 32 75  1  0
 32 76  1  0
 35 77  1  0
M  CHG  1  32   1
M  END
>  <OMEGA_C>  (197) 
eBIHQeyp20BylZLBE/3vQIpNz0A81orBPYwAQcAQ80Aml5vB64O3QFua8EAIQpXBA9PGQPzcIz8f
j63BLgSQQPZMSb/LjKXB4ynQQIMS5L/1Tq3BKUvEQHrq2kAC9IvBfRafQEfl/j5QUajByW7VQL5N
/UDzBJ3BK0/fQOq1/76GDbDBdoeoQNZS9r+1DajBVFHUQDzUkj+ACpDBXcmqQHukAEFJyGDBA9WY
QB8MCkHVrXXBCbfIQFoS20AwD2XBMgWCQGMF8UCNRIHBaq+yQCOxuEB6D3PBNQWdQJWbKEEvpK3B
JKSeQI0AFkFcrKXBcurcQP1LBEHrkbDBTgaQQBAHIUH63bjBH1W9QLZoAUE0zrnBISShQCbby0AO
JoTBg9XbQNKnur2PJ4nBhtiGQKXG3D9lrKTBuHafQKsph0Bl+I3BibefQNU2G0BvlpvButqEQBCF
YkDjjpbBo0DHQMAzCUHnNabB7cGqQC3Htz9vQ5PB8POGQPqSq0AXuInBUBvzQJJf4T/OopPBbRyy
QPniFUH/Pr7BkLRyQHIBkEA0g57Ba9MCQWYCub4h8LTBT0qaQG7GScAYRqXB8rMXQYEj00BnmpHB
mR/6QEvXvECL/IPBYjcMQQVB/UCSbqHBMAiWQLen90B3eJbBRnHSQIq6zz/wp6/BHFZjQNZTZb+g
gqHBF/LiQML5KcDkO6/BDdG8QLgoDUGxTljBRPmPQId+9kCTvFbBuvCBQH/cFkEw3XHBcEGzQFqk
EEGOQX/BIIjlQHya5kBZXG3BL+PRQPCdzEBZrlXBl+ROQPwv5EAR8XjB/rRqQEf//kCcsojBNhbK
QBKKn0Cb5HbBEO2XQOuzqkDPA2rBKI+FQNNzNEG50arB1Nm8QBESMEGDFK7Bz3qbQHCMHEECi53B
QJeDQMA+C0EdV6fB+m3vQKHj6kAbo6/BxrXyQAaMEUH7iLLBuNpoQFMzFkEzI7jB2fGGQAQOL0FL
rL3BLSjMQE707kDUDcDB8kOgQOLu8kAO1LbBSWz+QOFrib59WIjBjL3NQMaahj1dMIHB3L7MQG6j
dr/Z9ozB8imDQNfGGkABcavB+yJOQIWHtj8XvaHBk2umQADMYEDKfIfBQqy9QPmqkkD/c5HBEye9
QD8lN0Ay657BfjRQQFt4RkD+4pLBINCSQNclcT8buI/BP4BiQG5KoECgj4TBjwxwQMjjuUDN0o/B
pmtRQAiJgkBj6KPBfpIGQRwe30DSFJPB+8HvQI+E0UDhRovBUcT+QB3b9UBADpzBaqK1QGA38kB2
WZXBrTjIQFkgFT/WAa3BODqPQJZKTr8DiqXBE8DPQBAz7L9ItqzBAZ/DQIbk20CqMYzBqKKfQAp1
7z6FJKjBqc3SQInb/kAVO53BQj3gQE3QEr9SSK/BTjCnQBL/+r/t3qfB6XjTQLwOiT9ORZDBJjes
QKmC/UDY9l/Bk+yZQM0BCUG9YXTBEWfKQHcE2ECdMWXBubqCQB0F8EDh44DBCXm0QMq4tkBf1nPB
A0u0QFB3A0HvELrBEQzTQK2D/0CBubDBuXa0QJtzH0EAt6XB8v60QHMlG0H0er3BljeNQDDFI0FK
yKzBsqChQGRry0CKP4TB0Y7ZQKSHk73hU4jBc6GHQHQS2z/OxKTBjwqfQDmThkBH9I3BjeefQMht
GkCVmJvB3N+EQOMHYkBYsZbBQFLDQITTCEGCe6bBmhyqQKzltj/MK5PBlQqHQCCaq0A+4InB+q/y
QLC72T/kbJPBusaXQP8bKUEZwbfBc1l0QPb7j0C2qJ7BSqEDQWWJ7L6G3bPBbk+XQLSOS8Dca6XB
TmMXQQAO2EAuKpLBvc/6QLoEv0C3hYTBPKUKQe44AEHVDKLBphaUQDGh+UDSSZbBL9jUQAxPxz+k
+67BqZBgQJfgZL/cwaHBETbiQODYLsAWdK7B8Ry+QILzCkHB91bB2peRQPiU8UCEHVbBBzWDQKyz
FUHD9G/B2zO0QHnsD0Gk1H3BBvnmQHaK5EAJWW3BxPbTQC5QyEB8L1bBl9ZQQCBq4kBkRXjBM1Br
QF0x/0B8IIjBPTPMQONwnkDJfHjBxlmaQHRZp0BW42rBbQ2+QG3c8kAI38DBzqqTQMMy/kBYlrfB
Y4rXQNvX3ECAs6/BPO7xQI9BB0GNqrLBHKPOQHURKkH7QKjBLQ+sQE7pIkGmWJ3BXqnVQD49IUG8
RLzB2NusQBfpG0GNCMbBXCByQD1XFUH00KzBoWF2QBIwMUHyTKnBA8D7QIx4NL4NaYbB443HQMTa
Ez5494DBAr/NQJMTgb/H4IvBxPuEQLFiGUAUn6vBMNdOQHRRtz/1AqLB99ekQPSOX0BbaIfB19W9
QExXkUCUQpHB5Ke9QPL+NUD3y57Bk4RPQBdORkAuKpPBhsaRQEtYfj8kUY/BjHxhQCT0oED3yoTB
ObZxQGAUukAIEZDBP6ZTQK68gkDaJKTB

>  <OMEGA_E>  (197) 
qJOPPrgKhT4=

>  <OMEGA_NBR>  (197) 
     22126

$$$$
50214106
     RDKit          3D

 70 73  0  0  1  0  0  0  0  0999 V2000
    8.3534    7.0171  -18.5503 C   0  0  0  0  0  0  0  0  0  0  0  0
    7.4706    6.6148  -17.5325 C   0  0  0  0  0  0  0  0  0  0  0  0
    7.8676    7.7026  -19.6746 C   0  0  0  0  0  0  0  0  0  0  0  0
    5.6156    7.6219  -18.7466 C   0  0  0  0  0  0  0  0  0  0  0  0
    6.2627    0.6839  -21.6602 C   0  0  0  0  0  0  0  0  0  0  0  0
    4.5661   -0.8033  -20.7225 C   0  0  0  0  0  0  0  0  0  0  0  0
    6.6108   -1.7303  -21.6778 C   0  0  0  0  0  0  0  0  0  0  0  0
    6.0887    6.9365  -17.6034 C   0  0  0  0  0  0  0  0  0  0  0  0
    5.0126    0.4988  -21.0322 C   0  0  0  0  0  0  0  0  0  0  0  0
    6.4900    7.9849  -19.7857 C   0  0  0  0  0  0  0  0  0  0  0  0
    7.0621   -0.4294  -21.9784 C   0  0  0  0  0  0  0  0  0  0  0  0
    5.3624   -1.9164  -21.0506 C   0  0  0  0  0  0  0  0  0  0  0  0
    6.3612    8.2988  -22.2469 C   0  0  0  0  0  0  0  0  0  0  0  0
    6.5904    1.1113  -17.9700 C   0  0  0  0  0  0  0  0  0  0  0  0
    5.4141    7.9606  -14.0312 C   0  0  0  0  0  0  0  0  0  0  0  0
    4.7967    8.5953  -15.2891 C   0  0  0  0  0  0  0  0  0  0  0  0
    6.3809    6.8199  -14.3934 C   0  0  0  0  0  0  0  0  0  0  0  0
    4.0816    7.5249  -16.1247 C   0  0  0  0  0  0  0  0  0  0  0  0
    5.6947    5.7682  -15.2933 C   0  0  0  0  0  0  0  0  0  0  0  0
    5.2654    9.8442  -20.9279 C   0  0  0  0  0  0  0  0  0  0  0  0
    4.8151    9.9736  -22.3607 C   0  0  0  0  0  0  0  0  0  0  0  0
    5.0618    6.4054  -16.5720 C   0  0  0  0  0  0  0  0  0  0  0  0
    6.7898   -0.1052  -17.0709 C   0  0  0  0  0  0  0  0  0  0  0  0
    4.2178    1.7002  -20.5699 C   0  0  0  0  0  0  0  0  0  0  0  0
    4.9823    4.2384  -17.7620 C   0  0  0  0  0  0  0  0  0  0  0  0
    4.9767    2.4090  -19.4280 C   0  0  1  0  0  0  0  0  0  0  0  0
    4.1360    3.5279  -18.8089 C   0  0  2  0  0  0  0  0  0  0  0  0
    5.9634    8.5738  -20.9343 N   0  0  0  0  0  0  0  0  0  0  0  0
    5.3002    1.4240  -18.3787 N   0  0  0  0  0  0  0  0  0  0  0  0
    4.2295    5.3924  -17.2475 N   0  0  0  0  0  0  0  0  0  0  0  0
    7.0920    7.3884  -22.6204 O   0  0  0  0  0  0  0  0  0  0  0  0
    7.5682    1.6942  -18.4262 O   0  0  0  0  0  0  0  0  0  0  0  0
    5.7505    9.1765  -23.1056 O   0  0  0  0  0  0  0  0  0  0  0  0
    3.7530    4.4718  -19.8093 O   0  0  0  0  0  0  0  0  0  0  0  0
    8.2721   -0.2476  -22.5531 F   0  0  0  0  0  0  0  0  0  0  0  0
    4.9342   -3.1630  -20.7501 F   0  0  0  0  0  0  0  0  0  0  0  0
    9.4076    6.7980  -18.4667 H   0  0  0  0  0  0  0  0  0  0  0  0
    7.8468    6.0559  -16.6884 H   0  0  0  0  0  0  0  0  0  0  0  0
    8.5478    8.0135  -20.4538 H   0  0  0  0  0  0  0  0  0  0  0  0
    4.5672    7.8700  -18.8223 H   0  0  0  0  0  0  0  0  0  0  0  0
    6.6059    1.6802  -21.8967 H   0  0  0  0  0  0  0  0  0  0  0  0
    3.6136   -0.9457  -20.2338 H   0  0  0  0  0  0  0  0  0  0  0  0
    7.2217   -2.5849  -21.9283 H   0  0  0  0  0  0  0  0  0  0  0  0
    5.9649    8.7330  -13.4744 H   0  0  0  0  0  0  0  0  0  0  0  0
    4.6074    7.5590  -13.4004 H   0  0  0  0  0  0  0  0  0  0  0  0
    4.0720    9.3665  -14.9889 H   0  0  0  0  0  0  0  0  0  0  0  0
    5.5931    9.0555  -15.8924 H   0  0  0  0  0  0  0  0  0  0  0  0
    7.2461    7.2393  -14.9279 H   0  0  0  0  0  0  0  0  0  0  0  0
    6.7225    6.3322  -13.4685 H   0  0  0  0  0  0  0  0  0  0  0  0
    3.2785    7.0771  -15.5208 H   0  0  0  0  0  0  0  0  0  0  0  0
    3.6481    7.9988  -17.0177 H   0  0  0  0  0  0  0  0  0  0  0  0
    6.4435    5.0241  -15.6023 H   0  0  0  0  0  0  0  0  0  0  0  0
    4.9012    5.2717  -14.7155 H   0  0  0  0  0  0  0  0  0  0  0  0
    5.9391   10.6670  -20.6466 H   0  0  0  0  0  0  0  0  0  0  0  0
    4.4063    9.8227  -20.2413 H   0  0  0  0  0  0  0  0  0  0  0  0
    3.7921    9.5883  -22.4830 H   0  0  0  0  0  0  0  0  0  0  0  0
    4.8530   11.0235  -22.6867 H   0  0  0  0  0  0  0  0  0  0  0  0
    7.8656   -0.3007  -16.9510 H   0  0  0  0  0  0  0  0  0  0  0  0
    6.3407    0.0895  -16.0858 H   0  0  0  0  0  0  0  0  0  0  0  0
    6.3066   -0.9816  -17.5274 H   0  0  0  0  0  0  0  0  0  0  0  0
    4.0846    2.3975  -21.4102 H   0  0  0  0  0  0  0  0  0  0  0  0
    3.2330    1.3710  -20.2070 H   0  0  0  0  0  0  0  0  0  0  0  0
    5.2078    3.5465  -16.9371 H   0  0  0  0  0  0  0  0  0  0  0  0
    5.9219    4.5835  -18.2182 H   0  0  0  0  0  0  0  0  0  0  0  0
    5.9047    2.8399  -19.8321 H   0  0  0  0  0  0  0  0  0  0  0  0
    3.2493    3.0910  -18.3262 H   0  0  0  0  0  0  0  0  0  0  0  0
    4.5409    0.9503  -17.9324 H   0  0  0  0  0  0  0  0  0  0  0  0
    3.5508    5.0578  -16.5938 H   0  0  0  0  0  0  0  0  0  0  0  0
    3.7640    5.8310  -18.0162 H   0  0  0  0  0  0  0  0  0  0  0  0
    3.2238    4.0382  -20.4684 H   0  0  0  0  0  0  0  0  0  0  0  0
  1  2  2  0
  1  3  1  0
  2  8  1  0
  3 10  2  0
  4  8  2  0
  4 10  1  0
  5  9  2  0
  5 11  1  0
  6  9  1  0
  6 12  2  0
  7 11  2  0
  7 12  1  0
  8 22  1  0
  9 24  1  0
 10 28  1  0
 11 35  1  0
 12 36  1  0
 13 28  1  0
 13 31  2  0
 13 33  1  0
 14 23  1  0
 14 29  1  0
 14 32  2  0
 15 16  1  0
 15 17  1  0
 16 18  1  0
 17 19  1  0
 18 22  1  0
 19 22  1  0
 20 21  1  0
 20 28  1  0
 21 33  1  0
 22 30  1  0
 24 26  1  0
 25 27  1  0
 25 30  1  0
 26 27  1  0
 26 29  1  0
 27 34  1  0
  1 37  1  0
  2 38  1  0
  3 39  1  0
  4 40  1  0
  5 41  1  0
  6 42  1  0
  7 43  1  0
 15 44  1  0
 15 45  1  0
 16 46  1  0
 16 47  1  0
 17 48  1  0
 17 49  1  0
 18 50  1  0
 18 51  1  0
 19 52  1  0
 19 53  1  0
 20 54  1  0
 20 55  1  0
 21 56  1  0
 21 57  1  0
 23 58  1  0
 23 59  1  0
 23 60  1  0
 24 61  1  0
 24 62  1  0
 25 63  1  0
 25 64  1  0
 26 65  1  6
 27 66  1  1
 29 67  1  0
 30 68  1  0
 30 69  1  0
 34 70  1  0
M  CHG  1  30   1
M  END
>  <OMEGA_C>  (198) 
fKcFQbmL4ED8ZpTBZg/vQLes00B2QozBqMP7QHJ79kCnZZ3BpbKzQI7m80Ag+ZXBV2jIQIIRLz8k
SK3BuB2SQOShTb+xx6XBW4vTQB153b85bK3Br9bCQJ/33UDX04zBAmegQAZn/z7/QajB5q3PQB6E
/0AxSZ7B/PzhQETd276v06/BipirQL1M9b+RZ6jB/Y7LQM3HBEGj+bHBUOTSQJE/jj+Hwo/BckCt
QIK9/kCjf2DBp36ZQG6GCUEroHTBmjDMQFQ82kBhS2bBJpyCQFnM8EBW/4DBvzq2QBSVuEBPsXTB
3X2oQLiBHUFhbKfBpxWaQOCTH0Gv4rLB+PmhQAP5zEB+k4TBRkbZQIRn170tkYjBIPiGQFWf2T8s
j6TBYm+fQOqgh0CQGI7BbkGfQC4tGkCXbJvB6lmEQFrIYUCUeJbBktS+QDcuCUF/eafB35qpQJhE
tj+EB5PBTViHQKiOrEDe+onBovHiQNZt7ECN9rTB3i7yQPPc2D/VaJPBuwO4QODSEkEu2LjBszFw
QJ4Yj0BxeZ7BqFoEQeyMfb7FbLTBteSdQOxuSsBGAKbBs4UWQWaJ2UDmu5PBYxn7QLrJwUDXgYXB
vcMIQXY3AEFeoaPBRSaSQA3X+0AnlJbB4GPTQOwQ1z9mLK/BfEVnQI0Zcr/V3qHBZxjnQLluJcAw
ba/BX+C+QIu6C0H1llfBcm+TQJrj8UAQaFbB/E2CQDfdFUG80m/Br/qyQFzjEEFZR37Byd/nQB2o
50B+2G7BAB/XQBShykD0flfBktNRQNl34kBeVXjBunlpQPX1/0BTJIjBbDHOQDLFoED7onnBT9ac
QPmxqEChcmvBxwy+QPWrKkFWLKXBIwCNQJ4pHUEe7qHB6bFyQMlpGUE13bPBtEubQDhgMEFqfrXB
ZLP7QPv5mb6vm4fB5ubKQMpQtz2/r4DBz8/JQCpIe780OIzB9bSCQP5vGUALSKvBr+hOQLJ8rz/X
p6HBQKamQPf5YkApf4fBDYC9QCqskkD3vpHBPPO8QGHANUAYqJ7BA/RPQH3TRUAjnJLBFE+RQJVI
cz91dY/B6D9jQBzZoUAiwITBBuZwQMaXukA3IZDBj1JOQJY4gUA/v6PBAfIEQTx9/kAij5LBOvnv
QHf95kBcjIvB45j3QAEAC0Gw8prBB7OwQPqE/0BHIpXBuvKsQImnSL56JK3BMLOLQITFk79uMp3B
cei3QOVeI8DexqjBptjCQGTh50AbkIzBObaSQKGQR724BKTBmZzKQGZLC0GTfJzBi0W/QLt2ub/V
jq/BQjyeQOHdGcB6k5/BkkbLQOOGI0GR5azB1MfSQNIpkz9+qo3Bi06uQCJa7kCnYFzBA5aYQKmm
BEFl7G3BRR/QQB5F0ED8AGbBYN6DQJQi7ED09H7BohG9QK3zs0BxFnjBYgaJQJipGEEak6bBJ+mE
QLG4IUFYtLHBJhilQKH7zUAsAIXBtDvZQPZltD41WIPB3xd+QLuopj+xYKHBrJmlQJpCjUAn9JDB
TOWdQFYYDEB9tJrBWBuIQEdGYkD135fBO0q3QBVVFkF7LqXBhz2pQDbgvT9FspDBefKLQBiCr0DR
wIvB00DxQLfXJ0H6Aa7Bk47xQChtsD+eepPB8w2tQIUILEHkoLPBaVp7QNYQiEDqaqHBnN7XQLLe
y7+0ZLjBl0mXQA+CXcCPCpnB/BcWQXF+/kCjfpHBEoz+QGYF1ED5T4XBFP8FQTvwE0GZTaDB+VqO
QG78/0BkF5bBjfyyQAPpJj+vRrLBASpwQBBIhb9OJJbBpfDFQHXEYMD2oarBtN+9QPLyAUH81lDB
W+GVQE8i20CMHVTBcWx/QBi6DkH2mmbB9LKwQO3jDkEFpHXBGl3qQH+c40C2pGzBrqLcQN5mu0A2
SVnBTHpWQAZb2EAaMXfBAsJpQJovAEFvoIXB2VvXQHIFokBMnH/BRD6mQKJjnUAq3HDBqD53QIi3
I0FOmqDBYaxxQDcVCUE/9aXBu9R+QB/hFEEkkLfBEvlUQDtSLUEjG7LBXSn7QPkfnT2jjILB5JbP
QB1udz9A6HjByZPFQD5BD7+hm4PBkcRuQBVO6T+X46jBugBDQLQYkj8fxZzB6+i0QJzWckAvxorB
M1u+QOLam0APCZbB3ua6QDHXGEDbbZ/B4aVVQHWSVEA8TZPBbWqRQBo1nT/hwovBV/JrQBqMoUDu
GYfBjq56QNtSwEBIf5HBWuxWQHgZbkClxKXB

>  <OMEGA_E>  (198) 
sNVvPtgrLz8=

>  <OMEGA_NBR>  (198) 
     24676

$$$$
50214061
     RDKit          3D

 76 79  0  0  1  0  0  0  0  0999 V2000
    8.4894    6.8078  -18.3614 C   0  0  0  0  0  0  0  0  0  0  0  0
    7.5379    6.4849  -17.3768 C   0  0  0  0  0  0  0  0  0  0  0  0
    8.0918    7.4635  -19.5355 C   0  0  0  0  0  0  0  0  0  0  0  0
    5.7895    7.4956  -18.7330 C   0  0  0  0  0  0  0  0  0  0  0  0
    6.2457    0.6906  -21.6411 C   0  0  0  0  0  0  0  0  0  0  0  0
    4.5608   -0.8088  -20.7015 C   0  0  0  0  0  0  0  0  0  0  0  0
    6.6259   -1.7182  -21.6303 C   0  0  0  0  0  0  0  0  0  0  0  0
    6.1735    6.8469  -17.5408 C   0  0  0  0  0  0  0  0  0  0  0  0
    4.9953    0.4965  -21.0164 C   0  0  0  0  0  0  0  0  0  0  0  0
    6.7379    7.7964  -19.7228 C   0  0  0  0  0  0  0  0  0  0  0  0
    7.0619   -0.4150  -21.9417 C   0  0  0  0  0  0  0  0  0  0  0  0
    5.3740   -1.9148  -21.0139 C   0  0  0  0  0  0  0  0  0  0  0  0
    6.4628    7.9713  -22.1350 C   0  0  0  0  0  0  0  0  0  0  0  0
    6.5745    1.0534  -18.0255 C   0  0  0  0  0  0  0  0  0  0  0  0
    6.0580    8.7947  -23.3633 C   0  0  0  0  0  0  0  0  0  0  0  0
    5.3339    7.9523  -14.0128 C   0  0  0  0  0  0  0  0  0  0  0  0
    4.8271    8.6084  -15.3087 C   0  0  0  0  0  0  0  0  0  0  0  0
    6.2742    6.7725  -14.3124 C   0  0  0  0  0  0  0  0  0  0  0  0
    4.1195    7.5683  -16.1869 C   0  0  0  0  0  0  0  0  0  0  0  0
    5.5983    5.7431  -15.2440 C   0  0  0  0  0  0  0  0  0  0  0  0
    4.4335   10.1016  -21.0521 C   0  0  0  0  0  0  0  0  0  0  0  0
    5.8918    9.8954  -20.6280 C   0  0  0  0  0  0  0  0  0  0  0  0
    4.3211   10.3145  -22.5697 C   0  0  0  0  0  0  0  0  0  0  0  0
    5.0688    6.3943  -16.5593 C   0  0  0  0  0  0  0  0  0  0  0  0
    6.7631   -0.0934  -17.0368 C   0  0  0  0  0  0  0  0  0  0  0  0
    4.1947    1.6941  -20.5544 C   0  0  0  0  0  0  0  0  0  0  0  0
    4.9680    4.2376  -17.7580 C   0  0  0  0  0  0  0  0  0  0  0  0
    4.9618    2.4120  -19.4229 C   0  0  1  0  0  0  0  0  0  0  0  0
    4.1336    3.5504  -18.8260 C   0  0  2  0  0  0  0  0  0  0  0  0
    6.3398    8.5089  -20.8461 N   0  0  0  0  0  0  0  0  0  0  0  0
    5.2819    1.4380  -18.3608 N   0  0  0  0  0  0  0  0  0  0  0  0
    4.2310    5.4119  -17.2678 N   0  0  0  0  0  0  0  0  0  0  0  0
    6.8696    6.8259  -22.3063 O   0  0  0  0  0  0  0  0  0  0  0  0
    7.5532    1.6711  -18.4316 O   0  0  0  0  0  0  0  0  0  0  0  0
    4.6517    9.1214  -23.3153 O   0  0  0  0  0  0  0  0  0  0  0  0
    3.8053    4.5018  -19.8397 O   0  0  0  0  0  0  0  0  0  0  0  0
    8.2737   -0.2234  -22.5091 F   0  0  0  0  0  0  0  0  0  0  0  0
    4.9606   -3.1649  -20.7070 F   0  0  0  0  0  0  0  0  0  0  0  0
    9.5277    6.5502  -18.2128 H   0  0  0  0  0  0  0  0  0  0  0  0
    7.8475    5.9566  -16.4872 H   0  0  0  0  0  0  0  0  0  0  0  0
    8.8213    7.7117  -20.2922 H   0  0  0  0  0  0  0  0  0  0  0  0
    4.7545    7.7637  -18.8858 H   0  0  0  0  0  0  0  0  0  0  0  0
    6.5763    1.6885  -21.8885 H   0  0  0  0  0  0  0  0  0  0  0  0
    3.6052   -0.9591  -20.2212 H   0  0  0  0  0  0  0  0  0  0  0  0
    7.2516   -2.5668  -21.8641 H   0  0  0  0  0  0  0  0  0  0  0  0
    6.6447    9.7250  -23.3843 H   0  0  0  0  0  0  0  0  0  0  0  0
    6.2629    8.2114  -24.2731 H   0  0  0  0  0  0  0  0  0  0  0  0
    5.8784    8.7027  -13.4209 H   0  0  0  0  0  0  0  0  0  0  0  0
    4.4718    7.5856  -13.4363 H   0  0  0  0  0  0  0  0  0  0  0  0
    4.1201    9.4125  -15.0565 H   0  0  0  0  0  0  0  0  0  0  0  0
    5.6803    9.0299  -15.8604 H   0  0  0  0  0  0  0  0  0  0  0  0
    7.1843    7.1535  -14.7987 H   0  0  0  0  0  0  0  0  0  0  0  0
    6.5429    6.2787  -13.3669 H   0  0  0  0  0  0  0  0  0  0  0  0
    3.2539    7.1676  -15.6390 H   0  0  0  0  0  0  0  0  0  0  0  0
    3.7750    8.0559  -17.1108 H   0  0  0  0  0  0  0  0  0  0  0  0
    6.3321    4.9661  -15.5043 H   0  0  0  0  0  0  0  0  0  0  0  0
    4.7526    5.2848  -14.7106 H   0  0  0  0  0  0  0  0  0  0  0  0
    3.8489    9.2135  -20.7701 H   0  0  0  0  0  0  0  0  0  0  0  0
    4.0309   10.9851  -20.5350 H   0  0  0  0  0  0  0  0  0  0  0  0
    6.5311   10.5716  -21.2146 H   0  0  0  0  0  0  0  0  0  0  0  0
    5.9879   10.1356  -19.5588 H   0  0  0  0  0  0  0  0  0  0  0  0
    3.2886   10.6078  -22.8105 H   0  0  0  0  0  0  0  0  0  0  0  0
    5.0095   11.1195  -22.8663 H   0  0  0  0  0  0  0  0  0  0  0  0
    7.8333   -0.2120  -16.8116 H   0  0  0  0  0  0  0  0  0  0  0  0
    6.2158    0.1289  -16.1088 H   0  0  0  0  0  0  0  0  0  0  0  0
    6.3758   -1.0242  -17.4769 H   0  0  0  0  0  0  0  0  0  0  0  0
    4.0489    2.3863  -21.3968 H   0  0  0  0  0  0  0  0  0  0  0  0
    3.2156    1.3600  -20.1806 H   0  0  0  0  0  0  0  0  0  0  0  0
    5.1510    3.5415  -16.9262 H   0  0  0  0  0  0  0  0  0  0  0  0
    5.9293    4.5564  -18.1874 H   0  0  0  0  0  0  0  0  0  0  0  0
    5.8929    2.8273  -19.8360 H   0  0  0  0  0  0  0  0  0  0  0  0
    3.2222    3.1371  -18.3694 H   0  0  0  0  0  0  0  0  0  0  0  0
    4.5233    1.0306  -17.8523 H   0  0  0  0  0  0  0  0  0  0  0  0
    3.5186    5.0965  -16.6410 H   0  0  0  0  0  0  0  0  0  0  0  0
    3.8080    5.8669  -18.0515 H   0  0  0  0  0  0  0  0  0  0  0  0
    3.2831    4.0809  -20.5125 H   0  0  0  0  0  0  0  0  0  0  0  0
  1  2  2  0
  1  3  1  0
  2  8  1  0
  3 10  2  0
  4  8  2  0
  4 10  1  0
  5  9  2  0
  5 11  1  0
  6  9  1  0
  6 12  2  0
  7 11  2  0
  7 12  1  0
  8 24  1  0
  9 26  1  0
 10 30  1  0
 11 37  1  0
 12 38  1  0
 13 15  1  0
 13 30  1  0
 13 33  2  0
 14 25  1  0
 14 31  1  0
 14 34  2  0
 15 35  1  0
 16 17  1  0
 16 18  1  0
 17 19  1  0
 18 20  1  0
 19 24  1  0
 20 24  1  0
 21 22  1  0
 21 23  1  0
 22 30  1  0
 23 35  1  0
 24 32  1  0
 26 28  1  0
 27 29  1  0
 27 32  1  0
 28 29  1  0
 28 31  1  0
 29 36  1  0
  1 39  1  0
  2 40  1  0
  3 41  1  0
  4 42  1  0
  5 43  1  0
  6 44  1  0
  7 45  1  0
 15 46  1  0
 15 47  1  0
 16 48  1  0
 16 49  1  0
 17 50  1  0
 17 51  1  0
 18 52  1  0
 18 53  1  0
 19 54  1  0
 19 55  1  0
 20 56  1  0
 20 57  1  0
 21 58  1  0
 21 59  1  0
 22 60  1  0
 22 61  1  0
 23 62  1  0
 23 63  1  0
 25 64  1  0
 25 65  1  0
 25 66  1  0
 26 67  1  0
 26 68  1  0
 27 69  1  0
 27 70  1  0
 28 71  1  6
 29 72  1  1
 31 73  1  0
 32 74  1  0
 32 75  1  0
 36 76  1  0
M  CHG  1  32   1
M  END
>  <OMEGA_C>  (199) 
gtQHQSjZ2UAb5JLBlzbxQIaEz0C0A4vB1HcBQRDV7kC7SJzBUkO5QFDc70A+3ZXBFd3HQAvKMD/x
IK3B0/GRQGMLT7+nnKXBiQfUQI3s27/cCq3BAI3FQPcZ20CJU4zBGtmfQNoy/j6CIajBtZzXQH98
+UA2yJ3BzPrhQNF91L6eiK/BmverQL0Y9b+AHKjBns/OQEcV/0BsFLHBe2LSQPjVhj8oNJDBX9vB
QDO3DEH857rBKq+qQDN5/kCPNGDBiHeaQNq7CUFi8HTB68XIQI+42ECJ/2TBP9ODQDMv8kDOfoHB
nCWzQNrHt0B653PBhN+NQBigIUG5aqjBTIm8QLpTHkEdBqXBFEaKQDYIJUHEjrTBOzOiQHCezECM
eYTBJWvYQIhiv71ES4jBNzuGQEnX2D9Yb6TBP/qeQDCah0B0EI7B+MaeQJteGkAoYpvBI0aEQE85
Y0Cmm5bBbN/KQGgkCEG/xKbBaAWpQPUQuD8C45LBfGSHQGkurUCLJIrBz9PbQKlt2kBBc7LBirPx
QK/m1T/2c5PBbdqUQCbxEUHPhbrB+IlzQFwOkECzt57BE2EEQfvMZL6QErTBcb2eQOuMSsD+p6XB
Q3EYQV6b0UDhs5HB2x77QE6cvkDL5YPBGyQNQe3F9kBpVqLBySSYQHZw+EA1FpfBFHHSQO0h2D+p
G6/BVbtmQCWIdb8SxaHBCA3oQBlHJMC66a7BlaHUQHaZG0EPE7vBgGnIQM9hA0FDL8LBtBu8QD0+
C0Hgu1bB/RiPQAi98kBK+1bB/9eDQIeZFkGV53DB2sS1QHF6EEEtxH3ByeXlQG7p5ECEx2zBel/R
QIDryEDM3lXBdEBQQB5d5UBVOXrBoplxQN/kAEHh4ojB3KDKQGXqnkC6EXjB7BSYQPYcqUCKXmvB
xFN2QLBqE0EcKabBZP2AQNHCL0G6R6TBxf7QQBYlKUGAt6nB0Zy/QHcrIkGAeJzBMHhSQIG5KUH1
e7bBNU6gQHvpMUEn7rbBCKr6QMIRWb5AfobBlOfGQPjxAz7j3oDBoQbMQKIZg7+Y0IvB+5CBQH+4
GECPLKvBKsxNQOgVrj/bcaHBmNSkQFqnYkDRaIfBnry9QCnOkUDcf5HBuZK8QOHxNEAHsJ7B0jdO
QH/FSEB59JLB/76QQCXsgz+V0Y7BVjBhQGMWo0DGIIXBG7ZzQG29u0BmaZDB6R1SQFqWgkCMGaTB
obQIQXwN20BuvZHBKT7xQN+I0EBbX4rBHpEDQZez8ECRNpvBZWW8QHYs80AhuJXBJ7/AQCMvFT+Y
6KzBx/yUQODBhL9xM6PBTVTTQJVZ5L+IVa3BVTfGQLcA3UAxLozBiFmdQC6/lj5VTKbBIG/cQA7c
/EDsWp3BWMzbQFc56L6AXrDBxuWvQO3XBMCSw6bBt83qQLA1F0EnZKzB1NLZQFM0nD/OUZDBYBLb
QGjpIUHBwLbB98ymQKC6/kBpdmDBC9yXQHMPCkGdWHXBbhrFQFwJ2UCg8mTBS02CQOQn80DdAoLB
HEqwQPyHuEBxZnTBMW+IQD6nFUHe16rBgRSnQLh9AkHM/6vBnceNQKaDJUHTMbTBYzShQEPmzUAZ
2oTBXjbmQMyJwz35rYjB9DaCQMyZtj+WBqLBd6qfQL6giUBe0Y7BbnGdQLYwFEBjlJrBa7aCQNDN
XEB01ZXBRTrRQPmxB0FhR6fB+ZuuQNHgvT+T15HBIlSHQM+xrkAe5YrBl8UEQWliH0Hf2qfBrGX1
QK2J3z9d5JXBiEu3QATNL0FCXLTBzmZjQEteiEAGNp7BrgH+QIY+Lb6mk7bBoRKoQOp8VsD4xKPB
6B0ZQYlu0kDuGpDBf1P5QJW/vkDZPoPBNAEQQQEl+EBE6qDBCMqbQP7u/EDBN5fBihLHQMXuzD9q
UK/BhP5zQLw8ob9QG57B1/7nQCIpJcAIC7DB2TH1QBJiK0HgRLrBkujQQPeHFUHcd7zBsqu3QNJG
C0HboFbBEqeKQJPg8kBctlfBl9yAQMLTFkFciHHBUK6zQDP5EEHOnn3BC8PiQNpM5UAiLWzBV6fM
QHvdyEAax1XBCB9MQEv/5UAH1XvBP39wQOSRAUEWcInBI8/HQGp4n0DEM3jBTGyUQLQJqkC1dGzB
ootOQCPBD0EpvqrBAFaPQO/4HUFhSKPBWXKZQDQe6UAY16fBRi2rQNFr/UBViLTB43uJQMPBHEGC
wLvBpwZqQHrxMUHvf7PB7WIEQaM4yL2OT4nBFFzeQEJgxz4QboDBuG3UQAwIUb94yYrBQl1sQNXp
AUCyvajBohNOQA24gT+Og53BW/2qQLEMbUB5/YfBK0a7QJe8lECJhJPBYfi3QNXEL0B9OZ/BMqpR
QMqWQUAp75DBeM2ZQJySij/ArYzBifxfQMMHpEAsHYbBzPB0QAyrvUAtMZHBUyI/QHwUb0C8oKLB

>  <OMEGA_E>  (199) 
1K+sPvgg4j4=

>  <OMEGA_NBR>  (199) 
     27394

$$$$
50214077
     RDKit          3D

 73 76  0  0  1  0  0  0  0  0999 V2000
    8.3708    6.9922  -18.5009 C   0  0  0  0  0  0  0  0  0  0  0  0
    7.4798    6.5839  -17.4919 C   0  0  0  0  0  0  0  0  0  0  0  0
    7.8908    7.6686  -19.6340 C   0  0  0  0  0  0  0  0  0  0  0  0
    5.6257    7.5335  -18.7488 C   0  0  0  0  0  0  0  0  0  0  0  0
    6.2498    0.6174  -21.6185 C   0  0  0  0  0  0  0  0  0  0  0  0
    4.4866   -0.8115  -20.7127 C   0  0  0  0  0  0  0  0  0  0  0  0
    6.5242   -1.8060  -21.6128 C   0  0  0  0  0  0  0  0  0  0  0  0
    6.0943    6.8814  -17.5884 C   0  0  0  0  0  0  0  0  0  0  0  0
    4.9821    0.4741  -21.0151 C   0  0  0  0  0  0  0  0  0  0  0  0
    6.5084    7.9215  -19.7699 C   0  0  0  0  0  0  0  0  0  0  0  0
    7.0218   -0.5218  -21.9114 C   0  0  0  0  0  0  0  0  0  0  0  0
    5.2547   -1.9502  -21.0179 C   0  0  0  0  0  0  0  0  0  0  0  0
    6.3549    8.1760  -22.1986 C   0  0  0  0  0  0  0  0  0  0  0  0
    6.5947    1.1096  -17.9513 C   0  0  0  0  0  0  0  0  0  0  0  0
    5.7861    8.9294  -23.4108 C   0  0  0  0  0  0  0  0  0  0  0  0
    5.3679    7.9234  -14.0159 C   0  0  0  0  0  0  0  0  0  0  0  0
    4.7811    8.5656  -15.2841 C   0  0  0  0  0  0  0  0  0  0  0  0
    6.3431    6.7864  -14.3652 C   0  0  0  0  0  0  0  0  0  0  0  0
    4.0775    7.5017  -16.1355 C   0  0  0  0  0  0  0  0  0  0  0  0
    5.6727    5.7349  -15.2755 C   0  0  0  0  0  0  0  0  0  0  0  0
    5.2978    9.8622  -20.6720 C   0  0  0  0  0  0  0  0  0  0  0  0
    4.5360   10.3304  -21.9173 C   0  0  0  0  0  0  0  0  0  0  0  0
    5.0567    6.3712  -16.5609 C   0  0  0  0  0  0  0  0  0  0  0  0
    6.8041   -0.1158  -17.0667 C   0  0  0  0  0  0  0  0  0  0  0  0
    4.2186    1.6995  -20.5683 C   0  0  0  0  0  0  0  0  0  0  0  0
    4.9756    4.2024  -17.7341 C   0  0  0  0  0  0  0  0  0  0  0  0
    4.9851    2.3959  -19.4237 C   0  0  1  0  0  0  0  0  0  0  0  0
    4.1510    3.5224  -18.8143 C   0  0  2  0  0  0  0  0  0  0  0  0
    5.9947    8.5717  -20.8962 N   0  0  0  0  0  0  0  0  0  0  0  0
    5.3044    1.4084  -18.3732 N   0  0  0  0  0  0  0  0  0  0  0  0
    4.2250    5.3628  -17.2367 N   0  0  0  0  0  0  0  0  0  0  0  0
    6.9395    7.1166  -22.4030 O   0  0  0  0  0  0  0  0  0  0  0  0
    7.5696    1.7015  -18.4024 O   0  0  0  0  0  0  0  0  0  0  0  0
    5.4227   10.2746  -23.0474 O   0  0  0  0  0  0  0  0  0  0  0  0
    3.8202    4.4820  -19.8192 O   0  0  0  0  0  0  0  0  0  0  0  0
    8.2481   -0.3816  -22.4630 F   0  0  0  0  0  0  0  0  0  0  0  0
    4.7783   -3.1816  -20.7278 F   0  0  0  0  0  0  0  0  0  0  0  0
    9.4263    6.7850  -18.4040 H   0  0  0  0  0  0  0  0  0  0  0  0
    7.8524    6.0396  -16.6367 H   0  0  0  0  0  0  0  0  0  0  0  0
    8.5781    7.9948  -20.4005 H   0  0  0  0  0  0  0  0  0  0  0  0
    4.5703    7.7377  -18.8534 H   0  0  0  0  0  0  0  0  0  0  0  0
    6.6272    1.6012  -21.8554 H   0  0  0  0  0  0  0  0  0  0  0  0
    3.5183   -0.9217  -20.2473 H   0  0  0  0  0  0  0  0  0  0  0  0
    7.1161   -2.6803  -21.8401 H   0  0  0  0  0  0  0  0  0  0  0  0
    6.5463    8.9624  -24.2050 H   0  0  0  0  0  0  0  0  0  0  0  0
    4.8942    8.4009  -23.7787 H   0  0  0  0  0  0  0  0  0  0  0  0
    5.9049    8.6919  -13.4407 H   0  0  0  0  0  0  0  0  0  0  0  0
    4.5467    7.5168  -13.4074 H   0  0  0  0  0  0  0  0  0  0  0  0
    4.0552    9.3407  -14.9971 H   0  0  0  0  0  0  0  0  0  0  0  0
    5.5927    9.0222  -15.8698 H   0  0  0  0  0  0  0  0  0  0  0  0
    7.2146    7.2088  -14.8868 H   0  0  0  0  0  0  0  0  0  0  0  0
    6.6728    6.2985  -13.4361 H   0  0  0  0  0  0  0  0  0  0  0  0
    3.2564    7.0616  -15.5505 H   0  0  0  0  0  0  0  0  0  0  0  0
    3.6694    7.9792  -17.0385 H   0  0  0  0  0  0  0  0  0  0  0  0
    6.4278    4.9931  -15.5749 H   0  0  0  0  0  0  0  0  0  0  0  0
    4.8725    5.2355  -14.7095 H   0  0  0  0  0  0  0  0  0  0  0  0
    6.0428   10.6258  -20.4041 H   0  0  0  0  0  0  0  0  0  0  0  0
    4.5835    9.7405  -19.8443 H   0  0  0  0  0  0  0  0  0  0  0  0
    3.6719    9.6726  -22.0919 H   0  0  0  0  0  0  0  0  0  0  0  0
    4.1870   11.3633  -21.7713 H   0  0  0  0  0  0  0  0  0  0  0  0
    7.8815   -0.3063  -16.9523 H   0  0  0  0  0  0  0  0  0  0  0  0
    6.3569    0.0650  -16.0781 H   0  0  0  0  0  0  0  0  0  0  0  0
    6.3247   -0.9898  -17.5318 H   0  0  0  0  0  0  0  0  0  0  0  0
    4.1131    2.3943  -21.4145 H   0  0  0  0  0  0  0  0  0  0  0  0
    3.2215    1.4005  -20.2128 H   0  0  0  0  0  0  0  0  0  0  0  0
    5.1598    3.4983  -16.9093 H   0  0  0  0  0  0  0  0  0  0  0  0
    5.9364    4.5344  -18.1544 H   0  0  0  0  0  0  0  0  0  0  0  0
    5.9163    2.8195  -19.8280 H   0  0  0  0  0  0  0  0  0  0  0  0
    3.2400    3.0986  -18.3664 H   0  0  0  0  0  0  0  0  0  0  0  0
    4.5450    0.9244  -17.9382 H   0  0  0  0  0  0  0  0  0  0  0  0
    3.5369    5.0373  -16.5882 H   0  0  0  0  0  0  0  0  0  0  0  0
    3.7709    5.7995  -18.0133 H   0  0  0  0  0  0  0  0  0  0  0  0
    3.3042    4.0645  -20.4988 H   0  0  0  0  0  0  0  0  0  0  0  0
  1  2  2  0
  1  3  1  0
  2  8  1  0
  3 10  2  0
  4  8  2  0
  4 10  1  0
  5  9  2  0
  5 11  1  0
  6  9  1  0
  6 12  2  0
  7 11  2  0
  7 12  1  0
  8 23  1  0
  9 25  1  0
 10 29  1  0
 11 36  1  0
 12 37  1  0
 13 15  1  0
 13 29  1  0
 13 32  2  0
 14 24  1  0
 14 30  1  0
 14 33  2  0
 15 34  1  0
 16 17  1  0
 16 18  1  0
 17 19  1  0
 18 20  1  0
 19 23  1  0
 20 23  1  0
 21 22  1  0
 21 29  1  0
 22 34  1  0
 23 31  1  0
 25 27  1  0
 26 28  1  0
 26 31  1  0
 27 28  1  0
 27 30  1  0
 28 35  1  0
  1 38  1  0
  2 39  1  0
  3 40  1  0
  4 41  1  0
  5 42  1  0
  6 43  1  0
  7 44  1  0
 15 45  1  0
 15 46  1  0
 16 47  1  0
 16 48  1  0
 17 49  1  0
 17 50  1  0
 18 51  1  0
 18 52  1  0
 19 53  1  0
 19 54  1  0
 20 55  1  0
 20 56  1  0
 21 57  1  0
 21 58  1  0
 22 59  1  0
 22 60  1  0
 24 61  1  0
 24 62  1  0
 24 63  1  0
 25 64  1  0
 25 65  1  0
 26 66  1  0
 26 67  1  0
 27 68  1  6
 28 69  1  1
 30 70  1  0
 31 71  1  0
 31 72  1  0
 35 73  1  0
M  CHG  1  31   1
M  END
>  <OMEGA_C>  (200) 
9O4FQdu/30DuAZTB4lrvQPyu0kBs74vBuIH8QOFk9UB/Ep3BoAW0QIYS8UCF/ZXBNP7HQBwOHj+1
8qzBSJKPQDa+T7+is6XBSMbQQMor578S56zBKATDQBg03EAitYzBlG2fQEO88j7YHqjBxkTQQDl9
/UC4KJ7BoLLgQPiTBb+cSq/BfCaoQGeg+b+WJKjBRlvLQOjQAkHIlrHBzgfTQJ0Ijj9UnI/BWie5
QKPeDkE5SbvByMWrQGeM/UBPQWDBLP+YQNAMCUHRi3TBnPrKQNwp2UAD2GXBznqCQIgN8ECPFYHB
Eoe1QPCDt0BGaHTBNIepQLbLHUFKYKXBQCeRQHJJJUG6Vq/BoNChQPvgy0CmfITBgrvZQIA67b2o
iIjB3P6GQLmI2T/Ni6TBBjifQHV6hkBr343BGIafQHFWGUCrY5vBsNSEQKVuYUC2g5bBdtS/QKsl
CUF+K6fBXL2pQHtFtD88/JLB4DKHQBqcq0DY5InBZhDeQIy740BcObPBLjryQGPL2T8kOJPBcIat
QJ1kJEEaYbjBSn50QMJsj0C3jZ7BE/gDQbVjw74ltLPBFuiYQKmeS8B20qXBRNIWQaQe2UBRO5PB
oUb7QLNEwUDiF4XBFkAJQcXV/0BRNKPBOECSQFCb90DH05bBrxHUQGL0zD/Y167BlSthQA30a793
+qHB/bbjQMeKK8BzuK7BmHvRQBdmD0Hno8HBI52cQEpqBkGwOr7B1vS8QDoSC0HxDFfBin6RQPiJ
8ECdhFbBmMSBQG1zFUFQ9G/BXPeyQMlaEEGT6n3BA97mQMWu5kAsMG7BiofVQFaNyUBH+lbBbmlQ
QOj44UDdznjBTNdqQNJV/0DeTojB4bDNQJXHn0CXMnnBw+ubQI+Jp0D0WWvB817BQFIDKkGIO6PB
WaySQA3ZG0EtwZ7BBQBrQOzCGkEsvLDB6vuFQCHQNUGlK67B8TT8QHbYnL5pnofBv2vLQGwLhT0L
oIDBBGTKQO5lfb8RQYzBpp6DQKQ7GUDwUKvBvSxOQMFEsz/Ls6HBWR2lQI3kX0BERofBG/e9QHIZ
kUAxPJHB7VG9QFtzNEDWn57BtFxPQBBQRkBV7pLBx3CRQAuobD9pgY/BT1xiQJIxoUCltITBu1Vx
QHOVuUBOG5DBO3hTQFMQgkCg/aPBFtQEQahh/kBLNZLByrjvQPD/5kD6JovBVjv3QCUVC0HEiprB
3lGwQBA7AEEyiJTB1lCuQLkOEr7nhq3BPKmMQCjAkL98wJ3BxlG5QORgIMDGZqnBQovCQFYW6EAN
HIzBqsuTQCTyUrzRb6TBmi3KQKr3C0Hez5vB+MzAQGvvsb/tC7DBNF2fQM0AGMC2O6DBEBfIQCrj
KkEzbajBmBvTQDWSkz9h2o3BeGm2QBeJNEEh5bLBJnitQIyp7EDphFvBjK6XQNX9A0FH5mzBZH7P
QFMFz0AUUWXBmj+DQOwp60AUKH7Bpq28QMgbs0CGm3fB0iiMQEKHEEEgVajBzJiDQMrBF0FI5LPB
2sKkQFCRzUB+r4TB8FTZQCUZrj71mYPBud1/QHh6qj+3r6HBlsKlQHeAjUBw35DBAoKeQBB/DUDV
3ZrBpoaIQMtIY0AX75fBXCu3QI1hF0ERdKTBpqGpQA27vj956ZDB8OGLQH1nr0BKmIvBPkzmQLMc
NEHELKTBTgXyQJwzsj/ll5PBgnOKQDJ1LkFqm7TBSJJ8QO0GiUCma6HBwKrZQKsvwr8E2rjBQE2Y
QA9kXMAg1JnBjf4VQZYS/kBKOJHBdlT+QEP800AY7oTBYMwFQVWoE0EDDaDBp/SNQKeYAEGmbpXB
mXK0QK/pNj8LjrLB2aNxQP8AhL/9uJbBW3rHQIOAXcAjVqvBKHO4QDsVRkH3cbLBLNPJQLjHLkHw
pbnBPt+8QMn7AEHF0E/B4huVQJ4W2UAwa1PBjUl9QPfiDUGneWXBfLWvQKBpDkFBcHTBoajpQMuu
4kBby2vBwBDcQIDfuUC4uljBe3RVQB391kDHj3bBVVZoQBSj/0DdKYXBABTXQCp3oUArNH/BE+Cl
QPdHnECJknDB9CNnQHuAF0HSFqPBk0GKQPTv/UCW+afBm5CZQMJqD0HcW7nBfrJEQGD/E0EaFrbB
80D7QCMOhT3/xoLB23jPQEdqcT82VXnB67vFQCGLEr/C/IPBAttwQImd7j+/J6nBzI1EQD2ZlD++
JZ3B5/u0QCHDckCYvIrBUJe+QARxnEBF3pXBY6G7QMPiGkB3hJ/BgUhWQJP1VECQbpPBS7KRQLP+
nD/oCYzBzp1rQEQhoUB1CIfBKM56QCmDwEAFTpHBTnlYQAFecED/2qXB

>  <OMEGA_E>  (200) 
aMSePtiMQD8=

>  <OMEGA_NBR>  (200) 
     30028

$$$$
50214109
     RDKit          3D

 71 74  0  0  1  0  0  0  0  0999 V2000
    8.4167    6.9733  -18.5033 C   0  0  0  0  0  0  0  0  0  0  0  0
    7.5066    6.5676  -17.5093 C   0  0  0  0  0  0  0  0  0  0  0  0
    7.9672    7.6971  -19.6208 C   0  0  0  0  0  0  0  0  0  0  0  0
    5.6959    7.6220  -18.7434 C   0  0  0  0  0  0  0  0  0  0  0  0
    6.2475    0.6427  -21.6461 C   0  0  0  0  0  0  0  0  0  0  0  0
    4.5499   -0.8310  -20.6889 C   0  0  0  0  0  0  0  0  0  0  0  0
    6.5871   -1.7727  -21.6463 C   0  0  0  0  0  0  0  0  0  0  0  0
    6.1317    6.9108  -17.6052 C   0  0  0  0  0  0  0  0  0  0  0  0
    4.9993    0.4674  -21.0114 C   0  0  0  0  0  0  0  0  0  0  0  0
    6.6005    8.0203  -19.7455 C   0  0  0  0  0  0  0  0  0  0  0  0
    7.0412   -0.4760  -21.9595 C   0  0  0  0  0  0  0  0  0  0  0  0
    5.3417   -1.9495  -21.0108 C   0  0  0  0  0  0  0  0  0  0  0  0
    6.3037    8.2736  -22.1815 C   0  0  0  0  0  0  0  0  0  0  0  0
    6.5949    1.1323  -17.9674 C   0  0  0  0  0  0  0  0  0  0  0  0
    5.3985    7.9433  -14.0376 C   0  0  0  0  0  0  0  0  0  0  0  0
    4.8236    8.5991  -15.3045 C   0  0  0  0  0  0  0  0  0  0  0  0
    6.3526    6.7887  -14.3891 C   0  0  0  0  0  0  0  0  0  0  0  0
    4.1066    7.5481  -16.1628 C   0  0  0  0  0  0  0  0  0  0  0  0
    5.6651    5.7535  -15.3060 C   0  0  0  0  0  0  0  0  0  0  0  0
    4.9376   10.1344  -22.2390 C   0  0  0  0  0  0  0  0  0  0  0  0
    4.9577    9.5863  -20.8385 C   0  0  0  0  0  0  0  0  0  0  0  0
    5.0710    6.4054  -16.5945 C   0  0  0  0  0  0  0  0  0  0  0  0
    6.8054   -0.0818  -17.0676 C   0  0  0  0  0  0  0  0  0  0  0  0
    4.2068    1.6763  -20.5630 C   0  0  0  0  0  0  0  0  0  0  0  0
    4.9599    4.2328  -17.7674 C   0  0  0  0  0  0  0  0  0  0  0  0
    4.9693    2.4040  -19.4354 C   0  0  1  0  0  0  0  0  0  0  0  0
    4.1269    3.5304  -18.8305 C   0  0  2  0  0  0  0  0  0  0  0  0
    5.4623    9.0178  -23.0078 N   0  0  0  0  0  0  0  0  0  0  0  0
    6.1334    8.7169  -20.8619 N   0  0  0  0  0  0  0  0  0  0  0  0
    5.3013    1.4337  -18.3749 N   0  0  0  0  0  0  0  0  0  0  0  0
    4.2269    5.4126  -17.2850 N   0  0  0  0  0  0  0  0  0  0  0  0
    7.0030    7.3424  -22.5635 O   0  0  0  0  0  0  0  0  0  0  0  0
    7.5678    1.7173  -18.4318 O   0  0  0  0  0  0  0  0  0  0  0  0
    3.7716    4.4769  -19.8390 O   0  0  0  0  0  0  0  0  0  0  0  0
    8.2489   -0.3033  -22.5418 F   0  0  0  0  0  0  0  0  0  0  0  0
    4.9133   -3.1925  -20.6956 F   0  0  0  0  0  0  0  0  0  0  0  0
    9.4640    6.7276  -18.4069 H   0  0  0  0  0  0  0  0  0  0  0  0
    7.8568    5.9903  -16.6664 H   0  0  0  0  0  0  0  0  0  0  0  0
    8.6675    8.0053  -20.3830 H   0  0  0  0  0  0  0  0  0  0  0  0
    4.6488    7.8652  -18.8476 H   0  0  0  0  0  0  0  0  0  0  0  0
    6.5936    1.6359  -21.8912 H   0  0  0  0  0  0  0  0  0  0  0  0
    3.5989   -0.9663  -20.1953 H   0  0  0  0  0  0  0  0  0  0  0  0
    7.1937   -2.6313  -21.8934 H   0  0  0  0  0  0  0  0  0  0  0  0
    5.9498    8.7006  -13.4609 H   0  0  0  0  0  0  0  0  0  0  0  0
    4.5699    7.5509  -13.4298 H   0  0  0  0  0  0  0  0  0  0  0  0
    4.1080    9.3830  -15.0158 H   0  0  0  0  0  0  0  0  0  0  0  0
    5.6429    9.0467  -15.8863 H   0  0  0  0  0  0  0  0  0  0  0  0
    7.2337    7.1964  -14.9062 H   0  0  0  0  0  0  0  0  0  0  0  0
    6.6699    6.2907  -13.4610 H   0  0  0  0  0  0  0  0  0  0  0  0
    3.2793    7.1160  -15.5807 H   0  0  0  0  0  0  0  0  0  0  0  0
    3.7056    8.0361  -17.0634 H   0  0  0  0  0  0  0  0  0  0  0  0
    6.4058    4.9960  -15.6020 H   0  0  0  0  0  0  0  0  0  0  0  0
    4.8506    5.2707  -14.7460 H   0  0  0  0  0  0  0  0  0  0  0  0
    3.9151   10.3906  -22.5533 H   0  0  0  0  0  0  0  0  0  0  0  0
    5.5824   11.0209  -22.3307 H   0  0  0  0  0  0  0  0  0  0  0  0
    5.0718   10.3909  -20.0973 H   0  0  0  0  0  0  0  0  0  0  0  0
    4.0435    9.0144  -20.6212 H   0  0  0  0  0  0  0  0  0  0  0  0
    7.8828   -0.2734  -16.9555 H   0  0  0  0  0  0  0  0  0  0  0  0
    6.3631    0.1132  -16.0795 H   0  0  0  0  0  0  0  0  0  0  0  0
    6.3218   -0.9607  -17.5188 H   0  0  0  0  0  0  0  0  0  0  0  0
    4.0697    2.3605  -21.4133 H   0  0  0  0  0  0  0  0  0  0  0  0
    3.2237    1.3524  -20.1907 H   0  0  0  0  0  0  0  0  0  0  0  0
    5.1436    3.5447  -16.9290 H   0  0  0  0  0  0  0  0  0  0  0  0
    5.9208    4.5476  -18.2006 H   0  0  0  0  0  0  0  0  0  0  0  0
    5.8939    2.8317  -19.8505 H   0  0  0  0  0  0  0  0  0  0  0  0
    3.2273    3.1013  -18.3650 H   0  0  0  0  0  0  0  0  0  0  0  0
    5.2553    8.8176  -23.9654 H   0  0  0  0  0  0  0  0  0  0  0  0
    4.5461    0.9622  -17.9196 H   0  0  0  0  0  0  0  0  0  0  0  0
    3.5201    5.1044  -16.6483 H   0  0  0  0  0  0  0  0  0  0  0  0
    3.7970    5.8579  -18.0703 H   0  0  0  0  0  0  0  0  0  0  0  0
    3.2509    4.0474  -20.5076 H   0  0  0  0  0  0  0  0  0  0  0  0
  1  2  2  0
  1  3  1  0
  2  8  1  0
  3 10  2  0
  4  8  2  0
  4 10  1  0
  5  9  2  0
  5 11  1  0
  6  9  1  0
  6 12  2  0
  7 11  2  0
  7 12  1  0
  8 22  1  0
  9 24  1  0
 10 29  1  0
 11 35  1  0
 12 36  1  0
 13 28  1  0
 13 29  1  0
 13 32  2  0
 14 23  1  0
 14 30  1  0
 14 33  2  0
 15 16  1  0
 15 17  1  0
 16 18  1  0
 17 19  1  0
 18 22  1  0
 19 22  1  0
 20 21  1  0
 20 28  1  0
 21 29  1  0
 22 31  1  0
 24 26  1  0
 25 27  1  0
 25 31  1  0
 26 27  1  0
 26 30  1  0
 27 34  1  0
  1 37  1  0
  2 38  1  0
  3 39  1  0
  4 40  1  0
  5 41  1  0
  6 42  1  0
  7 43  1  0
 15 44  1  0
 15 45  1  0
 16 46  1  0
 16 47  1  0
 17 48  1  0
 17 49  1  0
 18 50  1  0
 18 51  1  0
 19 52  1  0
 19 53  1  0
 20 54  1  0
 20 55  1  0
 21 56  1  0
 21 57  1  0
 23 58  1  0
 23 59  1  0
 23 60  1  0
 24 61  1  0
 24 62  1  0
 25 63  1  0
 25 64  1  0
 26 65  1  6
 27 66  1  1
 28 67  1  0
 30 68  1  0
 31 69  1  0
 31 70  1  0
 34 71  1  0
M  CHG  1  31   1
M  END
>  <OMEGA_C>  (201) 
1aoGQVUl30DPBpTBJTbwQLUp0kAWE4zBEfP+QIZO9kB595zB1kS2QIXn80CK8pXBjuvHQD6HJD8d
K63BGpmRQJS5VL/XgqXBZMnSQFnm4r+XK63BszbEQCUl3UBl14zBifqfQPRI7z5cF6jBbzfTQEpT
AEHh9p3Bw1HhQKKy874Qra/BEO+qQLSK+b8cFqjBArjJQJJgBEG0c7HBlAnTQFzwkD9BvY/B1MCs
QGsv/kAOmmDBV1uaQMiVCUEv33TBHEjLQMw82UCaOWbBQGmDQC6K8UBbTYHBaUi1QLocuEAv5XTB
yQCeQG8mIkGG6bHB4aWeQFZhGUFUtabB2EWiQPf4zECYwYTBz8XZQNWAp71riojBc56GQAyR1j/7
gKTB2beeQOhyh0CuI47BrQSfQLfaGUDHe5vBOQ+EQLvyYUDjpJbBQ8uuQOtIEEHrD7jB0UTEQF54
C0Ep5abBnaSpQDaDtz+z/5LBLEOHQLYzrUCgR4rBwhjgQL/06kAFgrTBGSvyQL3Q2z9KdJPBFmFx
QHRCj0BVtp7Ba/sDQbhLm76bVbTB+DmdQExSTMCwkKXBWWwXQVdI10BWQZPBgmr7QJiwv0DAVIXB
MK4KQZAVAEFvEKPBGMOUQP2v+0Dfx5bB6P7SQH5l0T9DIa/B31RmQOlgd7/pj6HBBDPmQOBnKMCW
Ja/B32S+QH41C0G0X1fB0jySQF+h8UBZ4FbB0XSDQKMgFkGUQHDBRJK0QFS/EEFWLn7BEnrnQPRI
5kC/f27B92/VQIdNyUA4YFfBr99RQIu240BrSnnBlyhtQLGTAEHUgYjBM/zMQJTfn0CZoXnBIjib
QLmpqECx72vBkpB6QBlAJkEvbbTB3KKyQHtVMEEspbLBgkyiQE9BJkE4x6DBnGSBQC07EEE8+KTB
mj/8QMj9i77upIfBTZ7LQAvY5z3OooDB4UvKQAPwdb+TJozB+jqCQE0SF0B5TqvBllFOQLIcrT+G
hqHBU5ikQADdYkCvbofBGHe9QN2FkUDjmpHBsJq8QA06NUDLzZ7BYYxOQH57RkCe65LBZSuoQOQU
DUEnub/BkXmRQLBSdj9GW4/BGUlhQORWo0C3L4XBfAFzQNpzu0AMkJDBDw9QQGSEgUCcD6TBw9sE
QWfm/kBHrpLB7dnvQMJh50B2oovBijX3QM0cC0EKE5vB4F6wQA3v/kD4UJXBPOisQAR9TL6WG63B
KNeLQHQklL+hIp3BTwu4QOmDI8B1uKjBsKnCQILF50D/rYzBNruSQOoBV70h+aPBHlHKQIo5C0EW
hpzBCkq/QOrZub+BhK/BBW+eQE4BGsBPgp/BOwTHQOKSKUFbrKnBzOjSQJ2pkz9rqY3B7U6uQMON
7kC8hFzBEZeYQFe5BEHeFW7BkCvQQGyB0EBnIGbBzd6DQDU87ED6GX/BJi29QP4btECIMnjBOHeL
QNZtH0FvjbPBQciMQDJAEkErZ6nBbg+lQG0AzkDTDoXBkX3ZQBqitz5WVYPBowN+QA8Rpj+eVqHB
/4SlQEM0jUAR95DB5tudQEH1C0DKsJrB5wOIQGcSYkBS3ZfBcR+qQBdvMEH8crHBYce3QNtZFkGa
LKXBtlKpQJTjvT8ErpDBq9yLQF5qr0A3wovBVevmQI7JM0HqHafBgqHxQDMYsT9UfZPBy/x6QIXs
h0BaaKHBsdTXQMRDzL/fXLjBopmXQGuYXcBn9ZjB4gIWQY4J/0CRopHBpoX+QHXG1EBQWIXBxrAF
QT4TFEHceKDBZxeOQOCg/kCtaZbBrNqyQJ7QJT/xQLLB2YpwQBqjhb9gEpbBnx7GQEThYMCJkqrB
3NS9QB4RAkFb+1DBW+SVQD5R20BtQlTBdW5/QJ3PDkFjyGbBgrSwQJ/zDkEO0XXBqGHqQDHg40Bj
xmzB07bcQPuvu0BRZVnB92tWQKGC2EBDU3fBnNRpQAg5AEGvtYXBs4TXQFlEokAnun/BZ3OmQK14
nUAl83DB6juVQETUFUEbg7rBNIdWQJv7JUGm7bTBVCdoQESPF0FyuaPBbVSIQIkmAUGmKavBG3L7
QOvKrz1WjILBPtfPQK8ueT9Q5HjB7OfFQKkKDr8ClIPBDoRuQGyA6D/32ajBLQNDQA5lkT8At5zB
Uei0QHPMckBcyorBnja+QJvSm0C3D5bBEdG6QNrBGEBTbp/ByotVQMNRVEAMR5PBfGyqQCzCPkEp
A7XBm4yRQD4OnT/Pu4vBJgdsQLJwoUCSEofBTzR6QLsiwEDZfpHBuYdWQELAbUAhv6XB

>  <OMEGA_E>  (201) 
CB+OPkBLOD8=

>  <OMEGA_NBR>  (201) 
     32606

$$$$
50214114
     RDKit          3D

 72 75  0  0  1  0  0  0  0  0999 V2000
    8.4223    6.9875  -18.4810 C   0  0  0  0  0  0  0  0  0  0  0  0
    7.5083    6.5861  -17.4897 C   0  0  0  0  0  0  0  0  0  0  0  0
    7.9780    7.7094  -19.6010 C   0  0  0  0  0  0  0  0  0  0  0  0
    5.7032    7.6432  -18.7310 C   0  0  0  0  0  0  0  0  0  0  0  0
    6.2235    0.6391  -21.6496 C   0  0  0  0  0  0  0  0  0  0  0  0
    4.5480   -0.8381  -20.6598 C   0  0  0  0  0  0  0  0  0  0  0  0
    6.5894   -1.7723  -21.6155 C   0  0  0  0  0  0  0  0  0  0  0  0
    6.1341    6.9308  -17.5910 C   0  0  0  0  0  0  0  0  0  0  0  0
    4.9832    0.4605  -20.9997 C   0  0  0  0  0  0  0  0  0  0  0  0
    6.6131    8.0365  -19.7307 C   0  0  0  0  0  0  0  0  0  0  0  0
    7.0272   -0.4760  -21.9520 C   0  0  0  0  0  0  0  0  0  0  0  0
    5.3490   -1.9530  -20.9718 C   0  0  0  0  0  0  0  0  0  0  0  0
    6.3290    8.2474  -22.1637 C   0  0  0  0  0  0  0  0  0  0  0  0
    6.6008    1.1290  -17.9667 C   0  0  0  0  0  0  0  0  0  0  0  0
    5.4084    9.0615  -23.0816 C   0  0  0  0  0  0  0  0  0  0  0  0
    4.9463   10.2177  -22.2147 C   0  0  0  0  0  0  0  0  0  0  0  0
    5.3646    7.9334  -14.0241 C   0  0  0  0  0  0  0  0  0  0  0  0
    4.7908    8.5921  -15.2902 C   0  0  0  0  0  0  0  0  0  0  0  0
    6.3315    6.7901  -14.3765 C   0  0  0  0  0  0  0  0  0  0  0  0
    4.0903    7.5412  -16.1612 C   0  0  0  0  0  0  0  0  0  0  0  0
    5.6576    5.7553  -15.3031 C   0  0  0  0  0  0  0  0  0  0  0  0
    4.9748    9.6063  -20.8330 C   0  0  0  0  0  0  0  0  0  0  0  0
    5.0695    6.4121  -16.5918 C   0  0  0  0  0  0  0  0  0  0  0  0
    6.8156   -0.0851  -17.0676 C   0  0  0  0  0  0  0  0  0  0  0  0
    4.1914    1.6674  -20.5439 C   0  0  0  0  0  0  0  0  0  0  0  0
    4.9925    4.2610  -17.7996 C   0  0  0  0  0  0  0  0  0  0  0  0
    4.9666    2.4000  -19.4270 C   0  0  1  0  0  0  0  0  0  0  0  0
    4.1363    3.5360  -18.8249 C   0  0  2  0  0  0  0  0  0  0  0  0
    6.1550    8.7246  -20.8553 N   0  0  0  0  0  0  0  0  0  0  0  0
    5.3040    1.4372  -18.3601 N   0  0  0  0  0  0  0  0  0  0  0  0
    4.2415    5.4184  -17.2952 N   0  0  0  0  0  0  0  0  0  0  0  0
    6.9672    7.2605  -22.5123 O   0  0  0  0  0  0  0  0  0  0  0  0
    7.5715    1.6976  -18.4553 O   0  0  0  0  0  0  0  0  0  0  0  0
    3.7531    4.4628  -19.8413 O   0  0  0  0  0  0  0  0  0  0  0  0
    8.2299   -0.3002  -22.5439 F   0  0  0  0  0  0  0  0  0  0  0  0
    4.9379   -3.1953  -20.6322 F   0  0  0  0  0  0  0  0  0  0  0  0
    9.4687    6.7399  -18.3805 H   0  0  0  0  0  0  0  0  0  0  0  0
    7.8546    6.0107  -16.6439 H   0  0  0  0  0  0  0  0  0  0  0  0
    8.6814    8.0134  -20.3621 H   0  0  0  0  0  0  0  0  0  0  0  0
    4.6575    7.8908  -18.8381 H   0  0  0  0  0  0  0  0  0  0  0  0
    6.5559    1.6318  -21.9150 H   0  0  0  0  0  0  0  0  0  0  0  0
    3.6004   -0.9767  -20.1605 H   0  0  0  0  0  0  0  0  0  0  0  0
    7.2049   -2.6279  -21.8512 H   0  0  0  0  0  0  0  0  0  0  0  0
    5.9592    9.4285  -23.9603 H   0  0  0  0  0  0  0  0  0  0  0  0
    4.5522    8.4554  -23.4125 H   0  0  0  0  0  0  0  0  0  0  0  0
    5.6352   11.0722  -22.2877 H   0  0  0  0  0  0  0  0  0  0  0  0
    3.9309   10.5410  -22.4877 H   0  0  0  0  0  0  0  0  0  0  0  0
    5.9053    8.6922  -13.4393 H   0  0  0  0  0  0  0  0  0  0  0  0
    4.5361    7.5295  -13.4237 H   0  0  0  0  0  0  0  0  0  0  0  0
    4.0652    9.3664  -15.0004 H   0  0  0  0  0  0  0  0  0  0  0  0
    5.6091    9.0525  -15.8634 H   0  0  0  0  0  0  0  0  0  0  0  0
    7.2118    7.2088  -14.8863 H   0  0  0  0  0  0  0  0  0  0  0  0
    6.6482    6.2894  -13.4497 H   0  0  0  0  0  0  0  0  0  0  0  0
    3.2624    7.0972  -15.5890 H   0  0  0  0  0  0  0  0  0  0  0  0
    3.6921    8.0315  -17.0618 H   0  0  0  0  0  0  0  0  0  0  0  0
    6.4050    5.0040  -15.5979 H   0  0  0  0  0  0  0  0  0  0  0  0
    4.8420    5.2644  -14.7519 H   0  0  0  0  0  0  0  0  0  0  0  0
    5.0834   10.3848  -20.0635 H   0  0  0  0  0  0  0  0  0  0  0  0
    4.0587    9.0279  -20.6429 H   0  0  0  0  0  0  0  0  0  0  0  0
    7.8926   -0.2914  -16.9803 H   0  0  0  0  0  0  0  0  0  0  0  0
    6.3996    0.1193  -16.0700 H   0  0  0  0  0  0  0  0  0  0  0  0
    6.3093   -0.9587  -17.5041 H   0  0  0  0  0  0  0  0  0  0  0  0
    4.0408    2.3494  -21.3937 H   0  0  0  0  0  0  0  0  0  0  0  0
    3.2143    1.3406  -20.1585 H   0  0  0  0  0  0  0  0  0  0  0  0
    5.2289    3.5816  -16.9674 H   0  0  0  0  0  0  0  0  0  0  0  0
    5.9260    4.6019  -18.2711 H   0  0  0  0  0  0  0  0  0  0  0  0
    5.8899    2.8193  -19.8532 H   0  0  0  0  0  0  0  0  0  0  0  0
    3.2499    3.1143  -18.3285 H   0  0  0  0  0  0  0  0  0  0  0  0
    4.5509    0.9770  -17.8900 H   0  0  0  0  0  0  0  0  0  0  0  0
    3.5423    5.0872  -16.6617 H   0  0  0  0  0  0  0  0  0  0  0  0
    3.8012    5.8695  -18.0715 H   0  0  0  0  0  0  0  0  0  0  0  0
    3.2168    4.0199  -20.4885 H   0  0  0  0  0  0  0  0  0  0  0  0
  1  2  2  0
  1  3  1  0
  2  8  1  0
  3 10  2  0
  4  8  2  0
  4 10  1  0
  5  9  2  0
  5 11  1  0
  6  9  1  0
  6 12  2  0
  7 11  2  0
  7 12  1  0
  8 23  1  0
  9 25  1  0
 10 29  1  0
 11 35  1  0
 12 36  1  0
 13 15  1  0
 13 29  1  0
 13 32  2  0
 14 24  1  0
 14 30  1  0
 14 33  2  0
 15 16  1  0
 16 22  1  0
 17 18  1  0
 17 19  1  0
 18 20  1  0
 19 21  1  0
 20 23  1  0
 21 23  1  0
 22 29  1  0
 23 31  1  0
 25 27  1  0
 26 28  1  0
 26 31  1  0
 27 28  1  0
 27 30  1  0
 28 34  1  0
  1 37  1  0
  2 38  1  0
  3 39  1  0
  4 40  1  0
  5 41  1  0
  6 42  1  0
  7 43  1  0
 15 44  1  0
 15 45  1  0
 16 46  1  0
 16 47  1  0
 17 48  1  0
 17 49  1  0
 18 50  1  0
 18 51  1  0
 19 52  1  0
 19 53  1  0
 20 54  1  0
 20 55  1  0
 21 56  1  0
 21 57  1  0
 22 58  1  0
 22 59  1  0
 24 60  1  0
 24 61  1  0
 24 62  1  0
 25 63  1  0
 25 64  1  0
 26 65  1  0
 26 66  1  0
 27 67  1  6
 28 68  1  1
 30 69  1  0
 31 70  1  0
 31 71  1  0
 34 72  1  0
M  CHG  1  31   1
M  END
>  <OMEGA_C>  (202) 
3MEGQfeZ30AU2ZPBnEPwQKXB0kDU6ovBCkz/QCSz9kDwzpzBBIG2QCyV9EAR2ZXB7ibHQHmbIz9p
Mq3B7YiRQKSNVr9bR6XBr9zSQGjb4r+e7KzBYErEQDPJ3UBWuozBqXafQPzL6z51/6fBrJ7TQKmV
AEFp2J3B597gQEq1876cna/B7CqrQN36+b8rxqfB7YbKQE/1A0EuT7HB1TnTQEKDkD/ku4/B/BGt
QOr7EEEzp7jBKUieQN17I0Gbt7HB1aqrQH7e/UChYmDBH06ZQB55CUHcpHTB1JvKQFRI2UAjBmbB
teOCQLtR8UAzSoHB4wq1QFAruECB2XTBvTGfQF6zGUEOqqbBRDmiQDYwzUACvITBuhnaQNBLrr1s
iojBkh+GQMBs1T/8WaTBxcKfQPxZiECTZY7BE+6eQAeaGUB5apvBwlyEQK1NYkBVmZbBa/XEQNeX
C0HB16bBlLqpQPz1tz954ZLBorqHQKljrUCqXIrBZPPeQExW6EArGbTBWknyQHBM2T97pJPBpDJw
QBbPjkANu57Bga0DQZaxmb7fWbTB+gKeQG5/TMDNDqXB+38XQYyt10A6C5PBAVn7QHZXwEDAJoXB
M+cKQb02AEGR5aLBHQqVQGaB/EB6tJbBjMnRQOvf0D/UUa/BX21mQMwGer+mSKHBcI7mQEYwKMA3
z67BarG+QCvbFkGsrr/BkauRQDNJB0G0TLvBaFO0QMInMUFJTbLBZpR7QMKnKEHD5rPB5Pe8QD4T
C0GAB1fB6yeRQJnx8EBtx1bBOBaCQKPcFUGsAXDBcH2zQPbWEEFJ0H3Bv8bmQCSu5kA/Lm7BXL7U
QH5CyUDrMVfBDMtQQFgc40CfbHnBGEtsQAKBAEGbfojBzvXMQMMgoEAYkXnBXPGaQBx2qEDOB2zB
6qqiQBYoJkETgqDBleCBQHRyEEGPJKXBFpD8QGw0lb6o14fBS8nMQJxp9D11j4DBt+XJQG1qdb9Z
CIzB2U2BQHtcFkBlJqvBZLdNQAKYqz+CRKHBd1OnQGk4ZUBMvYfBB6K9QCVDk0A3K5LB13m8QAtw
NEBl057Bp/5PQOlPR0CwoJLBmaCRQEEcej/PHo/BQrViQITKokAgS4XBzUZzQDXTu0B4kpDBpeBN
QOOigEBe6KPB9esEQYw8/0DbaZLBXfrvQKAW50CxiIvBmIL3QNq/C0EPqZrBtL+wQJJ0/0CtKJXB
qgitQMtVQr6kKa3BkM+LQJ80k79XOJ3Bygy4QLL4IsBKzqjBRuDCQPLI50B4l4zBtsqSQKG8M73l
CaTBbZLKQG/RC0ExUJzB+GK/QLOXuL8zla/BCWGeQC2KGcCCmp/BgSfMQJpHI0F6+azBytnSQHTf
kz9Jr43B9jGqQAnXKkED97TBwHeAQBrkKEEM667BClCuQHNn7kCaalzB3KSYQH+sBEH++m3BShrQ
QO9D0EDMBWbBWOmDQMcs7ECnAn/BQQ29QGrxs0AvHHjBXO+IQCFWFkG1YqfBEhulQHnzzUB3BYXB
Q1TZQMlGtz4hXYPBTy5+QE0opz8EZaHBiJelQJFRjUCr+JDBgeydQLtYDEDiuJrBNBmIQFlzYkCn
45fBDTS3QGKWF0HRxaTBPkypQH1lvj/etpDBTO+LQKOCr0BZw4vBdkzyQHT8JkE9R67Bvp3xQLlF
sT+tf5PBcEl7QAMuiEAybaHBjvvXQH3ayr9pa7jB3HSXQMk2XcCVEpnBeBIWQRkq/0CMW5HBB5L+
QLbE00BaXoXBFuwFQQsqFUGO0p/BgnqOQA8X/0CCRZbBtQ2zQHKeKD/WSrLBa2JwQHjShL8GKpbB
AhrGQIdXYMB9qqrByASwQPOHO0G5WLfBRf2pQMuWIEE1HrzB2r1yQL6hN0EPc6rBEJdLQKpJJUHh
XrTBr+S9QM35AUFL4lDB1tqVQLY620D8JlTBW5F/QCLFDkGqrWbBPMqwQJbkDkHksnXBOWHqQCKR
40Dup2zBXpHcQFRlu0AkS1nBk39WQHFw2EBFPnfB5eppQOU0AEGlqIXB6lfXQDj+oUCwnn/BRTWm
QONlnUAH4nDBqQ9rQHzsF0EjFqDBnoKBQLIKB0EAU6vBGUT7QCKxqj2tkYLB46rPQPXGeD/X8XjB
drPFQAT3Db+qoIPBI9FuQAnT6T9p56jBMBtDQH55kj8tyZzBGu60QNjtckCCzIrBSVO+QCzym0DW
DZbBouu6QDknGUCGcp/B+KdVQGWxVEBSUJPBzXuRQPyYnT+Kx4vBtv1rQGeGoUAFG4fBfJJ6QCxU
wEDxf5HBsdZWQFFZbkD8xqXB

>  <OMEGA_E>  (202) 
SERiPhRkMj8=

>  <OMEGA_NBR>  (202) 
     35212

$$$$
50214092
     RDKit          3D

 68 72  0  0  1  0  0  0  0  0999 V2000
    8.3065    6.8177  -18.4091 C   0  0  0  0  0  0  0  0  0  0  0  0
    7.4233    6.4660  -17.3727 C   0  0  0  0  0  0  0  0  0  0  0  0
    7.8383    7.5705  -19.5034 C   0  0  0  0  0  0  0  0  0  0  0  0
    5.6052    7.5987  -18.5369 C   0  0  0  0  0  0  0  0  0  0  0  0
    6.3237    0.7088  -21.7096 C   0  0  0  0  0  0  0  0  0  0  0  0
    4.5982   -0.7679  -20.8111 C   0  0  0  0  0  0  0  0  0  0  0  0
    6.6629   -1.7092  -21.7118 C   0  0  0  0  0  0  0  0  0  0  0  0
    6.0716    6.8591  -17.4512 C   0  0  0  0  0  0  0  0  0  0  0  0
    5.0584    0.5359  -21.1053 C   0  0  0  0  0  0  0  0  0  0  0  0
    6.4825    7.9761  -19.5579 C   0  0  0  0  0  0  0  0  0  0  0  0
    7.1241   -0.4119  -22.0102 C   0  0  0  0  0  0  0  0  0  0  0  0
    5.3983   -1.8877  -21.1174 C   0  0  0  0  0  0  0  0  0  0  0  0
    6.6037    1.1304  -18.0679 C   0  0  0  0  0  0  0  0  0  0  0  0
    4.9746    8.5546  -23.2853 C   0  0  0  0  0  0  0  0  0  0  0  0
    6.4304    8.1861  -22.8961 C   0  0  0  0  0  0  0  0  0  0  0  0
    4.4076    7.4211  -15.5728 C   0  0  0  0  0  0  0  0  0  0  0  0
    5.3701    6.3657  -14.9814 C   0  0  0  0  0  0  0  0  0  0  0  0
    5.9364   10.4314  -22.2001 C   0  0  0  0  0  0  0  0  0  0  0  0
    4.5539    9.0631  -20.8689 C   0  0  0  0  0  0  0  0  0  0  0  0
    4.6263    9.6800  -22.2801 C   0  0  2  0  0  0  0  0  0  0  0  0
    6.7396    9.2118  -21.7851 C   0  0  1  0  0  0  0  0  0  0  0  0
    5.0544    6.3727  -16.4766 C   0  0  0  0  0  0  0  0  0  0  0  0
    6.8182   -0.1048  -17.1985 C   0  0  0  0  0  0  0  0  0  0  0  0
    4.2561    1.7508  -20.6525 C   0  0  0  0  0  0  0  0  0  0  0  0
    4.9155    4.2065  -17.6773 C   0  0  0  0  0  0  0  0  0  0  0  0
    4.9749    2.4595  -19.4747 C   0  0  1  0  0  0  0  0  0  0  0  0
    4.1097    3.5578  -18.8170 C   0  0  2  0  0  0  0  0  0  0  0  0
    5.9996    8.7817  -20.5789 N   0  0  0  0  0  0  0  0  0  0  0  0
    5.3077    1.4520  -18.4508 N   0  0  0  0  0  0  0  0  0  0  0  0
    4.1718    5.3375  -17.0655 N   0  0  0  0  0  0  0  0  0  0  0  0
    7.5744    1.7107  -18.5424 O   0  0  0  0  0  0  0  0  0  0  0  0
    3.7705    4.5578  -19.7783 O   0  0  0  0  0  0  0  0  0  0  0  0
    8.3409   -0.2425  -22.5754 F   0  0  0  0  0  0  0  0  0  0  0  0
    4.9582   -3.1341  -20.8305 F   0  0  0  0  0  0  0  0  0  0  0  0
    9.3411    6.5112  -18.3659 H   0  0  0  0  0  0  0  0  0  0  0  0
    7.7774    5.8997  -16.5241 H   0  0  0  0  0  0  0  0  0  0  0  0
    8.5141    7.8389  -20.3020 H   0  0  0  0  0  0  0  0  0  0  0  0
    4.5640    7.8807  -18.5894 H   0  0  0  0  0  0  0  0  0  0  0  0
    6.6785    1.7021  -21.9418 H   0  0  0  0  0  0  0  0  0  0  0  0
    3.6312   -0.9066  -20.3506 H   0  0  0  0  0  0  0  0  0  0  0  0
    7.2788   -2.5668  -21.9387 H   0  0  0  0  0  0  0  0  0  0  0  0
    4.9214    8.9185  -24.3220 H   0  0  0  0  0  0  0  0  0  0  0  0
    4.3017    7.6928  -23.1643 H   0  0  0  0  0  0  0  0  0  0  0  0
    6.4933    7.1556  -22.5165 H   0  0  0  0  0  0  0  0  0  0  0  0
    7.1138    8.3046  -23.7499 H   0  0  0  0  0  0  0  0  0  0  0  0
    3.3311    7.3701  -15.3524 H   0  0  0  0  0  0  0  0  0  0  0  0
    4.7186    8.4741  -15.6401 H   0  0  0  0  0  0  0  0  0  0  0  0
    6.3672    6.6662  -14.6272 H   0  0  0  0  0  0  0  0  0  0  0  0
    4.9797    5.5622  -14.3395 H   0  0  0  0  0  0  0  0  0  0  0  0
    6.2543   10.8500  -23.1664 H   0  0  0  0  0  0  0  0  0  0  0  0
    5.9331   11.2261  -21.4396 H   0  0  0  0  0  0  0  0  0  0  0  0
    4.1313    9.7734  -20.1431 H   0  0  0  0  0  0  0  0  0  0  0  0
    3.9581    8.1384  -20.8667 H   0  0  0  0  0  0  0  0  0  0  0  0
    3.7541   10.2890  -22.5601 H   0  0  0  0  0  0  0  0  0  0  0  0
    7.8127    9.4012  -21.6343 H   0  0  0  0  0  0  0  0  0  0  0  0
    7.8951   -0.3133  -17.1160 H   0  0  0  0  0  0  0  0  0  0  0  0
    6.4020    0.0755  -16.1964 H   0  0  0  0  0  0  0  0  0  0  0  0
    6.3119   -0.9675  -17.6561 H   0  0  0  0  0  0  0  0  0  0  0  0
    4.1560    2.4537  -21.4928 H   0  0  0  0  0  0  0  0  0  0  0  0
    3.2575    1.4254  -20.3257 H   0  0  0  0  0  0  0  0  0  0  0  0
    5.1160    3.4498  -16.9046 H   0  0  0  0  0  0  0  0  0  0  0  0
    5.8684    4.5805  -18.0802 H   0  0  0  0  0  0  0  0  0  0  0  0
    5.8994    2.9195  -19.8538 H   0  0  0  0  0  0  0  0  0  0  0  0
    3.2022    3.0973  -18.3994 H   0  0  0  0  0  0  0  0  0  0  0  0
    4.5536    0.9704  -18.0042 H   0  0  0  0  0  0  0  0  0  0  0  0
    3.5823    4.9755  -16.3434 H   0  0  0  0  0  0  0  0  0  0  0  0
    3.6087    5.7657  -17.7722 H   0  0  0  0  0  0  0  0  0  0  0  0
    3.2728    4.1628  -20.4846 H   0  0  0  0  0  0  0  0  0  0  0  0
  1  2  2  0
  1  3  1  0
  2  8  1  0
  3 10  2  0
  4  8  2  0
  4 10  1  0
  5  9  2  0
  5 11  1  0
  6  9  1  0
  6 12  2  0
  7 11  2  0
  7 12  1  0
  8 22  1  0
  9 24  1  0
 10 28  1  0
 11 33  1  0
 12 34  1  0
 13 23  1  0
 13 29  1  0
 13 31  2  0
 14 15  1  0
 14 20  1  0
 15 21  1  0
 16 17  1  0
 16 22  1  0
 17 22  1  0
 18 20  1  0
 18 21  1  0
 19 20  1  0
 19 28  1  0
 21 28  1  0
 22 30  1  0
 24 26  1  0
 25 27  1  0
 25 30  1  0
 26 27  1  0
 26 29  1  0
 27 32  1  0
  1 35  1  0
  2 36  1  0
  3 37  1  0
  4 38  1  0
  5 39  1  0
  6 40  1  0
  7 41  1  0
 14 42  1  0
 14 43  1  0
 15 44  1  0
 15 45  1  0
 16 46  1  0
 16 47  1  0
 17 48  1  0
 17 49  1  0
 18 50  1  0
 18 51  1  0
 19 52  1  0
 19 53  1  0
 20 54  1  6
 21 55  1  1
 23 56  1  0
 23 57  1  0
 23 58  1  0
 24 59  1  0
 24 60  1  0
 25 61  1  0
 25 62  1  0
 26 63  1  6
 27 64  1  1
 29 65  1  0
 30 66  1  0
 30 67  1  0
 32 68  1  0
M  CHG  1  30   1
M  END
>  <OMEGA_C>  (203) 
PecEQVYq2kDARZPBoIvtQMTpzkBj+4rBlNP6QMtB8kAJB5zBKV6zQIUo80CVS5TBwFvKQJZ1NT9S
ra3BWSSTQCWWRL82fabBIDbVQJbF2r/Gsa3B0krCQNJ920ADnIvBqd6hQKIwCT+y16jB+HDPQOg7
/0CJdpzBuPjjQMzg0r79FLDBg76sQPCe8b9l8KjBf1HTQGKwkD8ai5DBhC+fQHLfCEFeSLrB/MXN
QGf6AkFAK7fBHQuNQMR57UACKnnBgderQMWzy0C/s2/B8fa9QAvnJkHXmbHB6bmRQIcCEUGQ86bB
1AqUQHzhGkGgPbLB+KrXQK9jE0HlR67Bwb2hQPzsy0Aq0IPB3y7aQEux1r2WlonBADKIQFMa4D9s
OKXBEkydQJubhkAxa43BpDKfQGloHUAyzJvB6oKDQEezY0AsiZbBs/y/QLGBDEGWoaTBvNipQF3c
uT8vm5PBjX+FQH3MqkAwhojBUGHyQET32j/rVpTBmFBxQCrZkUAPOp7BZXQFQZBHeL5imrTB46me
QBaVSMDWpKbBVnUVQWxb0EBE7ZLBs+D4QInKvEBEMYTBpDkIQTDY+kCOaqLBqAySQPgu/EAqt5TB
lLbVQBPe2T/diK/BhmVoQNIYaL8LzqLByuvoQERGJMCJgq/B7XudQEiyDkF6k8LBfaeJQGUr9kCH
ULnBz8jPQA775ECxIbTBHaTjQM/fBEHT/73B/zBVQKzX60Bho3XBhf6WQOOVB0HrPXrB+r/LQIpR
1UAaCWrB9VmfQHL9sUCQbmXBDiPIQHuZLUHXVLnBSdy9QCGeM0E5hKvBbjOEQMdfHEEAJaHBUFJ9
QA83AkEF76bBdEJwQI6fJEEGe7TBQAH6QDhrFkH6Eq3B/KT8QOdioL6e7YjBzNzMQBeSmj1HkoHB
OfvJQAyxd7+1P43Bj/2EQBAJHUAn8avBXnpQQO1ytj8Jm6LB/LWjQPjIXECJPIfBj8m7QGmTkkAp
pJDB+Me8QBrZOkCl1J7BGvFMQM86RkD2MZPBLbeRQHZueD+rCJDBK0RlQPw2n0Bcv4LBSvRmQOmA
uECFLY7Bz3RRQMA1hUBc4KPBtksGQTzz2UCbWZHBVuztQLnKz0DIhonBFhcAQXzE70DUsZrB6Jm2
QKII8kCATJTBKPzKQAlLQj+GxK3B1EuTQBgWOb/U4qbBJOrUQOy81L++Xa7BvfrCQHhD3EDiBIvB
JXyiQOdpFT8V8qjBMeDUQOgu+0DvR5zB1iPkQKBeub4SdbDBP26sQD7k67+noKnBiR/TQOBQjT9W
spDBL0mrQJarKEERvrPBZySQQI7RIEEeIKrBhyqLQGp+7kAB5njBcFioQLuqy0ARIm/B90igQHQ6
A0Gdk7XBcKrjQOiADUGr667BkmXCQDb8E0HOc7fB6tuaQE3GCEHK1anB1mWgQEImzUCDooPB9DbZ
QAgTKL4IFYrBavGIQOrb5T93MaXBtc2cQHjSh0DQP43BoLmfQNSLH0BmrJvBm9yDQHX/ZUBMfpbB
mLTHQCHlBkFn06XBBs2pQLjrvD8VhZPB6p6EQNxtrEBoq4jBFoPyQHDa1T/BdJTBrJNzQM/5kkAq
QZ7BBIEFQZCaQ74XA7XB3O6dQKblRcBdm6fBjNMWQUwE0UCMMJDBajT3QO2GvkAeaYLBB+cLQTjQ
90Dfq6DBtrWVQDHR+0AYU5XB2LTWQOuM4D/WZa/BMrhoQDQiXb/+M6PBqEfoQGpEIcBiZbDBSsqW
QDIhL0FaILrBOnDCQCXyNEFPPbHBpc2ZQObOKEFsqqLBqZZbQAt6I0FuhKvB89FQQPd57UCsKHbB
GOuVQLr/B0EBYHnBhOjHQBVU1EDzp2jBZWaaQJjOsUCecGXBNSKDQGHvBUHQUbrBY8KrQB6Y5UDc
4rbBCLP3QBklAEEDtLHB7zX4QOQXG0GmtazBkfXOQP2rFEFqqr/BLTSDQDze/UDtj6XB+3/7QPnU
z776mYnBhILMQMc5hrvQ+YHB4APIQMQzf78q5o3B9t+FQPCVIEAA2avBntxRQOPruz+5o6LB8zii
QHKsX0Da84bB2sm7QHpek0AuRJDBy4S9QIfJPEAym57BWvdMQAy9SEDxT5PB82mRQAxdgz8Iy4/B
be5gQNYxoUB0IIPB6ORnQFdZukBgi47Br71UQG5WhkD+/aPBJsYGQTPk2kBtKZHBoNDuQNlOz0DK
eonBmZQAQeUp8kDsSprBYYS3QJXh8kBe+ZPBjNuTQBxtNr+lAKfBIcjKQMLRSj8s9K3BRS/WQFy7
z7+oTq7B+trDQHWx20CQ7orBz0uiQC5SGT86KqnBP8jVQAWh/UCp0ZvBGb2tQKQK6b+ZlqnBe6rk
QA1xor4JgrDBTm3TQJb3kj83sZDBfBerQOiuJkHXT7XB+RqQQE87IUFFSavBifGLQI0I7kANEXnB
/r2oQLUhy0AKFm/B1PmhQE71AEHWk7TBPGXkQCjhDUHAiK7BJkvDQEOAEUF1gLfBIsKbQF2YCUGm
WanBOTmhQPtqzEAAoIPBNZfaQKRSwr3D2InB6VKIQA0N5j9bXKXBwvucQJF1h0BVaI3B2B6fQNAj
H0An0ZvBqjiDQBeUZED2dpbBmorIQPpBCUFNFKXBg+SpQGuBuz/NvpPBFi2FQNodrEDsvojBJF7y
QCEU3z8faJTBtotvQA4skkA4IJ7B7/SfQK/ARMDNcKfBP80FQeiMBL7P+7TBn1EXQcTx0UBjD5DB
Vg/4QKYNvUBQhILBu2wMQSRN+0CDJ6DBlZCWQE+S/EA07pTBr9FpQIrGXb/gW6PBhevVQCVk5T8z
qa/BbRfqQBk3HsDzPLDBQ3uWQPcGK0FkG7zBpInBQMnVM0GKqrPB5UaZQEtFK0F2bqTBSmFbQDci
I0HS3qzBNEVSQJ1A7UBLenbBt+eWQMy7B0EvlXnBTT7IQGGr00B6fmjBL3maQGZ0sUCWY2XBfuuE
QIfzAUEahbnBFliuQGD34EAIurTBd2X5QJo9AEG5XrDB/fX3QKxEHEGLNa3BFEPQQD0VEEHppr/B
9j6EQL7EAEECg6TBahv9QEZrlr60LYnBmx3NQFPIjj0N04HBNbTKQJEEdb+ZmY3B0vyEQOwMIUCf
96vBKN1QQOObuj+zz6LByxOjQFVVX0CLGofBhaK7QIoAk0CloZDBzau8QKQ7PUDMxJ7BI/FMQKBf
RkDzEZPBHteRQDBPeD/jQZDB8cthQFzdoEC4O4PBZU5pQKZpukA6l47Bba9PQAFdhUBSwKPB1xMF
QbF02kCLQZPB6vDtQFnmzkDX94rBLBH7QGyj8kB7/pvBg6ezQGYO80CiPZTBs86SQEhjQ79CXqbB
M1TKQGRHMD8pvK3BiVHUQBbg3b+Ioq3BeZ7CQOlJ20BrlIvB4t2hQLx7CD9G2KjBhJ/PQIRm/0Ao
aJzBfemrQJhm8r9oz6jBpoLjQAAJ4756GrDBoEbTQJMFkT9WgpDBsdCfQMycCEHgObrB/MXOQIuF
A0GnF7fBT1iNQGL/7ED+DXnBjsKrQBPHykDorW/Bunq8QGUXJ0FNd7HB+meRQDt5EEGV6qbBwluT
QElpGkHEL7LBfFvXQF72E0GlIq7BrO6hQEiSy0DVz4PBHQ3aQC3yzL3hhonBCoWIQJEC4T8YTKXB
lBadQNBihkAnZ43BRVufQIaAHUB41JvBqo+DQDq8Y0BXl5bBONe/QMqWDEHtiqTB2tupQC+1uT9v
pZPBmn2FQB/dqkATnIjBsWXyQMvH2z+ePJTBPjhyQKUIkkDTRZ7BnnGdQNOCSMDha6bBTjYFQTgW
lr5hrrTBJ6gVQbfO0ECU65LBhV75QOC0vEBZM4TBS1IIQVpv+0ALYKLBG06SQFX6+0BbpZTB5vNn
QPNMY78JmKLBgv3VQM2Q1j+Nqa/BW6jnQDReJsAzca/B6MWdQPpoDkHshMLB+z6LQMDq9EBGRbnB
nvHRQBoS5kCNHbTBbpPkQBvrBUF75b3B0rBVQPqT60BRonXBdpWXQJZQB0Ek73nBi67LQIwD1EAt
4GnBfvGeQFn2sEBak2XBR2bGQF//LUHCK7nBBmy7QDrCM0HCXKvBmCmDQGKgG0FHHaHB/U5+QKhs
AUEM76bBvMxtQI+3I0EAdrTBU3H5QEmJF0Ft26zB8IP8QMptm75syIjBgmbMQBDooj05i4HB8hzK
QHIwd7+rN43BmNeFQCV3HUAkCazBuK9QQAHhuD9iwqLBvuGiQIlLXEAtMIfBbeO7QIf2kUBwh5DB
aQC9QH//OkAD0Z7B5rZMQJFRRkBKVZPBVqyRQCnvdj9LI5DB3EdkQD6Qn0AH5oLByPdnQEvKuECA
VI7Bm6pSQEeNhUB++KPB

>  <OMEGA_E>  (203) 
GKTsPohI9z4wcfg+KA3rPg==

>  <OMEGA_NBR>  (203) 
     39844

$$$$
50214100
     RDKit          3D

 76 80  0  0  1  0  0  0  0  0999 V2000
    8.5217    6.9385  -18.2076 C   0  0  0  0  0  0  0  0  0  0  0  0
    7.5382    6.5615  -17.2775 C   0  0  0  0  0  0  0  0  0  0  0  0
    8.1548    7.5760  -19.4016 C   0  0  0  0  0  0  0  0  0  0  0  0
    5.8136    7.4503  -18.7386 C   0  0  0  0  0  0  0  0  0  0  0  0
    6.2229    0.6693  -21.6746 C   0  0  0  0  0  0  0  0  0  0  0  0
    4.5163   -0.7784  -20.6936 C   0  0  0  0  0  0  0  0  0  0  0  0
    6.5320   -1.7506  -21.6643 C   0  0  0  0  0  0  0  0  0  0  0  0
    6.1698    6.8563  -17.5123 C   0  0  0  0  0  0  0  0  0  0  0  0
    4.9794    0.5120  -21.0256 C   0  0  0  0  0  0  0  0  0  0  0  0
    6.7946    7.8145  -19.6814 C   0  0  0  0  0  0  0  0  0  0  0  0
    6.9989   -0.4617  -21.9911 C   0  0  0  0  0  0  0  0  0  0  0  0
    5.2892   -1.9082  -21.0187 C   0  0  0  0  0  0  0  0  0  0  0  0
    7.0307    9.4175  -21.5722 C   0  0  0  0  0  0  0  0  0  0  0  0
    6.6508    1.1617  -18.0314 C   0  0  0  0  0  0  0  0  0  0  0  0
    5.2400    8.0381  -14.0428 C   0  0  0  0  0  0  0  0  0  0  0  0
    4.7576    8.6546  -15.3667 C   0  0  0  0  0  0  0  0  0  0  0  0
    6.1916    6.8557  -14.2873 C   0  0  0  0  0  0  0  0  0  0  0  0
    4.8738   10.6138  -21.8776 C   0  0  0  0  0  0  0  0  0  0  0  0
    4.2403    9.4943  -21.0159 C   0  0  0  0  0  0  0  0  0  0  0  0
    4.0772    7.5869  -16.2327 C   0  0  0  0  0  0  0  0  0  0  0  0
    5.5463    5.7970  -15.2122 C   0  0  0  0  0  0  0  0  0  0  0  0
    5.3153    8.5253  -22.9263 C   0  0  0  0  0  0  0  0  0  0  0  0
    5.9851    9.8434  -22.6261 C   0  0  2  0  0  0  0  0  0  0  0  0
    5.0440    8.2459  -21.4721 C   0  0  1  0  0  0  0  0  0  0  0  0
    5.0412    6.4099  -16.5536 C   0  0  0  0  0  0  0  0  0  0  0  0
    6.8913   -0.0436  -17.1270 C   0  0  0  0  0  0  0  0  0  0  0  0
    4.2069    1.7289  -20.5682 C   0  0  0  0  0  0  0  0  0  0  0  0
    4.9650    4.2423  -17.7395 C   0  0  0  0  0  0  0  0  0  0  0  0
    4.9827    2.4430  -19.4414 C   0  0  1  0  0  0  0  0  0  0  0  0
    4.1364    3.5513  -18.8125 C   0  0  2  0  0  0  0  0  0  0  0  0
    6.4120    8.3344  -20.9161 N   0  0  0  0  0  0  0  0  0  0  0  0
    5.3447    1.4634  -18.3980 N   0  0  0  0  0  0  0  0  0  0  0  0
    4.2159    5.4087  -17.2518 N   0  0  0  0  0  0  0  0  0  0  0  0
    7.9697   10.0964  -21.1717 O   0  0  0  0  0  0  0  0  0  0  0  0
    7.6083    1.7470  -18.5263 O   0  0  0  0  0  0  0  0  0  0  0  0
    3.7691    4.5074  -19.8090 O   0  0  0  0  0  0  0  0  0  0  0  0
    8.1979   -0.3097  -22.5971 F   0  0  0  0  0  0  0  0  0  0  0  0
    4.8405   -3.1440  -20.7042 F   0  0  0  0  0  0  0  0  0  0  0  0
    9.5627    6.7370  -18.0025 H   0  0  0  0  0  0  0  0  0  0  0  0
    7.8263    6.0424  -16.3753 H   0  0  0  0  0  0  0  0  0  0  0  0
    8.9137    7.8836  -20.1057 H   0  0  0  0  0  0  0  0  0  0  0  0
    4.7717    7.6295  -18.9595 H   0  0  0  0  0  0  0  0  0  0  0  0
    6.5788    1.6569  -21.9284 H   0  0  0  0  0  0  0  0  0  0  0  0
    3.5686   -0.8991  -20.1900 H   0  0  0  0  0  0  0  0  0  0  0  0
    7.1269   -2.6182  -21.9088 H   0  0  0  0  0  0  0  0  0  0  0  0
    5.7682    8.8080  -13.4612 H   0  0  0  0  0  0  0  0  0  0  0  0
    4.3675    7.6834  -13.4745 H   0  0  0  0  0  0  0  0  0  0  0  0
    4.0396    9.4598  -15.1520 H   0  0  0  0  0  0  0  0  0  0  0  0
    5.6200    9.0677  -15.9104 H   0  0  0  0  0  0  0  0  0  0  0  0
    7.1131    7.2288  -14.7581 H   0  0  0  0  0  0  0  0  0  0  0  0
    6.4363    6.3873  -13.3226 H   0  0  0  0  0  0  0  0  0  0  0  0
    4.1421   11.0429  -22.5780 H   0  0  0  0  0  0  0  0  0  0  0  0
    5.2935   11.4137  -21.2501 H   0  0  0  0  0  0  0  0  0  0  0  0
    4.3789    9.6890  -19.9422 H   0  0  0  0  0  0  0  0  0  0  0  0
    3.1679    9.3809  -21.2326 H   0  0  0  0  0  0  0  0  0  0  0  0
    3.2022    7.1947  -15.6938 H   0  0  0  0  0  0  0  0  0  0  0  0
    3.7504    8.0479  -17.1764 H   0  0  0  0  0  0  0  0  0  0  0  0
    6.2935    5.0217  -15.4371 H   0  0  0  0  0  0  0  0  0  0  0  0
    4.6929    5.3426  -14.6877 H   0  0  0  0  0  0  0  0  0  0  0  0
    4.4016    8.6262  -23.5304 H   0  0  0  0  0  0  0  0  0  0  0  0
    5.9858    7.7903  -23.3955 H   0  0  0  0  0  0  0  0  0  0  0  0
    6.4003   10.3692  -23.4985 H   0  0  0  0  0  0  0  0  0  0  0  0
    4.5269    7.2942  -21.2803 H   0  0  0  0  0  0  0  0  0  0  0  0
    7.9722   -0.2290  -17.0421 H   0  0  0  0  0  0  0  0  0  0  0  0
    6.4745    0.1579  -16.1292 H   0  0  0  0  0  0  0  0  0  0  0  0
    6.4003   -0.9287  -17.5577 H   0  0  0  0  0  0  0  0  0  0  0  0
    4.0750    2.4182  -21.4153 H   0  0  0  0  0  0  0  0  0  0  0  0
    3.2212    1.4166  -20.1928 H   0  0  0  0  0  0  0  0  0  0  0  0
    5.1505    3.5463  -16.9082 H   0  0  0  0  0  0  0  0  0  0  0  0
    5.9251    4.5693  -18.1652 H   0  0  0  0  0  0  0  0  0  0  0  0
    5.8953    2.8869  -19.8656 H   0  0  0  0  0  0  0  0  0  0  0  0
    3.2414    3.1072  -18.3522 H   0  0  0  0  0  0  0  0  0  0  0  0
    4.6034    0.9869  -17.9253 H   0  0  0  0  0  0  0  0  0  0  0  0
    3.5119    5.0866  -16.6189 H   0  0  0  0  0  0  0  0  0  0  0  0
    3.7817    5.8523  -18.0358 H   0  0  0  0  0  0  0  0  0  0  0  0
    3.2513    4.0812  -20.4818 H   0  0  0  0  0  0  0  0  0  0  0  0
  1  2  2  0
  1  3  1  0
  2  8  1  0
  3 10  2  0
  4  8  2  0
  4 10  1  0
  5  9  2  0
  5 11  1  0
  6  9  1  0
  6 12  2  0
  7 11  2  0
  7 12  1  0
  8 25  1  0
  9 27  1  0
 10 31  1  0
 11 37  1  0
 12 38  1  0
 13 23  1  0
 13 31  1  0
 13 34  2  0
 14 26  1  0
 14 32  1  0
 14 35  2  0
 15 16  1  0
 15 17  1  0
 16 20  1  0
 17 21  1  0
 18 19  1  0
 18 23  1  0
 19 24  1  0
 20 25  1  0
 21 25  1  0
 22 23  1  0
 22 24  1  0
 24 31  1  0
 25 33  1  0
 27 29  1  0
 28 30  1  0
 28 33  1  0
 29 30  1  0
 29 32  1  0
 30 36  1  0
  1 39  1  0
  2 40  1  0
  3 41  1  0
  4 42  1  0
  5 43  1  0
  6 44  1  0
  7 45  1  0
 15 46  1  0
 15 47  1  0
 16 48  1  0
 16 49  1  0
 17 50  1  0
 17 51  1  0
 18 52  1  0
 18 53  1  0
 19 54  1  0
 19 55  1  0
 20 56  1  0
 20 57  1  0
 21 58  1  0
 21 59  1  0
 22 60  1  0
 22 61  1  0
 23 62  1  6
 24 63  1  6
 26 64  1  0
 26 65  1  0
 26 66  1  0
 27 67  1  0
 27 68  1  0
 28 69  1  0
 28 70  1  0
 29 71  1  6
 30 72  1  1
 32 73  1  0
 33 74  1  0
 33 75  1  0
 36 76  1  0
M  CHG  1  33   1
M  END
>  <OMEGA_C>  (204) 
2FgIQYoI3kA1qZHB8jjxQHL30UA+OIrB8XkCQVBu8kCJNpvBqAi6QDJp7kCZ6JXBtyHHQAdUKz+p
Za3BiIWQQMFDR7+PjKXB9wXRQOoU4L9/UK3BLG/FQIZm20AjGYzBP1efQHUTAz9pNKjBUW3ZQAAQ
+kBsc53BBvffQGhf7L607a/BxUCpQD5A9L9QJqjBfvvgQOKtFkHhk6zBs9PUQF+zlD9PQJDB7q2n
QPWbAEFhr2DBiD6YQDl5CkET3nXBdyHGQMhh20D2mGTBy/WbQAjSKUFsBa/B67CHQMjoF0GRIKjB
yniCQMTH8kCX3IHBl3uxQBCBuUA0ZXPBkxaqQIdnCEH2aLfB1IW/QGN+HUEwArXB12ihQEnvA0Hf
xqvBiVGhQBYezUC9bYTBu4XcQMBvMr0rBInBjp6GQNZL3T/Gi6TBIOGeQA7Bh0B76o3BAHKfQNlZ
HEDxh5vBPV2EQBZJY0D8f5bB3y7NQMtZBUEYVKfBcQerQK9Ruz8yL5PB7uiGQBgUrUC/A4rBfgf/
QMqKIUGYX6nBgnfzQASe3z/zNZTBODlxQIg8kEDVeJ7BZioDQWaLnr7TxrTBmeWaQN02ScA7oqXB
xAAZQTOV10AJBZDBHXH6QPdawUCUAIPBgp4OQZ5G/ECQ2KDBr7GYQAwl9EANrZfBIIXSQNET1D9S
ba/BiGNkQHAoZr8ahaHB3Q/kQHuQJ8AzRa/Bw5S4QGbtDEH4YFfBWMKLQKXe9UCol1fBJESBQC1b
F0GzbnLBO9ezQHAVEUEIkX7Bl57jQElS50APIWzBkPbNQH9kzEB9KVXBZ4yEQOevMEHVn7TBb2Sp
QLOeNkEjAKrBGiCMQFQGG0GUiZ/Bb75KQFgYFkFN3KnBOvBMQA475kDKGXvB5QVwQDbEAEFVaYnB
mmTJQKKxoEBi/nbBDCyWQGn2qkDXAGvBu9mMQMoECkFKPrzB94u/QIhK+UABKrvB9s7MQBfoJUHz
/LvBV9yQQBNq6UAXPqrBoRz/QNyEar4xVojB2i7PQIi0IT6kCIHBOM/MQLG+bb8YdozBomaCQCfD
GkCNUqvBDChOQNpTtT/ViqHB2NCkQA72YkDtQ4fBuJq9QJU3kkA/UpHBj6a8QLHDOECx7J7BxnNP
QIvcRkBi0ZLB7U6TQGeofD8LZ4/BQsJgQK3FokCZ84TBkwdyQEBGu0BfSZDBhBVQQNCYgkDL2qPB
BHwIQSbS3EDb1pHBRNnxQL7y0EBTR4rBCYUCQV7D8kBWLJvB5sy6QLKW8UADSZXBSHWTQKhrTb/F
oKXBBifHQGLdPz/ubq3B/jPVQLEY07+8sK3B3EfGQEs43ECFzYvBjvufQHI/BD+4IKjB5J3ZQLaq
/EDABJ3BUvqtQDAn8b+KdKjBO8vhQGgOqr6eKrDBYtbiQFxlFEEvxq3BXhjUQBk8kj8GDZDB2kep
QD63/kChs1/BiGaZQBzTCUG2gnTBjl7HQNnT2EBARGTBMe2hQHzTKkHJ9rDBzwiLQDXCHEERhKjB
aUKDQGo88kDwU4HBzDiyQJnwt0BvaXPBvlemQKyPBkGckbbBoP3AQNGiGkFTN7bBTkGfQMGSBkGh
qKrBwhuiQID/zEBrQ4TBHejbQESLpb2XBInBtauFQFbr1z/mL6TBFI2fQPzZiEDrQo7BZ3qeQGEB
G0A0RpvBfKmDQICMYkB3TZbB2PXLQGr+BkFzu6bB9DmqQGZZuj/n1pLB5q2HQIHYrUCgJ4rBrHwD
QYbPG0Gf56zBgKPyQMRr2z9TLZTBvCJsQCSjjkBfX57BW/yhQM9wScB5DKbB6t4DQUTO1r3YB7XB
khcZQU4H1UDgdZDBASz7QPEbv0BZQYPBf4gOQbsM/EDq7qDBRaaZQHOp+UDrqJbBvxVrQAhve78+
jKHBU63QQHwO4T9HZa/BhaDpQCWtHsBPzq/Bbp26QKdgC0G7NFbBQIWNQO8d80DEkFbBjI2CQNug
FkGimHDBvc+0QMykEEHuMX3BdtLkQA/w5EDnw2vB9VjPQLzyyED/ElXBpBmLQNBHMUGS1bbBSGuz
QKwVOEFmLK3ByNiRQHxQIkFjV6DBzHJQQIh9HEGi0KnBoyBPQCUf5UDW/nnBopRwQKzjAEFmu4jB
hc/JQF0Rn0BiaXfBgNWWQPhAqUCBJWvBO6aIQFZXCEHJNbvBOxC4QOD28EBOcbnBhDvOQIPRH0Fv
8r3B0+iLQCw88kDcsafBh2/+QJgMlL5/oojB77bPQAiy6T1L6YDBrjDLQLUOc7/Jb4zB3yt/QJxC
GEDj2qrBmgtOQD0aqT9v/6DBxMGnQKGZZkDnnIfBmw+9QCrXk0CsMZLB1KW7QCb6NkBTvp7BJetP
QCd7RkDUKJLBPZOSQJSPfz+E4o7BjrVhQD8eo0AMO4XBV1N0QCjivED+WpDBBzxJQEwfgECdbaPB

>  <OMEGA_E>  (204) 
NN/GPliuxz4=

>  <OMEGA_NBR>  (204) 
     42565

$$$$
50214102
     RDKit          3D

 75 78  0  0  1  0  0  0  0  0999 V2000
    8.2920    7.9474  -18.2580 C   0  0  0  0  0  0  0  0  0  0  0  0
    7.4837    7.2116  -17.3781 C   0  0  0  0  0  0  0  0  0  0  0  0
    7.7131    8.6934  -19.2958 C   0  0  0  0  0  0  0  0  0  0  0  0
    5.4988    8.0185  -18.5363 C   0  0  0  0  0  0  0  0  0  0  0  0
    5.4516   -0.1337  -21.7010 C   0  0  0  0  0  0  0  0  0  0  0  0
    4.4059   -1.1318  -19.7309 C   0  0  0  0  0  0  0  0  0  0  0  0
    5.8028   -2.4979  -21.1942 C   0  0  0  0  0  0  0  0  0  0  0  0
    6.0713    7.2484  -17.4917 C   0  0  0  0  0  0  0  0  0  0  0  0
    4.6244   -0.0102  -20.5628 C   0  0  0  0  0  0  0  0  0  0  0  0
    6.3053    8.7451  -19.4517 C   0  0  0  0  0  0  0  0  0  0  0  0
    6.0322   -1.3785  -22.0213 C   0  0  0  0  0  0  0  0  0  0  0  0
    4.9932   -2.3734  -20.0465 C   0  0  0  0  0  0  0  0  0  0  0  0
    6.2457   10.6659  -21.0370 C   0  0  0  0  0  0  0  0  0  0  0  0
    6.6032    1.1492  -17.7372 C   0  0  0  0  0  0  0  0  0  0  0  0
    5.5393   11.3207  -22.2322 C   0  0  0  0  0  0  0  0  0  0  0  0
    5.1936   10.2176  -23.2494 C   0  0  0  0  0  0  0  0  0  0  0  0
    5.4176    7.3740  -13.6992 C   0  0  0  0  0  0  0  0  0  0  0  0
    4.7308    8.2295  -14.7804 C   0  0  0  0  0  0  0  0  0  0  0  0
    6.4824    6.4534  -14.3176 C   0  0  0  0  0  0  0  0  0  0  0  0
    4.3319    9.0894  -22.6211 C   0  0  0  0  0  0  0  0  0  0  0  0
    4.0935    7.3305  -15.8609 C   0  0  0  0  0  0  0  0  0  0  0  0
    5.8939    5.5832  -15.4620 C   0  0  0  0  0  0  0  0  0  0  0  0
    4.3881    9.0447  -21.0698 C   0  0  0  0  0  0  0  0  0  0  0  0
    5.1431    6.4128  -16.5677 C   0  0  0  0  0  0  0  0  0  0  0  0
    6.8009    0.3301  -16.4600 C   0  0  0  0  0  0  0  0  0  0  0  0
    4.0010    1.3318  -20.2130 C   0  0  0  0  0  0  0  0  0  0  0  0
    5.1782    4.4168  -18.1001 C   0  0  0  0  0  0  0  0  0  0  0  0
    4.9553    2.2098  -19.3581 C   0  0  1  0  0  0  0  0  0  0  0  0
    4.2657    3.5473  -18.9853 C   0  0  2  0  0  0  0  0  0  0  0  0
    5.7145    9.4602  -20.5295 N   0  0  0  0  0  0  0  0  0  0  0  0
    5.3059    1.4846  -18.1172 N   0  0  0  0  0  0  0  0  0  0  0  0
    4.3676    5.4723  -17.4358 N   0  0  0  0  0  0  0  0  0  0  0  0
    7.1608   11.2761  -20.4920 O   0  0  0  0  0  0  0  0  0  0  0  0
    7.5680    1.3942  -18.4544 O   0  0  0  0  0  0  0  0  0  0  0  0
    3.9424    4.2819  -20.1679 O   0  0  0  0  0  0  0  0  0  0  0  0
    6.8079   -1.4995  -23.1236 F   0  0  0  0  0  0  0  0  0  0  0  0
    4.7768   -3.4454  -19.2493 F   0  0  0  0  0  0  0  0  0  0  0  0
    9.3650    7.9395  -18.1358 H   0  0  0  0  0  0  0  0  0  0  0  0
    7.9425    6.6111  -16.6065 H   0  0  0  0  0  0  0  0  0  0  0  0
    8.3470    9.2339  -19.9832 H   0  0  0  0  0  0  0  0  0  0  0  0
    4.4242    8.0530  -18.6379 H   0  0  0  0  0  0  0  0  0  0  0  0
    5.6398    0.7261  -22.3268 H   0  0  0  0  0  0  0  0  0  0  0  0
    3.7870   -1.0371  -18.8508 H   0  0  0  0  0  0  0  0  0  0  0  0
    6.2476   -3.4508  -21.4402 H   0  0  0  0  0  0  0  0  0  0  0  0
    4.6180   11.8174  -21.8939 H   0  0  0  0  0  0  0  0  0  0  0  0
    6.2054   12.0617  -22.6983 H   0  0  0  0  0  0  0  0  0  0  0  0
    4.6349   10.6673  -24.0834 H   0  0  0  0  0  0  0  0  0  0  0  0
    6.1288    9.7796  -23.6284 H   0  0  0  0  0  0  0  0  0  0  0  0
    5.8988    8.0388  -12.9666 H   0  0  0  0  0  0  0  0  0  0  0  0
    4.6598    6.7580  -13.1930 H   0  0  0  0  0  0  0  0  0  0  0  0
    3.9470    8.8430  -14.3121 H   0  0  0  0  0  0  0  0  0  0  0  0
    5.4780    8.8857  -15.2507 H   0  0  0  0  0  0  0  0  0  0  0  0
    7.2968    7.0719  -14.7227 H   0  0  0  0  0  0  0  0  0  0  0  0
    6.8797    5.7912  -13.5343 H   0  0  0  0  0  0  0  0  0  0  0  0
    3.2859    9.2422  -22.9255 H   0  0  0  0  0  0  0  0  0  0  0  0
    4.6892    8.1240  -23.0086 H   0  0  0  0  0  0  0  0  0  0  0  0
    3.3309    6.6950  -15.3869 H   0  0  0  0  0  0  0  0  0  0  0  0
    3.6178    7.9713  -16.6180 H   0  0  0  0  0  0  0  0  0  0  0  0
    6.7189    5.0348  -15.9402 H   0  0  0  0  0  0  0  0  0  0  0  0
    5.1834    4.8673  -15.0232 H   0  0  0  0  0  0  0  0  0  0  0  0
    3.6179    9.7207  -20.6702 H   0  0  0  0  0  0  0  0  0  0  0  0
    4.1803    8.0161  -20.7398 H   0  0  0  0  0  0  0  0  0  0  0  0
    7.8617    0.0568  -16.3596 H   0  0  0  0  0  0  0  0  0  0  0  0
    6.4925    0.9280  -15.5897 H   0  0  0  0  0  0  0  0  0  0  0  0
    6.1904   -0.5834  -16.5123 H   0  0  0  0  0  0  0  0  0  0  0  0
    3.7642    1.8672  -21.1443 H   0  0  0  0  0  0  0  0  0  0  0  0
    3.0752    1.1564  -19.6453 H   0  0  0  0  0  0  0  0  0  0  0  0
    5.6559    3.7863  -17.3358 H   0  0  0  0  0  0  0  0  0  0  0  0
    5.9526    4.8876  -18.7235 H   0  0  0  0  0  0  0  0  0  0  0  0
    5.8643    2.4234  -19.9396 H   0  0  0  0  0  0  0  0  0  0  0  0
    3.3487    3.3190  -18.4224 H   0  0  0  0  0  0  0  0  0  0  0  0
    4.5591    1.2165  -17.5085 H   0  0  0  0  0  0  0  0  0  0  0  0
    3.6784    5.0225  -16.8678 H   0  0  0  0  0  0  0  0  0  0  0  0
    3.9144    6.0092  -18.1474 H   0  0  0  0  0  0  0  0  0  0  0  0
    3.3791    3.7562  -20.7237 H   0  0  0  0  0  0  0  0  0  0  0  0
  1  2  2  0
  1  3  1  0
  2  8  1  0
  3 10  2  0
  4  8  2  0
  4 10  1  0
  5  9  2  0
  5 11  1  0
  6  9  1  0
  6 12  2  0
  7 11  2  0
  7 12  1  0
  8 24  1  0
  9 26  1  0
 10 30  1  0
 11 36  1  0
 12 37  1  0
 13 15  1  0
 13 30  1  0
 13 33  2  0
 14 25  1  0
 14 31  1  0
 14 34  2  0
 15 16  1  0
 16 20  1  0
 17 18  1  0
 17 19  1  0
 18 21  1  0
 19 22  1  0
 20 23  1  0
 21 24  1  0
 22 24  1  0
 23 30  1  0
 24 32  1  0
 26 28  1  0
 27 29  1  0
 27 32  1  0
 28 29  1  0
 28 31  1  0
 29 35  1  0
  1 38  1  0
  2 39  1  0
  3 40  1  0
  4 41  1  0
  5 42  1  0
  6 43  1  0
  7 44  1  0
 15 45  1  0
 15 46  1  0
 16 47  1  0
 16 48  1  0
 17 49  1  0
 17 50  1  0
 18 51  1  0
 18 52  1  0
 19 53  1  0
 19 54  1  0
 20 55  1  0
 20 56  1  0
 21 57  1  0
 21 58  1  0
 22 59  1  0
 22 60  1  0
 23 61  1  0
 23 62  1  0
 25 63  1  0
 25 64  1  0
 25 65  1  0
 26 66  1  0
 26 67  1  0
 27 68  1  0
 27 69  1  0
 28 70  1  6
 29 71  1  1
 31 72  1  0
 32 73  1  0
 32 74  1  0
 35 75  1  0
M  CHG  1  32   1
M  END
>  <OMEGA_C>  (205) 
8asEQUdR/kBtEJLByXrvQEDF5kBaBovB9NH2QCAYC0HmXZrBZ/avQJ9LAEFoSpTBgnOuQMrzCL6Z
m63B/PyMQFvgkL/U2J3B0rC5QHzdH8DOjanB3EfCQLvy50AU74vBa/uTQGjAJ7yvgKTBasXJQPbr
C0ENnZvBoQfBQNVzsL+bK7DBNcifQAzlF8AvX6DB5NzHQIqnKkG1S6jBpU3TQIUakz+95Y3BCEKx
QJwhNUF227HBEzKmQCB7I0HH/rnBLF2tQB3460C7L1vBEWOXQBOsA0FhfGzBbG/PQEiCzkAMFWXB
pp6KQFFuEUH597TBkP2CQIOT6kAhxn3Blpq8QMepskCAZHfBLGuMQOW2EEELj6jBEpSkQEE1zUCP
ioTBVqHZQNAFqT4broPB+QeAQKh3qj9ItKHBbLOlQGtWjUASzZDBz5GeQJZsDUBY3ZrBnICIQCYG
Y0Dp4ZfB/Ny2QA5dF0FVPKTB48mpQNwIvj/675DBx8OLQLEcr0CZfIvB/yTlQNxqNEG376PBGy3y
QLV1sj+nopPBHVB8QBwFiUDVV6HBitrZQMzuv78I/bjBnduYQP+AXMCl/pnBFdcVQbEQ/kAdFpHB
oij+QDeO00AO2oTBR40FQQS+E0Gi3Z/BzJKNQPDYAEFvGpXB8Hi0QHbiOT9FnbLB2V5yQHi/hL+G
zpbBHezHQKLaXMCEhavBfcaTQBIUPUGiJq/Bu5LGQLL8QEEHlrXBGFGUQCetKkHcqsDBzx7EQB15
HEEGB73BmMK8QNaeAEEyd0/BEB2VQIRB2ECDFlPBD5x8QM98DUFD/mTBgkuvQMgrDkH1AnTBX3/p
QFdN4kA+kGvBNybcQClRuUCejFjBo0xSQC/gE0FmZ7fBMw6WQNP7AUGqEbjBYS1VQKg91kCmMHbB
GIpnQIEU/0Cc8YTB8wDXQCQdoUD5Cn/BQN6lQIvAm0D4XnDB74pnQPGHG0GNXKXBpcSFQA5CAEER
66XBG5P7QJKsaD1+4ILBvsLPQN6PbT9ob3nB5BfGQMNZFb8hGYTBTuhwQN4A7z9+J6nBq9BEQC4G
lD+pKZ3B6vy0QNFSckClr4rBwXu+QCtnnEC0yZXB9ae7QOAYG0BKhJ/BUVBWQDJqVED7YJPBRuSR
QMK2mz+CEYzBO2trQKe4oEAo8YbBVoZ6QEVLwEDdLZHB70JYQC1mcEATyqXB

>  <OMEGA_E>  (205) 
aGQvPw==

>  <OMEGA_NBR>  (205) 
     44105

$$$$
50167950
     RDKit          3D

 64 66  0  0  1  0  0  0  0  0999 V2000
    6.3154    0.6924  -21.7147 C   0  0  0  0  0  0  0  0  0  0  0  0
    4.6731   -0.9449  -20.9401 C   0  0  0  0  0  0  0  0  0  0  0  0
    7.1668    7.4050  -17.8359 C   0  0  0  0  0  0  0  0  0  0  0  0
    6.7762   -1.6850  -21.9263 C   0  0  0  0  0  0  0  0  0  0  0  0
    6.8654    8.5283  -19.9019 C   0  0  0  0  0  0  0  0  0  0  0  0
    5.0722    0.3888  -21.1224 C   0  0  0  0  0  0  0  0  0  0  0  0
    7.7440    8.2564  -18.8827 C   0  0  0  0  0  0  0  0  0  0  0  0
    7.1735   -0.3442  -22.1018 C   0  0  0  0  0  0  0  0  0  0  0  0
    5.5215   -1.9823  -21.3534 C   0  0  0  0  0  0  0  0  0  0  0  0
    5.8421    7.1225  -18.0507 C   0  0  0  0  0  0  0  0  0  0  0  0
    6.5755    1.3116  -17.8912 C   0  0  0  0  0  0  0  0  0  0  0  0
    4.9117    7.4844  -14.3129 C   0  0  0  0  0  0  0  0  0  0  0  0
    4.4147    8.3080  -15.5091 C   0  0  0  0  0  0  0  0  0  0  0  0
    6.0459    6.5467  -14.7358 C   0  0  0  0  0  0  0  0  0  0  0  0
    3.8421    7.3736  -16.5738 C   0  0  0  0  0  0  0  0  0  0  0  0
    5.6163    5.6364  -15.8947 C   0  0  0  0  0  0  0  0  0  0  0  0
    4.9066    6.3870  -17.0842 C   0  0  0  0  0  0  0  0  0  0  0  0
    6.8000    0.3162  -16.7551 C   0  0  0  0  0  0  0  0  0  0  0  0
   10.1184    7.5563  -18.8209 C   0  0  0  0  0  0  0  0  0  0  0  0
    4.1953    1.4923  -20.6419 C   0  0  0  0  0  0  0  0  0  0  0  0
    9.1603    8.7562  -18.8170 C   0  0  0  0  0  0  0  0  0  0  0  0
    4.9133    4.2414  -18.1890 C   0  0  0  0  0  0  0  0  0  0  0  0
    4.9638    2.2936  -19.5894 C   0  0  1  0  0  0  0  0  0  0  0  0
    4.1103    3.4604  -19.1688 C   0  0  2  0  0  0  0  0  0  0  0  0
    5.2984    1.4271  -18.4357 N   0  0  0  0  0  0  0  0  0  0  0  0
    4.1466    5.4209  -17.8524 N   0  0  0  0  0  0  0  0  0  0  0  0
    7.4847    2.0664  -18.2210 O   0  0  0  0  0  0  0  0  0  0  0  0
    3.8353    4.2945  -20.2964 O   0  0  0  0  0  0  0  0  0  0  0  0
    8.3734   -0.0489  -22.6481 F   0  0  0  0  0  0  0  0  0  0  0  0
    5.1312   -3.2645  -21.1923 F   0  0  0  0  0  0  0  0  0  0  0  0
    5.3213    7.7876  -19.5963 S   0  0  0  0  0  0  0  0  0  0  0  0
    6.6047    1.7214  -21.8694 H   0  0  0  0  0  0  0  0  0  0  0  0
    3.7199   -1.1702  -20.4851 H   0  0  0  0  0  0  0  0  0  0  0  0
    7.7257    7.0398  -16.9869 H   0  0  0  0  0  0  0  0  0  0  0  0
    7.4332   -2.4863  -22.2309 H   0  0  0  0  0  0  0  0  0  0  0  0
    7.1006    9.1207  -20.7738 H   0  0  0  0  0  0  0  0  0  0  0  0
    5.2793    8.1668  -13.5324 H   0  0  0  0  0  0  0  0  0  0  0  0
    4.0785    6.8868  -13.9148 H   0  0  0  0  0  0  0  0  0  0  0  0
    3.6318    9.0043  -15.1740 H   0  0  0  0  0  0  0  0  0  0  0  0
    5.2539    8.8775  -15.9352 H   0  0  0  0  0  0  0  0  0  0  0  0
    6.9087    7.1497  -15.0551 H   0  0  0  0  0  0  0  0  0  0  0  0
    6.3328    5.9219  -13.8771 H   0  0  0  0  0  0  0  0  0  0  0  0
    3.0061    6.8056  -16.1397 H   0  0  0  0  0  0  0  0  0  0  0  0
    3.4767    7.9752  -17.4192 H   0  0  0  0  0  0  0  0  0  0  0  0
    6.5128    5.1362  -16.2897 H   0  0  0  0  0  0  0  0  0  0  0  0
    4.9197    4.8823  -15.4995 H   0  0  0  0  0  0  0  0  0  0  0  0
    7.8229    0.4276  -16.3661 H   0  0  0  0  0  0  0  0  0  0  0  0
    6.0779    0.5114  -15.9487 H   0  0  0  0  0  0  0  0  0  0  0  0
    6.6608   -0.7078  -17.1321 H   0  0  0  0  0  0  0  0  0  0  0  0
   11.1569    7.9156  -18.7729 H   0  0  0  0  0  0  0  0  0  0  0  0
    9.9105    6.9185  -17.9491 H   0  0  0  0  0  0  0  0  0  0  0  0
    9.9738    6.9749  -19.7434 H   0  0  0  0  0  0  0  0  0  0  0  0
    3.9259    2.1467  -21.4840 H   0  0  0  0  0  0  0  0  0  0  0  0
    3.2811    1.0734  -20.1959 H   0  0  0  0  0  0  0  0  0  0  0  0
    9.3662    9.3945  -19.6888 H   0  0  0  0  0  0  0  0  0  0  0  0
    9.3029    9.3382  -17.8945 H   0  0  0  0  0  0  0  0  0  0  0  0
    5.0956    3.6399  -17.2863 H   0  0  0  0  0  0  0  0  0  0  0  0
    5.8753    4.5321  -18.6363 H   0  0  0  0  0  0  0  0  0  0  0  0
    5.8919    2.6726  -20.0423 H   0  0  0  0  0  0  0  0  0  0  0  0
    3.1811    3.1010  -18.7026 H   0  0  0  0  0  0  0  0  0  0  0  0
    4.5620    0.8918  -18.0220 H   0  0  0  0  0  0  0  0  0  0  0  0
    3.3504    5.1415  -17.3156 H   0  0  0  0  0  0  0  0  0  0  0  0
    3.8414    5.8557  -18.6996 H   0  0  0  0  0  0  0  0  0  0  0  0
    3.3224    3.8093  -20.9321 H   0  0  0  0  0  0  0  0  0  0  0  0
  1  6  2  0
  1  8  1  0
  2  6  1  0
  2  9  2  0
  3  7  1  0
  3 10  2  0
  4  8  2  0
  4  9  1  0
  5  7  2  0
  5 31  1  0
  6 20  1  0
  7 21  1  0
  8 29  1  0
  9 30  1  0
 10 17  1  0
 10 31  1  0
 11 18  1  0
 11 25  1  0
 11 27  2  0
 12 13  1  0
 12 14  1  0
 13 15  1  0
 14 16  1  0
 15 17  1  0
 16 17  1  0
 17 26  1  0
 19 21  1  0
 20 23  1  0
 22 24  1  0
 22 26  1  0
 23 24  1  0
 23 25  1  0
 24 28  1  0
  1 32  1  0
  2 33  1  0
  3 34  1  0
  4 35  1  0
  5 36  1  0
 12 37  1  0
 12 38  1  0
 13 39  1  0
 13 40  1  0
 14 41  1  0
 14 42  1  0
 15 43  1  0
 15 44  1  0
 16 45  1  0
 16 46  1  0
 18 47  1  0
 18 48  1  0
 18 49  1  0
 19 50  1  0
 19 51  1  0
 19 52  1  0
 20 53  1  0
 20 54  1  0
 21 55  1  0
 21 56  1  0
 22 57  1  0
 22 58  1  0
 23 59  1  6
 24 60  1  1
 25 61  1  0
 26 62  1  0
 26 63  1  0
 28 64  1  0
M  CHG  1  26   1
M  END
>  <OMEGA_C>  (206) 
YhfKQC5CMT/At63BMYqVQCTkcb9chafBqFblQKb17EDer47BiNbYQHev178maa/BirHbQPpzCEEi
N5/BdE+iQIAOxz6T+qjBwM73QGUaBEGwD5fBZI3lQOQ/sL6M0LDBy6+wQKm6/b/L06rBRPK6QB3r
40DmZ5DBUmrSQAzipz85IY/BviydQFaA70CtAWXBe0WNQMXtBEFNJXjB7nfBQKZ+0UDJxWvBUuR1
QMb060A3l4TBU7izQHZdtECDUH7B7AKdQE1izEBerIjB7pnZQDTjoT54CobBw+QhQU7N8UAikZbB
2z+GQMgCvz+JIqXBiZASQU0ZDEEqiZbBtjmdQJm5h0ARg5HBpNeeQOzKEkAdt5zBvIeDQFJ3XUDJ
WZnB04ypQHSrtj9LfJPBkbCEQMN3rUCv0Y7BsILvQD5ABECjxJHB2nR1QC9siUAIX6LBWPkFQYAs
SL1cL7XBkzKkQHXtUMDaianBY0iqQAw0+UAsxZzB+VnTQMJV3D9+9K7BiBNuQG7Jlb9j4aPB3Tj3
QF9G4UAw5YfBq9ztQGgfH8De2LHB9TfjQGnuEUG+MKbBHfCoQBGrAkGChFjBxYKCQGpg3EDlol7B
nW9oQHUREEGGyHLB8h+oQD8KDkFq9n7BOhTdQDrK5ECZ4XDBdKbKQDiAvUC9CF7BM2RAQErH2UAD
HoHBSoJeQJg0/0CMWovB2mjQQCBcpEA/UYLBeW6dQGg7nEAi/nfBMlX6QDvz2j7B7YLB9H3CQDzr
Aj+0LX/BQSXVQGsxNb94DonByIIyQTlM/UDzLpbBfJEeQUBk3UC+l4/B2pQfQR4y30Bz8p3BA0J7
QGxjCUAx36vBqf1RQM1miT9IkaHBFtwVQQ5QFkGogp3BuNgUQSBpFUHzJ4/B3w6jQK3zaEBCSorB
PQK8QI8GkUA+F5XBPIq8QIAMK0CQVqDBQ5dLQJJ3RkDTnpXB8vuRQNZPZD8ELZDBGm1WQGmHpEBg
horBOtp1QCBiu0DSmJXB7aFUQPPLc0DvdKfBAZmVQHg+Xr+g4KjBe4TPQDr4Mj+w2azB1r/nQEwG
40AeMY/BrznaQEor2L9laK/BMCHjQDDLBEHueZ/BVWulQAyP4z7PTanBDBP+QGK6+kAOoZfBpdCv
QKJx978DEKzB9h7qQDB9vb72va/BfDy8QJAR4kC8n5DBpTTTQGjCrD8SQ4/BOJWcQP5S9kBSy2bB
twyOQH9zB0HJzHrB3Vq/QCCu1UDoeWzBNqN1QBLG70Anh4XB7sSvQJDOtkCt2H3Bq8CbQEbQzUDg
8IjB68vaQCC9nz6MgIbBGusbQSIDEEE1wo3B+HWJQG4GyT9vzKXBjMUWQaAzAUGYO5fBLTubQCTC
h0C8IpHBpPSfQET7FUAj3JzBHbCCQGXoXEBLLpnBGr2qQJr3tz/94ZPBFC6DQHxwrkDP4o7BwZzv
QFumCUAWdZHB72lwQMyMiUDeA6LBVPqfQDsaTMBM/6vBW1sJQahAAr7O7bLBG12uQDym+0BQsZzB
LtRqQNIxh7+GHKbBhTDbQB9f2z+TVa3Bx9r3QGPn00AkjIjBF4vuQEDcIMBSt7HBI0rtQJa7DUGj
a6bBpmepQCqRBkGeBVvBRfmAQExx5UCz3l/BPJ5rQNlfE0E4QHbBGrqpQKmaD0F3/4DBQc/bQETG
5kD4VHLBRL/HQGdLw0D6EF7BQiE+QGCy30AM54HBxdpgQB7kAEH4oIzBkybLQAmBo0C2n4HBrFiX
QJqzoUCG03bB2xr7QFNm4j4JK4PBPu/CQH9S4z6aHoDB/M7XQBSvMr9q6InBCUUtQUDiEkGvbI3B
mIMTQc5VH0G2zI7BSqYWQUxrCEEBRYbBRWiDQFaDD0CVmazBjcZVQBMLlj8Z0qLBHScfQVG640AY
M5bBagQcQavHCEHMup7Bii6fQM31aUAhwonBMuS6QIgVkECrXpTBp4K9QE48MkCuFKDB/mxLQEbC
QUBkg5XBI46TQIBHWj8J9pDB2ZZSQI2gpkB2m4rB7iR0QJh/u0BT05XB+RxRQDJZc0CnLqfBiLWR
QCkwVr9IPqrBWtDRQLtBDT+7qqvBaujlQP786kAI2JDBNhrWQCpW678zGK/BvovRQCPzB0G9mqDB
nKSlQLjo1T47g6nBqt/yQPx4A0EvwpnBXtKpQEAF+7/dKK3BEB7qQO2QFL+TR67BeKG6QMa74kAp
2JDBzmrPQLBKsj+afY7BxjyqQPQj7ECYnmTBSvGUQLdrA0FwR3bBwmfNQJSfz0BwBG7ByWl/QMc9
6UDwRoPB3nm7QAlSskArg3/BBl2gQK6YykCub4jBDFzVQHy+nD6XDIbBYOERQQhDHUF9laPBUmOL
QBIizj9rg6bBMP8PQTAXDEHJxprBKoGdQPbihkBjgpHBHP+gQMZ3FkAbTp3B2neEQNgrX0AmypnB
uEWpQFKptj9+QpTBFL+FQJsBrEBdJI7BOJztQJTnB0BRxZDBx0p4QNPei0BQhaLBAjuWQJ8ISsBt
M67Bl0gKQUIR6b7kErDBvIKiQHBw+EBtSJzB5+dfQEJmb78KkajBs9DgQHkHwz9STavBMuH7QCph
3kB794rBwbDoQLlxLcAANLHB6mjUQPKMEUGcwKfBqGe4QL/gAEGyq1jBwO+RQMXj10Av5lzBlDV5
QPDuDUFTIG/BJlOtQKs1DUFbXH7BvpHmQNv840Dt7XTByB3bQEvUu0DyLWHBlNlNQKdD1kAMa37B
17BhQAzI/EBslYnBLnLWQJxookCGxoPBSvKmQBAcmkAC6HfB71v2QD6lrD4o/4LBpd6+QHrP8z7W
1X7BdR/PQEq4Lb/EpYnB8n4iQZIAI0ERA6TBk0YNQXNMFkG/VKvBMjUHQYy8KkGhsaHBKZKIQOYM
EkBtcq3BWaJWQJUipD+XAqTBU8AUQfk0E0FHFpPBtdEaQcGJ/UBluZzB2wyjQEGMY0AVm4rBgG28
QDzukECX4ZTBUoy/QFXnMEBqKqDBkDNNQLj4RUAdXJbBBhKSQOonSj9CLJLBJwJcQKWaokAhUonB
4upyQEdQukDhmpTBdFBYQEB7ekC22afB3LZuQHbUOb/fM6/BFHy1QN6zI78yb6PBeo7nQOCv5UCI
B4zBbXaxQKLLFcD0T7HBm5LgQJkdCEG9n5vB9ZeNQFjm0L3utabBQdv8QMkIAEEzP5TB1FKJQDAy
679fgrTBuXTHQLyx3r8/wKjBOa67QAca5ED2UI3BulLWQDKZ3j/lUo/BSdubQHwZ6UBja1/B3WuK
QD23AkG7m3HBQ/++QPrUykA2smfBAi5xQB6c6UDi+IHBLDuvQJmJr0Ce13rBEeSaQGC7ykDGrIbB
KgzlQN3bkz9bpoTBUEccQaPBFkGkGo3B6qdxQJYKiz94AKHBIUsWQds3BEEKopTBNGWeQPkojECX
CJPBDXWZQGZAB0AhYpzB5wuDQHQXXkAqO5rBG52rQP44yj8TU5LBF5GDQH0MrkBLOY7BfQbvQFGT
G0C2lZTBMMR3QKeqhEDbJaTBTB9oQFADG8AfsbzBffPtQKnLDcClk6XB71msQLyTAEE+sJjB9Oww
QHwSs77Uo7HB/T3GQKvUSL4Ww5zBLXT4QL1f1UD1sIXBbk+/QAXkS8ClbbXBap/pQA7lEUHiYKLB
BE+pQDCu/UAi01LBtH+BQBLz1UCmwVjBG1lhQHXvDEH9UGvBAnCkQHrRDEHxz3fBuaXaQFUG3kDv
2GzBfbnIQPxOtUCJpVrBOHQ7QCuA1kBMxn3BqTtaQGvD/kD9ZIjBRKrKQE2/nUAVroDBkgaXQOzU
mEA6+nTBvCEDQToXuz/tE4PB9zvQQDhIwz8wZ3zBtD3jQHQCaz0M+4TBnaItQY2SGUHWe43BBcAT
QYNUJUHnlY/BWbkXQSyfEkHr24TB3CpIQNH4zT8ZwKbBlaRKQGw8Mz8bXJrB/+IeQcRi60DoIpLB
q+kaQblmCEHk3JzBx+GsQHe4cUCFoIzBxs+3QBcEm0CQ25fB6yazQO8WEUBbRaLBC8hIQPefUUBj
MpbBVDOYQGHciT8OZo3B+j1XQDgKoECXPIrBeytvQBr8v0AZIpTB2gZWQMA/ZkC4s6jBAUuSQGEn
eb58tbPBIfLHQJ8For6YjqXBCrnpQN095kABao3BqVnSQApxz79yy7XBoHDoQPmRA0G0fZ7Bm9Gg
QMT1Rj7wlKnBfxABQce++kBmIZbBTgerQCmckr+mzLnB3rvgQPUnmr8XqavBtDi+QNEg5UB0YY/B
nA/UQJNU1T+tKI3BFnOXQMTi/UDJ3mXBXo+JQMxVCkGSl3rBFzW6QCw63ECdemrBZ5xxQJj580Ad
iYXBoKqrQD26u0BCvnvB6MqaQA1P0UAkYYjBWajfQB68ST/rk4PBkuYeQWcLFUFLvo/BJc+EQPO3
kj8VC6PBhBcZQXWnAEEtAZbBWUaeQISLi0ATKJLBFwWfQDWaCUDnFZzBuPqDQJNOWUDAIJnB6bas
QA+Tuz97KpLBrNqDQE/JsEAL+Y7BbrbuQKV0HECyzJDBSYZuQDnTgkAhnKLBCwadQCRHx78Vf8PB
9SwDQR051L90t6fB/QCzQJN7+0DT8JvByTtoQDoD6z3Uy7bB987SQGo1nbwLtZ3B8k/4QLR42UAK
Q4bB3GnlQCFpE8A7f7rBUfPzQAgYC0Gat6XBmzGkQJbdCkG+mVrBywN3QOX37UCBtl7BMwpgQKPb
FUHE3HbBbCilQH/fEkEytIDBAz3XQFaf7ECdH3DBDWHBQFrQykAUnFvBq9I4QI8D5EAYM4LBZcRf
QDCRAkFo44zBehLHQD47p0DX3H/Bn9yRQGrzp0BA/3TBh2cAQXeZfj+jH4HBF+HJQN8VgT89yXnB
hp7cQPDuir5x0oXBnl8wQQgoF0E0vY/BTVAXQRj5IkG/jpPBeCkZQTmVE0HYdIfBrS9hQOxB3D8u
l6jB3MpgQBAhDD+/tZ3Bq78gQV+P5UD6LJLBgOYeQY8rAkHhRp7BHDipQKFQdUC874rBSiq6QM/O
lkBEupbBckK7QBpiHkDYpqDByWdPQKxUREARl5TBPmWYQE6nUD+c1I7BANBVQKMEpkBgv4rBQady
QMsfv0B9n5XBQOhNQHJqYEDZBafB

>  <OMEGA_E>  (206) 
SD8MPyRABT9ewRA/YD1mP8BERT8=

>  <OMEGA_NBR>  (206) 
      5433

$$$$
50167971
     RDKit          3D

 60 62  0  0  1  0  0  0  0  0999 V2000
    6.5994   10.0934  -21.8483 C   0  0  0  0  0  0  0  0  0  0  0  0
    6.6421    9.3251  -20.9093 C   0  0  0  0  0  0  0  0  0  0  0  0
    5.5517    7.7832  -19.1581 C   0  0  0  0  0  0  0  0  0  0  0  0
    4.7265   -0.9296  -21.1198 C   0  0  0  0  0  0  0  0  0  0  0  0
    6.4711    0.7164  -21.5897 C   0  0  0  0  0  0  0  0  0  0  0  0
    6.9220   -1.6536  -21.8959 C   0  0  0  0  0  0  0  0  0  0  0  0
    7.8918    8.1618  -19.1412 C   0  0  0  0  0  0  0  0  0  0  0  0
    6.7145    8.4416  -19.7873 C   0  0  0  0  0  0  0  0  0  0  0  0
    5.1624    0.4051  -21.1561 C   0  0  0  0  0  0  0  0  0  0  0  0
    5.6029   -1.9574  -21.4994 C   0  0  0  0  0  0  0  0  0  0  0  0
    7.3576   -0.3144  -21.9318 C   0  0  0  0  0  0  0  0  0  0  0  0
    5.8830    7.0931  -18.0084 C   0  0  0  0  0  0  0  0  0  0  0  0
    6.7022    1.4665  -18.0103 C   0  0  0  0  0  0  0  0  0  0  0  0
    4.8589    7.5052  -14.3259 C   0  0  0  0  0  0  0  0  0  0  0  0
    4.3245    8.3161  -15.5162 C   0  0  0  0  0  0  0  0  0  0  0  0
    5.9990    6.5805  -14.7666 C   0  0  0  0  0  0  0  0  0  0  0  0
    3.7834    7.3779  -16.5919 C   0  0  0  0  0  0  0  0  0  0  0  0
    5.5331    5.6398  -15.8826 C   0  0  0  0  0  0  0  0  0  0  0  0
    4.8626    6.3910  -17.0857 C   0  0  0  0  0  0  0  0  0  0  0  0
    7.0593    0.4684  -16.9120 C   0  0  0  0  0  0  0  0  0  0  0  0
    4.2393    1.4913  -20.6942 C   0  0  0  0  0  0  0  0  0  0  0  0
    4.8318    4.2339  -18.1864 C   0  0  0  0  0  0  0  0  0  0  0  0
    4.9491    2.3311  -19.6289 C   0  0  1  0  0  0  0  0  0  0  0  0
    4.0139    3.4039  -19.1243 C   0  0  2  0  0  0  0  0  0  0  0  0
    5.4039    1.4674  -18.5150 N   0  0  0  0  0  0  0  0  0  0  0  0
    4.0911    5.4321  -17.8649 N   0  0  0  0  0  0  0  0  0  0  0  0
    7.5204    2.3190  -18.3406 O   0  0  0  0  0  0  0  0  0  0  0  0
    3.5702    4.2194  -20.2109 O   0  0  0  0  0  0  0  0  0  0  0  0
    5.1780   -3.2385  -21.4715 F   0  0  0  0  0  0  0  0  0  0  0  0
    8.6286   -0.0167  -22.2827 F   0  0  0  0  0  0  0  0  0  0  0  0
    7.6192    7.1543  -17.7509 S   0  0  0  0  0  0  0  0  0  0  0  0
    6.5621   10.7643  -22.6681 H   0  0  0  0  0  0  0  0  0  0  0  0
    4.5486    7.8357  -19.5550 H   0  0  0  0  0  0  0  0  0  0  0  0
    3.7214   -1.1637  -20.8012 H   0  0  0  0  0  0  0  0  0  0  0  0
    6.7877    1.7468  -21.6574 H   0  0  0  0  0  0  0  0  0  0  0  0
    7.5987   -2.4486  -22.1723 H   0  0  0  0  0  0  0  0  0  0  0  0
    8.8609    8.5205  -19.4551 H   0  0  0  0  0  0  0  0  0  0  0  0
    5.2324    8.1971  -13.5566 H   0  0  0  0  0  0  0  0  0  0  0  0
    4.0428    6.8978  -13.9077 H   0  0  0  0  0  0  0  0  0  0  0  0
    3.5166    8.9782  -15.1715 H   0  0  0  0  0  0  0  0  0  0  0  0
    5.1398    8.9217  -15.9387 H   0  0  0  0  0  0  0  0  0  0  0  0
    6.8368    7.1907  -15.1350 H   0  0  0  0  0  0  0  0  0  0  0  0
    6.3319    5.9823  -13.9056 H   0  0  0  0  0  0  0  0  0  0  0  0
    2.9414    6.8058  -16.1750 H   0  0  0  0  0  0  0  0  0  0  0  0
    3.4326    7.9781  -17.4444 H   0  0  0  0  0  0  0  0  0  0  0  0
    6.4054    5.0855  -16.2591 H   0  0  0  0  0  0  0  0  0  0  0  0
    4.8032    4.9328  -15.4616 H   0  0  0  0  0  0  0  0  0  0  0  0
    8.0766    0.6727  -16.5468 H   0  0  0  0  0  0  0  0  0  0  0  0
    6.3450    0.5664  -16.0812 H   0  0  0  0  0  0  0  0  0  0  0  0
    7.0134   -0.5536  -17.3163 H   0  0  0  0  0  0  0  0  0  0  0  0
    3.9671    2.1309  -21.5467 H   0  0  0  0  0  0  0  0  0  0  0  0
    3.3299    1.0446  -20.2658 H   0  0  0  0  0  0  0  0  0  0  0  0
    5.0327    3.6646  -17.2668 H   0  0  0  0  0  0  0  0  0  0  0  0
    5.7843    4.5045  -18.6655 H   0  0  0  0  0  0  0  0  0  0  0  0
    5.8233    2.8132  -20.0908 H   0  0  0  0  0  0  0  0  0  0  0  0
    3.1657    2.9483  -18.5924 H   0  0  0  0  0  0  0  0  0  0  0  0
    4.7383    0.8471  -18.0999 H   0  0  0  0  0  0  0  0  0  0  0  0
    3.2809    5.1735  -17.3388 H   0  0  0  0  0  0  0  0  0  0  0  0
    3.8086    5.8699  -18.7184 H   0  0  0  0  0  0  0  0  0  0  0  0
    3.0502    3.6954  -20.8089 H   0  0  0  0  0  0  0  0  0  0  0  0
  1  2  3  0
  2  8  1  0
  3  8  1  0
  3 12  2  0
  4  9  2  0
  4 10  1  0
  5  9  1  0
  5 11  2  0
  6 10  2  0
  6 11  1  0
  7  8  2  0
  7 31  1  0
  9 21  1  0
 10 29  1  0
 11 30  1  0
 12 19  1  0
 12 31  1  0
 13 20  1  0
 13 25  1  0
 13 27  2  0
 14 15  1  0
 14 16  1  0
 15 17  1  0
 16 18  1  0
 17 19  1  0
 18 19  1  0
 19 26  1  0
 21 23  1  0
 22 24  1  0
 22 26  1  0
 23 24  1  0
 23 25  1  0
 24 28  1  0
  1 32  1  0
  3 33  1  0
  4 34  1  0
  5 35  1  0
  6 36  1  0
  7 37  1  0
 14 38  1  0
 14 39  1  0
 15 40  1  0
 15 41  1  0
 16 42  1  0
 16 43  1  0
 17 44  1  0
 17 45  1  0
 18 46  1  0
 18 47  1  0
 20 48  1  0
 20 49  1  0
 20 50  1  0
 21 51  1  0
 21 52  1  0
 22 53  1  0
 22 54  1  0
 23 55  1  6
 24 56  1  1
 25 57  1  0
 26 58  1  0
 26 59  1  0
 28 60  1  0
M  CHG  1  26   1
M  END
>  <OMEGA_C>  (207) 
9S3TQLp+IUFGya7B54vUQMgzFUE/RqfBQaexQJ8P+UDQQ5nBbj+XQFr7bb9e9ajBJxPPQKxnNz+s
t6zBq4DdQHKp07/JKq/BfYn8QPCWAkEvIZnBz9zWQPgQB0F4TJ7BTTKlQERuzz6jP6nBUEuzQJiM
+r/S/qvBrXHrQIj4oL5CdK/BX0G8QK/64kAcEZDBI3jWQOi0uz8OFZDBHHybQOEq8EAGN2XBXmKK
QLIOBUFdQnjBr/e/QMKT0kDRQ2zBCiNyQO8X7EA/vITBYw+xQIV5tED4Hn7BkJqbQAmDzECRr4jB
veXhQOTO7z68S4fBUKiHQGjhvj+7jaXBTZ6aQFF8h0CufZHBU1+eQHgwFUALCJ3BFXKAQOzYWUCK
/pjB3OysQJzTuz+pHpTBWOqCQMzTrUA/647BvabwQNJqFECNuZLB6n1kQCsFh0Dfr6HBMbKlQJZD
T8COxavBog4KQQDBiLzhQrLBsdDzQC7w5EDMAY7BZ/zRQHs6LEFdWLXBKI6RQL+9+kCbcJzBKCxu
QGjzlL/qaKbBqjTZQMeV3z9YQq3B4CjzQGm1HMDaYLHBccYNQdZTCEH9o5vBa2+nQFknA0Ho51jB
d16BQF+63ED4hV7BkA9hQMemD0FnvnLBFXmkQGC/DkETBX/BT8faQCka5kDSKHLBhp7KQNduv0A8
fV7BGUA8QHPJ2UBzZoHB/q5bQEFM/0ApjovBSPnMQHG8okC1EoLBmrOZQFDZnUCSYnfBqDkBQXU2
LD/DX4TBQwrLQGIAET9SpoDBum3gQDC3Db/eh4rBfOR9QPlfCEC0X6zBLx1VQAy2hT9eIKLBDwyh
QCyJakB8IorBwhi5QDElkEAIU5XBmVi6QOoLNEACuqDBD5pKQGqxPEA0vZTBkKCXQDrdWD+UzJDB
jPpRQH2NpUDltYrBPMBzQFzWu0BHv5XBmTZDQP2BbECTeKbBSKrTQHAxIkGE0q7BemzVQJT1FUHi
SqfBB3myQMkG+kDFiJnBK/bJQPL0WT9cSK7BhuKcQNokcr85TKfBQCThQEUPu7+Szq/BORv9QN6K
A0Fw85jB+8XXQPbUB0GbUZ7B91CkQJyC1z6DFKnBQK/oQJCls70JerHBjwK7QEKt8b+h0arBCny8
QP/040BUTZDBtJfVQDTWtT/6v4/B1NmWQEM080DCnWbBMSOHQPgSBkGzRnrBkFO8QEfT1UBmjmzB
ECxvQFEW7UAZtIXByWGvQLWztkDCVn7BFzKbQMqizUCmGonBTc7gQEi54z5Hy4bBMnaFQAAbtz/T
2KTBJVScQOtsiEB52pHBLUKdQMcxEkBLm5zB7oGAQOirWEBJnpjB79qrQAq8tz/1oZPBPr2DQGs0
rkBzUo/BtRXwQIgnEECLnJLB4rtgQIXJhEBCZ6HBh6kGQXgLqj47I7bBHUazQBMMTcAwYKnBo83z
QBNg5kDg7I3BKiHSQDrgLEHBZbXBg6qSQBBP+0AA5pzBKBPPQFqH8z9nzK/BySyAQIp9or97PqPB
X5X4QJMRDMBhWbLBrhYOQXCHCUG0Q5vB1mihQHr+BEFrSFrBgNV4QDyt30DnT2DB105ZQB6qEEHo
jnXB5pWhQIK7D0HvXIDBElXXQAl66UAgHXLBthPGQBV7w0A0WV7BbsY4QLu52kAuhYLBY2BaQAVx
/0CLv4zBcwfMQGsqpUA9zYHBjtaXQG/9n0BL13fBjsUAQWV3JD89+YPBiTTKQJT0Ej+UIIDBb77e
QP0BFr/g0onBc4NzQNM2BEBhaKvBGnpUQGspbD9/BqHBLVelQEEzb0CddYrB1mO5QIlVkUCSSpbB
ZEa5QKkcL0AuhaDBSqpMQGizPUDNy5PBaGqWQGDIVT+UI5DB2OZTQANLpUBnJIvBbvV0QM/gu0Cs
LJbBaVU9QLtYZkDovKXB/zkqQV9m+kDOSZXBlOgWQe1Z+0BwMZbB81noQHPu4kCVj47BSs+UQL3D
Y7+Rv6nBzLfQQIFaKD8z6avBDmbaQKLU2r/aoK/BNLHmQPbiBUFoh57B6CoAQZ8y+kA9v5bBy6Wl
QK6D0T6oF6nBQhGvQFIO+b8MH63BQD/rQOr3z75Q9q7BK/u8QNs640CeQZDBtDjUQEJdrT/pa4/B
jyKaQN2a9EDXTWbBylaMQMoBB0HwL3rBC0q9QOdg1EAg+WvBfD10QFeZ70DZh4XBcXKuQBg7tkBB
zX3B4YWbQL8bzkBT8IjBYfjcQPa3mT6R3YbBdzuJQARnwz++g6XBEzSbQJQ4iECVUpHB7oqfQKQ8
FUDauJzBWg6CQIHqW0CTEpnBdzCrQMr2uD+ss5PBJXKDQJM3r0BsM4/BQB/wQFXqCkAYq5HBMNds
QEEniEBL+6HBvYCeQA/6S8AwAK7BpmkKQaToMb5SRrHBPwaxQDdn/0AaHJzBiBs7QYuR+UBlf5TB
6Ej3QPMX00Ch2YfBZpdnQC+Qib9VqqfBJindQJob1T/PtqvBHLHuQP3dIcDuD7LBZBryQKpID0Hh
MaXB7FemQAZ4BUF2JVrBdqJ8QNtM40Da3V/BdmdnQK25EkFOo3XBHzioQKdvD0G2bIDB1eLZQAzU
5UBGYHHB0jbFQMlrwUDQrl3BlSY8QDAQ30BYL4LBrsNgQKogAUGxlYzBjgDKQNP+okAchYHBcZaV
QLv9oECzSHfBpoj9QO4t3j4ms4PBEKrFQKaz0T4zVIDBEQLaQBvtM7+aZorBM0mCQOLZC0CEWKzB
3URWQAROjj/yYaLBzbufQE+EbEAA14nBVZq6QPskkECJxZTB4MK8QArtMUBuEqDBd0pLQDWtQEAA
JpXBoDWUQI10YD/qfJDBx55RQGKjp0A7MYvBPjV3QJmpvEDSMJbBjMpMQC5cb0Dg9KbBxgcoQey2
A0FDYZfB6qgUQWmhAkEiq5fBiKPnQMTX5UCncY/BuuvMQLBqLj/dgK3BlfGWQGwWbr8mo6fB8l/a
QO5A2r9OOa/BPynfQIg0CkE3Qp7BufT7QP+LAEGnfpfBNmukQHyAyz6aD6nBGgnoQDDxvb4rgLDB
8sCxQPqb/b/O0arBUcO7QFTC5UDlC5DBm73RQCEfqz8S4Y7BXwahQDJa6kAEzWPBjgGOQNYwA0Gr
n3XBuoPFQKLQzkAulmzBFiR3QFBf6kBau4PBl2O1QIK2skAs637B/8idQNqPzEBJjojB543ZQLBY
cT7Ko4bBhRWIQGufwT+6g6XBsxWdQAdLiEDnwpHBj0efQL6jE0D405zBo/KCQB7ZXECKVZnBN5ip
QKX0tT9jrZPBakqFQEehrkChDI/B5LLvQGKoAkC1yJHB3LtvQHSsiEAgRKLBQHwHQdA3yb0XrLTB
ElSkQNJnUMDdp6nB1NuqQJ7sAkHf3ZrB1fQ4QWqpBEG3IJfBsWb5QMCX00BsmonBb//WQKtK2j9B
l67BizpwQFzrkb/EHKTBkQrvQLwZIcAVn7HBnKLnQPzKFEH7v6TBT2qtQA4I/0Dl+VbBN+CHQMNl
1UCcVF3BA8JoQBY3DUHG6G7BokSnQPh8DUFGRXzBazXfQJPB40BtgnLB7QTSQJVNukD8uF/BsvxC
QHLD1kDcbYDBB8xdQEwo/0CQForBRvXQQKwYokArBYPBB/CeQIIFm0A8VHjBa4L7QN5sbj4AUoTB
D6XFQCUQ1z56EX/BNiDRQIM4Pb9BIYrBteuAQIbgCkD+VqzBbiRUQBM+jT8zSaLBhXWjQIM6a0CJ
eYrBB5e7QBUikUAzjpXBGhO9QGi5LUB0MaDBdXVMQBX9Q0D6TZXBCi2SQGq0WD9awJDB1ytWQGUZ
pkC6+4rBkmx5QN5PvUCL05XB3U9OQDghcUCSLKfBYDcjQfieD0GDm5rBiKcQQWykCkEjMpnBzIjm
QL9e7UBW7Y7BwhaPQBmsrL4Gb7PBZ/zCQPX/4r7q5KTBCNDLQHKK77+bgbTBM73UQGjyC0FT+53B
An71QCvkBEE1kZfBfJ+dQN7iBT5OZanB3yymQAOJqr8V+rjB3iLaQHJotr9Rc6rBOJu6QO956EAI
3I7BGGPRQC4Y0T/BNI3B0suoQK7G7ECFFGHBnsiQQJV4A0HULHLBxhvMQJ490UC1VGvBQjd6QCAg
6UDBm4HBTCm6QD8QtEDoRH3BnWOfQP/fzEAMRIfBRZrZQMPcTD+1KYPBBViDQEjylz/xdaPBdROi
QOZEjUAoUZPB0BGfQD+FCkDwoZzBnGuGQJBLXkC1KZrBfCqqQOzNvz/+a5LBHyOHQGn0rUC9C47B
gUHuQO67FEDt65DB32R3QIL4hEDn16PBHDWYQI2/4r8rmcLBSSH+QBgp+L98DqbBlamjQFUtAkHb
mpnBYGwzQdL3E0EK15vBNqX7QDkJ3kDxQonBa1lkQCBMjT2637bBlsLNQMrz+L1QGZ3BfKHdQF0P
KMDbyrjBmOjYQBo5FkFr2aTBCmi3QLdpAUHCd1XBevGRQOO910BtzFjBwixuQKiuDEGGcGrB21Cn
QFGFDkH193nBtJXkQJ555kCqNHLBb7baQHsPvUBZ5V7BOz5LQO8P1EAHaXvBNs1ZQCDU/EDhq4fB
STPVQNtJpECZqILBGHelQJi2m0D343XBv8v6QB4jcz9OfYDB/IDDQLGyjj+vlXnBKWnUQJsSh75J
+oTBytBiQJxM4z/IY6nB9olZQDYzLD+bG57BytOyQBDpdECnK43BDa65QPVFnUC8eZjB6GG8QCYy
GkDhF6HB1HpSQFkmTkCarJXB8gyUQOSVaT+nCY/BaaNjQK7unkDxaInBRYpvQAFzvkA7uZPBGSVV
QAbGZUCPM6jB

>  <OMEGA_E>  (207) 
qNSVPijcpz78JQs/bBAPP3bsUz8=

>  <OMEGA_NBR>  (207) 
     10610

$$$$
50167937
     RDKit          3D

 67 69  0  0  1  0  0  0  0  0999 V2000
    5.7437    7.3646  -19.4224 C   0  0  0  0  0  0  0  0  0  0  0  0
    6.5080    0.6905  -21.6739 C   0  0  0  0  0  0  0  0  0  0  0  0
    4.8137   -0.9398  -21.0069 C   0  0  0  0  0  0  0  0  0  0  0  0
    6.9795   -1.6948  -21.8385 C   0  0  0  0  0  0  0  0  0  0  0  0
    7.2892    7.1839  -17.5538 C   0  0  0  0  0  0  0  0  0  0  0  0
    8.1006    7.9303  -19.6264 C   0  0  0  0  0  0  0  0  0  0  0  0
    5.9809    7.0316  -18.0665 C   0  0  0  0  0  0  0  0  0  0  0  0
    6.8237    7.8283  -20.2065 C   0  0  0  0  0  0  0  0  0  0  0  0
    5.2211    0.3990  -21.1711 C   0  0  0  0  0  0  0  0  0  0  0  0
    7.3889   -0.3558  -21.9978 C   0  0  0  0  0  0  0  0  0  0  0  0
    5.6902   -1.9855  -21.3480 C   0  0  0  0  0  0  0  0  0  0  0  0
    6.6187    1.3868  -17.9956 C   0  0  0  0  0  0  0  0  0  0  0  0
    4.2088    7.4025  -16.1559 C   0  0  0  0  0  0  0  0  0  0  0  0
    5.0776    6.2283  -15.6833 C   0  0  0  0  0  0  0  0  0  0  0  0
    4.8567    6.4807  -17.1886 C   0  0  0  0  0  0  0  0  0  0  0  0
    6.9223    0.2935  -16.9759 C   0  0  0  0  0  0  0  0  0  0  0  0
    7.4504   10.6761  -20.9684 C   0  0  0  0  0  0  0  0  0  0  0  0
    4.9822   10.1770  -21.1838 C   0  0  0  0  0  0  0  0  0  0  0  0
    6.4594   10.2274  -23.2229 C   0  0  0  0  0  0  0  0  0  0  0  0
    6.6376    8.2968  -21.6327 C   0  0  0  0  0  0  0  0  0  0  0  0
    4.3013    1.5206  -20.7570 C   0  0  0  0  0  0  0  0  0  0  0  0
    4.7294    4.2457  -18.0855 C   0  0  0  0  0  0  0  0  0  0  0  0
    4.9640    2.3519  -19.6434 C   0  0  1  0  0  0  0  0  0  0  0  0
    4.0119    3.4380  -19.1518 C   0  0  2  0  0  0  0  0  0  0  0  0
    6.3884    9.8353  -21.7315 C   0  0  0  0  0  0  0  0  0  0  0  0
    8.2960    7.6249  -18.3333 N   0  0  0  0  0  0  0  0  0  0  0  0
    5.3389    1.4587  -18.5320 N   0  0  0  0  0  0  0  0  0  0  0  0
    4.0104    5.4976  -17.8501 N   0  0  0  0  0  0  0  0  0  0  0  0
    9.4241    7.7645  -17.8480 O   0  0  0  0  0  0  0  0  0  0  0  0
    7.4715    2.2298  -18.2544 O   0  0  0  0  0  0  0  0  0  0  0  0
    3.6724    4.2909  -20.2469 O   0  0  0  0  0  0  0  0  0  0  0  0
    8.6257   -0.0742  -22.4657 F   0  0  0  0  0  0  0  0  0  0  0  0
    5.2952   -3.2695  -21.1991 F   0  0  0  0  0  0  0  0  0  0  0  0
    4.7564    7.2660  -19.8489 H   0  0  0  0  0  0  0  0  0  0  0  0
    6.8152    1.7169  -21.8096 H   0  0  0  0  0  0  0  0  0  0  0  0
    3.8303   -1.1626  -20.6198 H   0  0  0  0  0  0  0  0  0  0  0  0
    7.6540   -2.4990  -22.0926 H   0  0  0  0  0  0  0  0  0  0  0  0
    7.4853    6.9427  -16.5195 H   0  0  0  0  0  0  0  0  0  0  0  0
    8.9349    8.2585  -20.2286 H   0  0  0  0  0  0  0  0  0  0  0  0
    3.1198    7.3757  -16.0031 H   0  0  0  0  0  0  0  0  0  0  0  0
    4.5703    8.4347  -16.0384 H   0  0  0  0  0  0  0  0  0  0  0  0
    6.0623    6.4181  -15.2313 H   0  0  0  0  0  0  0  0  0  0  0  0
    4.6118    5.3591  -15.1959 H   0  0  0  0  0  0  0  0  0  0  0  0
    7.9426    0.4270  -16.5873 H   0  0  0  0  0  0  0  0  0  0  0  0
    6.2028    0.3562  -16.1462 H   0  0  0  0  0  0  0  0  0  0  0  0
    6.8400   -0.6913  -17.4590 H   0  0  0  0  0  0  0  0  0  0  0  0
    8.4530   10.4378  -21.3532 H   0  0  0  0  0  0  0  0  0  0  0  0
    7.2459   11.7467  -21.1166 H   0  0  0  0  0  0  0  0  0  0  0  0
    7.4037   10.4389  -19.8953 H   0  0  0  0  0  0  0  0  0  0  0  0
    4.2255    9.5852  -21.7197 H   0  0  0  0  0  0  0  0  0  0  0  0
    4.9396    9.9407  -20.1103 H   0  0  0  0  0  0  0  0  0  0  0  0
    4.7817   11.2484  -21.3316 H   0  0  0  0  0  0  0  0  0  0  0  0
    5.7171    9.6473  -23.7909 H   0  0  0  0  0  0  0  0  0  0  0  0
    6.2456   11.3011  -23.3302 H   0  0  0  0  0  0  0  0  0  0  0  0
    7.4664   10.0135  -23.6106 H   0  0  0  0  0  0  0  0  0  0  0  0
    7.5431    8.0490  -22.2059 H   0  0  0  0  0  0  0  0  0  0  0  0
    5.7739    7.7713  -22.0663 H   0  0  0  0  0  0  0  0  0  0  0  0
    4.0991    2.1665  -21.6242 H   0  0  0  0  0  0  0  0  0  0  0  0
    3.3557    1.0994  -20.3852 H   0  0  0  0  0  0  0  0  0  0  0  0
    4.7692    3.6655  -17.1518 H   0  0  0  0  0  0  0  0  0  0  0  0
    5.7525    4.4691  -18.4223 H   0  0  0  0  0  0  0  0  0  0  0  0
    5.8670    2.8297  -20.0512 H   0  0  0  0  0  0  0  0  0  0  0  0
    3.1126    2.9728  -18.7218 H   0  0  0  0  0  0  0  0  0  0  0  0
    4.6309    0.8703  -18.1414 H   0  0  0  0  0  0  0  0  0  0  0  0
    3.2150    5.3122  -17.2732 H   0  0  0  0  0  0  0  0  0  0  0  0
    3.7065    5.8681  -18.7278 H   0  0  0  0  0  0  0  0  0  0  0  0
    3.2232    3.7861  -20.9147 H   0  0  0  0  0  0  0  0  0  0  0  0
  1  7  2  0
  1  8  1  0
  2  9  2  0
  2 10  1  0
  3  9  1  0
  3 11  2  0
  4 10  2  0
  4 11  1  0
  5  7  1  0
  5 26  2  0
  6  8  2  0
  6 26  1  0
  7 15  1  0
  8 20  1  0
  9 21  1  0
 10 32  1  0
 11 33  1  0
 12 16  1  0
 12 27  1  0
 12 30  2  0
 13 14  1  0
 13 15  1  0
 14 15  1  0
 15 28  1  0
 17 25  1  0
 18 25  1  0
 19 25  1  0
 20 25  1  0
 21 23  1  0
 22 24  1  0
 22 28  1  0
 23 24  1  0
 23 27  1  0
 24 31  1  0
 26 29  1  0
  1 34  1  0
  2 35  1  0
  3 36  1  0
  4 37  1  0
  5 38  1  0
  6 39  1  0
 13 40  1  0
 13 41  1  0
 14 42  1  0
 14 43  1  0
 16 44  1  0
 16 45  1  0
 16 46  1  0
 17 47  1  0
 17 48  1  0
 17 49  1  0
 18 50  1  0
 18 51  1  0
 18 52  1  0
 19 53  1  0
 19 54  1  0
 19 55  1  0
 20 56  1  0
 20 57  1  0
 21 58  1  0
 21 59  1  0
 22 60  1  0
 22 61  1  0
 23 62  1  6
 24 63  1  1
 27 64  1  0
 28 65  1  0
 28 66  1  0
 31 67  1  0
M  CHG  3  26   1  28   1  29  -1
M  END
>  <OMEGA_C>  (208) 
xcy3QNCq60AfYZvBRkHQQBrEMD8tZK3BmAmaQDaZcL8LDqjBsVffQOrt2L9Vta7ByEDpQJXi5UA2
bozBCpwBQUPF/UDpAp3BPWO/QAgD4UAdiJDBqFvaQF+B+kDcpqHBWBOnQBRQzD5xXqnB/nHsQD0t
tr56+6/B5xW2QHYm/r+tyKrBUMzTQGSBsT/u9o/Bwa6GQOTg7EBPP4HBx3uiQExOx0DV7nrB22mb
QIVhz0AngonBNoPdQIhJlj64zofBymnuQBrRKkFZv6fBC26fQAjVIkFWeKnBdLPOQGqjI0GSyLnB
L2fUQIi/BEHDD63BjKSJQDmjwj9nDqbBdleXQADdh0Air5DB19ieQN+FFkC7JZ3BKGGAQKIHXED7
NpnBd23MQDBdHUES2q3BU7wEQSP/80CLqpLBgdiqQDe1uj90QZTBjVWAQAzsr0AXzY7BSckWQaN2
+EC7yI7BHxbvQPu0DkDzCJLBDwhrQBJPiUCY+aHBqgIKQYjvl73JubPBbXKpQCo/UcDGl6nBmjSY
QM6C6EB+yp7BfxbaQFnE2z8Ieq7BCCR1QF3PlL9Y9aTB7O30QKXvH8CRvbDBbIfvQGAq3kAAKITB
cPUOQfsiBEEa1KHBWqtHQJMF7EBDBoDBC0CSQIL0BkGvToDBaP7BQGFhzUBIs3PBCpSTQPB9q0Bx
InPB4Sn+QFaj2j6zsoTBo33GQAVgtj5iK4HBGOHaQAj5ML8CrIvBgj8HQRkBJ0FR06rBC97nQFHy
O0HJ7qjBR+vsQMMFJ0GaKZ/BtDeHQNtcGUHxwa3BzhCeQAkNH0Hg4aDBkwOZQJf5M0EPp6rB4fK2
QGlbGkG5U77B+9vHQDDRNEFIpLrBf+zuQGM3IEGC4rzBUGHxQKbIAEHIpbHBAMS4QNqu+EDIh7DB
IyyDQO6nCkBQ/qzBesNWQK+3jD/SFKPBaJ2YQGyXakD5NonBhxS4QO4Cj0DTYJPBeL67QCkZNUDn
aKDB9jRHQFtCPkAvxpXBtDCUQAPJXj+SIZHBTMJNQOz9qUBxL4rB8TdtQE3Hu0Cg0pXBiklOQCBP
ckA4UafBz7S3QFul60B9TJvB74LQQBQXLT9deq3BOECZQAHja78WLKjBdibeQCvh278Nxq7BbVfp
QNBp5kBNYIzByW4BQTm7/kCi+JzBAn6/QMQS4UANdJDBgADaQN3w+kDcl6HB+BmnQMOE0T6igKnB
UxPsQKcqxr4EDbDB6rK0QDnu/b+o3arBPK/RQMmrtD9NQY/B5d6GQLRw7EC7HYHBueqiQPr7xkDE
vnrBQbObQG4jz0CRZ4nBZobbQN54dz7i0IfBw/3MQA1HI0Ex87nBVfjrQPYcK0Ek5afB2VadQN5L
IkHxtqnBP8TTQIG4BEF1C63B0UWKQLopxj8DQ6bBFrqXQDK7h0CQo5DBzFmfQCHHFkBnM53B9y2B
QNwsXUCfW5nBfbHKQMk3HUGW/K3BBa8EQTHR9EBYo5LBhxKqQIUPuT+7TpTB2qWAQBKtr0BKsY7B
Pd0WQTN/+EAB247B1jnuQAbeDEBNmZHB2B9vQB55ikCdGKLB5O0JQd7TBL6xxLPBG0ynQE6jUMAG
qanB8yCYQKcU6EDmsZ7BlAHbQBEn2T+3iq7BC0FzQOj+j79IF6XBgELzQNQ7IsCByrDBisTvQIvS
3kAIGoTBNa0OQRXgBEH6yaHBjxNIQB5g60CLwH/BfkKSQIfDBkGGKYDBQWzCQFQzzUC8iXPBijOU
QGQMq0A793LBTWb9QGLbjT7TcIXB9TjHQNFFnj7CpYDBxwnVQNd0NL++/ovB/Le1QKurGUG6er7B
YHzFQNddNEF857rBN2rtQOAdIEE3/bzBaBHrQKAjJ0FHU5/BSBUGQR/lJ0FCEavBuTzkQBclPEGH
+6jB4HCbQIkFHkH7MKHBo8aWQNV6M0HPrarBCI2FQBgAGUEjPa7BSfHwQDr9AEHImbHBkYi4QGPg
90ACe7DBhtOEQAYeDUAzMK3BzfZWQAGykj9IdqPBIIKYQLxVaUBqPonB06O4QGv6jkDjLZPB8Mi8
QBFxNEA5SqDBYKlHQFAxQEDYHpbBpXKTQMaHUD+hwZHBC5hOQN6YqUCdDYrBc4NtQHmau0AusZXB
LuBSQNqcdUCjkafBH5arQPRD8EDXpJnBS+7LQKWcFD8r/a3Bdv2YQP/ogr/qiabBZgjcQG3Z5r8q
Wa7B8BXiQIOW6EBb54vBqKX0QNDTA0FWWJzBj5q3QMYz4kAZW4/BmRPKQLB3AkGlG6DB6ZmkQNBU
nT7c5ajBo6/nQApe8r6xqLDBB5m0QAT8BMADVqnBwMjYQNs2vj9R0pDBSA2BQAzp5kBtPH/B24yg
QNxaw0A4yXjBHv+WQBVOzEApQIjBaLbkQJrhBT8m14fB8ES6QLArKEEYqLjBZCoBQbBEG0EOwrLB
UmzTQFicMUHQPqbBuqe8QKDrCkF0CKvB6u2HQBb5uD//iaXBPoWYQDxGh0C6zpDBYGCfQK9eFUCX
X53BVzaBQE+RWkAOOJnB577TQBTMH0ES7K7BNQ3/QAr3+kBgZpLB47muQODsvz8IbpTBrP57QFHJ
q0CywY3BdZQRQXaTAUEK6Y7BuDzzQP4KE0DfDZTBpXpqQBu+iEBw2aHBmbQGQXpcVL5Sf7XBHlCp
QJWzVsC3L6fBYmSLQD0760DChZzBIrTUQFK4zD9l1a/BkvN1QLmZnb/+l6LBRFbxQP1DJ8B2a7DB
tnLrQH+g3kDo94PBsZ8GQV0SCkF2jKHB4DQ9QMnp4kCjOHzB9+WJQF5YBEFvBH3BIvW/QKmpy0DV
AnLBm6mUQLfipUAJN3HB6/gCQXUVNT+gV4XBvirPQA7nLT+r/oDBfZ7hQC43A7/KtIrBnhuZQJyM
K0GUPLbBzjvJQPPtNkGbp7vBk1a6QIP+G0G3Ar/BgrsKQZdCFUGYAqzB/OAAQQg1D0FJKrnBmlMI
QXckKkEtz7XB6VrlQCUjLEFIL5/BhnriQP8mQEG7eKnBbzOyQM0nNUGL8KPBIvfCQMiX/EBa9bDB
YRqaQNA6DkEvvarBHs5+QB3mAkBPmazBMFNVQPIohT854KHBLKeeQLNiZkCdvonBpRu3QAXGkkAp
FJTBw8K6QCcWNEAZWqHBwLJJQEdVPEBkoZXBX5SZQIpJaD9QvZDBwk1NQAitoUBu54jBJU5iQP6Z
uECoWJTBzDVNQHAzcUA3JqfBdxq1QFl1AUHjL5bBy+rLQHyuQD+PNa7BLMacQME/dr8DyqbB3N7f
QDl/zL+QYa/Bq9nlQPxZ1UBDLIzB+jkBQdddBEFi35fBWri7QFEm4kBlqI7BwTPZQLoADEHiYJrB
AsylQJiVyT5T46jBzQfpQAr0dr4xYrHBvrm5QG+C+r9LGKrBOXzXQFjrwT+hWZDBh/Z8QE6060AU
qIDBWG+bQEUox0A7HHnBFIOWQElfz0BDj4jBVaDjQKjA8z6j8IfBcvXXQOUfNEHJ4LHBssWiQOlD
FkEAea/BoM7xQIUeDkGCNbHB1MzUQDHUIEE5caDBfIuHQOLduz++HaXBjfKWQPKEiUAhwJDB9mie
QN7gF0C++JzBJep/QKxxXUDcEJnBHmDQQJcHHkGnrqzBld4DQVZm6EBN3ZDB7mCtQCqVxj9565PB
J+R7QBEWsED7k47BFxkWQeH730DTpY3BzG/zQNVPDUBfcZTB1c1oQEdKiUBo6KHBAOUGQZB+3j3o
V7bBTAGxQAOHUMDcJqjBsTKVQBzVBUGbr5jB1bbSQMhW5T+U16/B33F/QHw4nr/Ep6LBQBf2QJk1
F8Dn5bHBiwnrQPP/u0AlcobBaw0PQbKMC0Htm5vBfv42QLYe6UAU3H/BJC+IQKeeBkGMD3/BAs+5
QEyazkAmCHHBHR+NQLV7qkCu1HHBnjcDQZII/z6BpIbByRzTQJ9jND/+YoDBKRPaQH4SBr/yuYrB
smH4QGjAOUFV7K/BcZnUQLXBMkF1nLrBhEnAQGCbP0GDza7BXyadQG2GBkF9y6vBIjGLQITMIUHJ
ZqzBEIGfQNnyFEG7NbjBSOPsQHeH/EB4l63BlRDuQK/zDEGN8LnBdxsJQcrYE0HiT6/BnzK4QHMz
KUFpep3BfljxQFifKkHA2Z7BwSR6QASGBECu/qvBEw1XQNs5gD+sT6HBXY+aQKPQbUAGVonBX7u2
QOyUkkAxx5PBd/q5QE5DNkAQ6aDBUPVGQDO0P0BAeJXB7t+XQPUIfD+oG5DBQ/lHQLQKqEC5WorB
+OlpQLIdvUDch5XBLvVLQGk7cUD+I6fBGuStQMWL/UDIUpfBnC3OQM7PLz/WZq7Bsa6ZQPIXZ7/l
cqfBM8/cQElm2r8CDa/BswLlQMgA30C77ovBsIz4QI4dCUFOzpjBqoa5QDj/4kC5wI7BV5XNQAN2
C0H0IpzB5zCmQO0o2T45manB5HLpQBCywb6UH7HBxOy0QAjM+78TNqrB6qrWQHkktj/pzpDBjA5+
QB006UCWKoDB7R2eQFcvxkDndXjBCjOXQOWrzUAuNIjBtW/gQNmtxT45MojBV5q2QJbRI0E4y7fB
+O/UQB4jAEEhb7LBp54AQdUAIkGxnLDB+8vAQJ1JHEHERKTBgbyJQBaTyD80RKbBGkuZQADpiEAL
7JDBLiCgQLp2GUAZjp3Bbe+BQGlpXkBdYZnBBrjTQEJWGEEfn6/BJ5kBQX+29UBiJJHBrSCtQNBq
wT8etJTBac19QGqfrUAvBI7B4YwUQeH68UAudI7BPmDyQMZuDkD5eJPBLMxrQGntikAv9aHBENoH
QZSsAL7Av7XB+MuoQIJVT8BPMKjBxUGNQF5y/kCMKJrBwtLXQF822j9C/K/BbHV2QCMEjb/Ir6PB
D7PxQCGVIcAbLLHBaDfuQHuYyUBUjYXBVpMIQfXXEkEbb5zB5aA4QNwW5UDNRH7Bt1uHQKGXBUFb
Zn7BMKe8QN0mz0Dk8HDB7JuRQHgOqUBVz3DBa8MAQRkHBD9hYYXB3z3KQGqxBD/IcoHBSJPcQHWv
H796jIvB6lu1QEEBNUEp7LXBDo7DQNuTIUE85r/BtieWQNgLHUGwYbfBeo/pQChi70Dur6zBmlq0
QDEM80DBC7LB8sDhQDYc/EBNkLrBlF8LQQ4dGkHN3qrB3qUGQYOCH0EHybjBsvn/QOo/M0G84q7B
ea+dQPFvHEFj46TBPgXMQML1K0F2aaHBZyCDQIMtDUCUPK3B7upWQImclT+yGqPB6uGeQH21aUCP
04nB0Ca4QJ4LlECtHJTBwY28QHw+OECWCaHBzylLQAn/P0Cgz5XBfbCWQN9UcD89TZHBKXNNQBeW
o0A0aonBQ2tmQPjWukCnsJTBUHlOQAjhdUA3SKfB0iHQQJRRBkEryYrB3LHOQEgeGD9seq3B496V
QBj6br+o4qfBKBDZQA8k6L/M3q7BmRW9QOH66EDGTJvBgmbrQIZzEkG735vBXcW5QC/h60DW9I/B
joLpQBh6FEEEoZDBbEalQMexwD6cVKnBiKfoQJhdAL//L7DBqqWvQMXEAcDYu6rB7cLRQJd6mj/b
oI/BAV2GQAY34UB1vH7BU5qrQKwVwkAcgXvBiFadQFlRzkDbMInBnCXXQIKyDz5hAYfBWvYjQVLz
LUEPsIHBCJEbQe5bB0GezYXBhfMHQb8RG0FW0W3BFO4AQVzlJUH2wYrBtRKKQHKhxT9lDqbBNCed
QMpJiEC5JZHBJIegQMEVFEDvBp3B5iqEQFLKXEBuOJnBa7IRQcA9HUEwXILBiCTVQHvQAkHa56DB
v3OpQLLbsj9sDpTBoKSEQM/MrkBO9Y7BEjTVQK1bAkEw0arByObvQJZp+D/P35HBnDJyQKAsiUCe
EaLBOD0IQX0mlr5YEbTBzI+gQLAvUsDUfqnBEL7NQJ8FCEFrNYLBf2jaQOfxzD8nka7BkK5sQAJo
jL8NmaTBz93sQBcDKsBNCLHBbF2sQAfUz0D6f5/BJrL+QN5tHUHee6DBDgpLQCgj10Aj53rBhVqK
QPKhAUHgvnrBIFXKQFnIzUDDOHXBoX+lQJ6noUAGYXXBuNv3QKDyPD5NxoPBfAnAQPAhpD6shoDB
CGvRQC52Wr9Nf4rBHVYdQVKFPUEoiX7BItsvQSiyKEGhg3fBGKsrQdt+L0HDj4nBaNcOQQp+9kBq
VIbBDFEjQZ4aCUHhp43BFoEnQetNAkHbs3/BGL31QHZMD0F2F27BX20UQTy2FUGDnmLBs7EBQc6r
KkFjmmjBM4gJQdiaL0GUtJDB8pbqQKL+L0HYgIbB5FaFQPh6DUCP9KzBha5VQJcwlz8VOKPBwG2h
QKp4a0DjvonBG6u8QD7MkECGcJTB5ri+QO+hLkDDGaDBiJNOQFJvQkDyapXBB/qQQESaYT/H+JDB
pgpWQDD1pkDElYrBgzh2QB9+u0CR55XBJMBSQG4SckC6K6fB

>  <OMEGA_E>  (208) 
SCKGPphJhD6Q0qw+EMnWPri34z5gqjM/

>  <OMEGA_NBR>  (208) 
     17294

$$$$
50167975
     RDKit          3D

 66 68  0  0  1  0  0  0  0  0999 V2000
    5.7873    7.4072  -19.3792 C   0  0  0  0  0  0  0  0  0  0  0  0
    6.5169    0.6897  -21.6394 C   0  0  0  0  0  0  0  0  0  0  0  0
    4.8340   -0.9504  -20.9678 C   0  0  0  0  0  0  0  0  0  0  0  0
    7.0061   -1.6924  -21.7947 C   0  0  0  0  0  0  0  0  0  0  0  0
    7.2693    7.2749  -17.4581 C   0  0  0  0  0  0  0  0  0  0  0  0
    8.1311    8.0431  -19.4891 C   0  0  0  0  0  0  0  0  0  0  0  0
    5.9843    7.0832  -18.0182 C   0  0  0  0  0  0  0  0  0  0  0  0
    6.8802    7.8978  -20.1217 C   0  0  0  0  0  0  0  0  0  0  0  0
    5.2308    0.3907  -21.1382 C   0  0  0  0  0  0  0  0  0  0  0  0
    7.4076   -0.3512  -21.9540 C   0  0  0  0  0  0  0  0  0  0  0  0
    5.7181   -1.9908  -21.3054 C   0  0  0  0  0  0  0  0  0  0  0  0
    6.6233    1.3434  -18.0080 C   0  0  0  0  0  0  0  0  0  0  0  0
    4.1413    7.4176  -16.1725 C   0  0  0  0  0  0  0  0  0  0  0  0
    5.0054    6.2499  -15.6753 C   0  0  0  0  0  0  0  0  0  0  0  0
    4.8375    6.5090  -17.1853 C   0  0  0  0  0  0  0  0  0  0  0  0
    6.9011    0.2910  -16.9390 C   0  0  0  0  0  0  0  0  0  0  0  0
    7.4351   10.7485  -20.9903 C   0  0  0  0  0  0  0  0  0  0  0  0
    4.9851   10.1495  -21.1785 C   0  0  0  0  0  0  0  0  0  0  0  0
    6.4504   10.1872  -23.2252 C   0  0  0  0  0  0  0  0  0  0  0  0
    6.7273    8.3264  -21.5672 C   0  0  0  0  0  0  0  0  0  0  0  0
    4.3012    1.5067  -20.7302 C   0  0  0  0  0  0  0  0  0  0  0  0
    4.7435    4.2785  -18.1078 C   0  0  0  0  0  0  0  0  0  0  0  0
    4.9580    2.3493  -19.6214 C   0  0  1  0  0  0  0  0  0  0  0  0
    4.0072    3.4402  -19.1388 C   0  0  2  0  0  0  0  0  0  0  0  0
    6.4035    9.8454  -21.7197 C   0  0  0  0  0  0  0  0  0  0  0  0
    8.3049    7.7423  -18.1870 N   0  0  0  0  0  0  0  0  0  0  0  0
    5.3286    1.4700  -18.4968 N   0  0  0  0  0  0  0  0  0  0  0  0
    4.0180    5.5289  -17.8860 N   0  0  0  0  0  0  0  0  0  0  0  0
    7.5124    2.1212  -18.3385 O   0  0  0  0  0  0  0  0  0  0  0  0
    3.6363    4.2644  -20.2454 O   0  0  0  0  0  0  0  0  0  0  0  0
    8.6491   -0.0626  -22.4050 F   0  0  0  0  0  0  0  0  0  0  0  0
    5.3334   -3.2771  -21.1503 F   0  0  0  0  0  0  0  0  0  0  0  0
    4.8192    7.2816  -19.8411 H   0  0  0  0  0  0  0  0  0  0  0  0
    6.8159    1.7178  -21.7810 H   0  0  0  0  0  0  0  0  0  0  0  0
    3.8528   -1.1791  -20.5786 H   0  0  0  0  0  0  0  0  0  0  0  0
    7.6858   -2.4927  -22.0477 H   0  0  0  0  0  0  0  0  0  0  0  0
    7.4264    7.0402  -16.4157 H   0  0  0  0  0  0  0  0  0  0  0  0
    8.9719    8.4047  -20.0625 H   0  0  0  0  0  0  0  0  0  0  0  0
    3.0478    7.3779  -16.0603 H   0  0  0  0  0  0  0  0  0  0  0  0
    4.4866    8.4530  -16.0358 H   0  0  0  0  0  0  0  0  0  0  0  0
    5.9706    6.4477  -15.1861 H   0  0  0  0  0  0  0  0  0  0  0  0
    4.5318    5.3726  -15.2106 H   0  0  0  0  0  0  0  0  0  0  0  0
    7.9398    0.3875  -16.5900 H   0  0  0  0  0  0  0  0  0  0  0  0
    6.2147    0.4386  -16.0923 H   0  0  0  0  0  0  0  0  0  0  0  0
    6.7489   -0.7121  -17.3639 H   0  0  0  0  0  0  0  0  0  0  0  0
    8.4445   10.5354  -21.3721 H   0  0  0  0  0  0  0  0  0  0  0  0
    7.1901   11.8054  -21.1720 H   0  0  0  0  0  0  0  0  0  0  0  0
    7.4014   10.5448  -19.9099 H   0  0  0  0  0  0  0  0  0  0  0  0
    4.2513    9.5116  -21.6928 H   0  0  0  0  0  0  0  0  0  0  0  0
    4.9537    9.9464  -20.0979 H   0  0  0  0  0  0  0  0  0  0  0  0
    4.7425   11.2070  -21.3600 H   0  0  0  0  0  0  0  0  0  0  0  0
    5.7271    9.5598  -23.7668 H   0  0  0  0  0  0  0  0  0  0  0  0
    6.1954   11.2476  -23.3684 H   0  0  0  0  0  0  0  0  0  0  0  0
    7.4623    9.9978  -23.6127 H   0  0  0  0  0  0  0  0  0  0  0  0
    7.6669    8.1129  -22.0978 H   0  0  0  0  0  0  0  0  0  0  0  0
    5.9101    7.7462  -22.0206 H   0  0  0  0  0  0  0  0  0  0  0  0
    4.0931    2.1461  -21.6008 H   0  0  0  0  0  0  0  0  0  0  0  0
    3.3593    1.0796  -20.3555 H   0  0  0  0  0  0  0  0  0  0  0  0
    4.8100    3.7208  -17.1620 H   0  0  0  0  0  0  0  0  0  0  0  0
    5.7564    4.5025  -18.4734 H   0  0  0  0  0  0  0  0  0  0  0  0
    5.8628    2.8231  -20.0299 H   0  0  0  0  0  0  0  0  0  0  0  0
    3.1215    2.9794  -18.6770 H   0  0  0  0  0  0  0  0  0  0  0  0
    4.6061    0.9337  -18.0606 H   0  0  0  0  0  0  0  0  0  0  0  0
    3.2025    5.3382  -17.3396 H   0  0  0  0  0  0  0  0  0  0  0  0
    3.7456    5.9071  -18.7707 H   0  0  0  0  0  0  0  0  0  0  0  0
    3.1758    3.7407  -20.8905 H   0  0  0  0  0  0  0  0  0  0  0  0
  1  7  2  0
  1  8  1  0
  2  9  2  0
  2 10  1  0
  3  9  1  0
  3 11  2  0
  4 10  2  0
  4 11  1  0
  5  7  1  0
  5 26  2  0
  6  8  2  0
  6 26  1  0
  7 15  1  0
  8 20  1  0
  9 21  1  0
 10 31  1  0
 11 32  1  0
 12 16  1  0
 12 27  1  0
 12 29  2  0
 13 14  1  0
 13 15  1  0
 14 15  1  0
 15 28  1  0
 17 25  1  0
 18 25  1  0
 19 25  1  0
 20 25  1  0
 21 23  1  0
 22 24  1  0
 22 28  1  0
 23 24  1  0
 23 27  1  0
 24 30  1  0
  1 33  1  0
  2 34  1  0
  3 35  1  0
  4 36  1  0
  5 37  1  0
  6 38  1  0
 13 39  1  0
 13 40  1  0
 14 41  1  0
 14 42  1  0
 16 43  1  0
 16 44  1  0
 16 45  1  0
 17 46  1  0
 17 47  1  0
 17 48  1  0
 18 49  1  0
 18 50  1  0
 18 51  1  0
 19 52  1  0
 19 53  1  0
 19 54  1  0
 20 55  1  0
 20 56  1  0
 21 57  1  0
 21 58  1  0
 22 59  1  0
 22 60  1  0
 23 61  1  6
 24 62  1  1
 27 63  1  0
 28 64  1  0
 28 65  1  0
 30 66  1  0
M  CHG  1  28   1
M  END
>  <OMEGA_C>  (209) 
qzG5QB0I7UCZCJvBF4rQQAySMD+EHa3BEbCaQJBQc78AvqfBDTLgQOyh2L+FW67B453oQDvM6EAm
qovBERkCQYOwAEHA6ZvBvX+/QOup4kBZJZDB6SrcQLC6/EBD+aDBdmKnQDMQyD4DG6nBNwvtQPDT
s763oa/BFfu2QMbT/r+JcarBe/LTQMHzqz90EJDBs4WEQBRd7UBMYYHBYCygQHX/x0AHznrB08ya
QNdJ0EB5e4nBLNbcQHX+lD4sg4fBiOztQAb6K0Ei7KfB4IWfQGJkIkGJbanBnGnOQJf+IkEtzbnB
+UXXQOM4BUGHiazBP6OJQKLbwD9y16XBacqXQKPpiECx3JDByKeeQFpbFkCu+JzBtjqAQCIsXEAu
HJnB0OnMQJ6GHUHmwa3BBeEEQaTA90DwfpHBPoSqQE4qvD+D+ZPBxZOAQAXtsEB1Fo/BWmXwQFPC
B0AmtZLBlrloQAZ2iECT9qHBhGIKQRQlgL1oPbPBV6uqQIe7UcDaM6nBszaaQPcC6UCGup7Bjxva
QDTh2z91P67B75R2QAnulr8DoaTBNfL1QBaIH8CwYbDBsKTtQK5J4UBEU4PB5owPQdJ5BkHsf6DB
5Q5DQK4X7EBpe4DBDJKPQKQ/B0FKSYDBGQ+/QORTzkBO+nLBgASRQEvsq0CMXnPBCxP+QG1gxj5O
uITB197GQJGO4D7+vIDBDvfXQINONr9b6YrBkxwHQQ2RKEEX+qrBRxXmQOriPEE/YKnB99fsQJ+3
KEFhR5/BUgqIQF8vGEHaiq3BAYWeQGIkH0FpyKDBUMKXQKxPM0FG4arBp0S3QBf1GEFvIr7BiUDG
QP/1M0GE8rrBLsvuQAD3H0HZ5rzBRFf1QFXOAUE1yLDBxh+9QMfg90AvKrDB4PqCQLdZCUBdzqzB
hP5WQMguij8d2KLBvuuZQBYibkCuS4nBsjS4QIoUkECUyZPB5Ju7QBSuNEA+PaDBQsZHQIyuPkB+
apXBY2WTQMMGbz8YfJDBWvVMQErSqkCYt4rBcrhvQBsHvUBqKpbBokBLQE1ob0DTH6fBtoC1QBQF
AUG6rpbBU4nPQPglGz82oq3B44CXQHqHbL+9nafBbl3bQDOt5r+NOa7BbiLqQD3S1EDq+Y3BteIA
QaqEBEFZDJrB7RK/QNc44UAHd4/BgJLXQI4TDEEncJvB+iSmQH0bxz4Od6nBpCHqQDlj+r6e/a/B
bAmyQEkwAcCgDKrBiUPQQCeWrj+wWo/B8s2EQPh+6kBfu4DBw7KiQJ0zxkARyHnB5J2bQCgFzkA+
04jBhdXWQJkkgz4UIYfB8rG9QKIUOUHEtq/BejOfQPvZE0EDDq/BSlbuQCuNGUEdmLLB6LTPQEvi
IUFgRKDBk1aKQMI1yD/Wf6bBri+ZQDMniEAw8JDBFbGfQNg6F0DNcJ3B732CQAbBX0DnxpnBMcvG
QMS6IUG4YqzB/i4FQWDm50BMbZPBQryoQDb3uj+6YpTBvIGBQI9Dr0DgmI7BsNDuQHoyA0CmJ5LB
3h11QCMgjECciqLBe+QIQTwij76b+bPBGtijQMLEUcDkWqjB0byUQLcQBUH2ipjBN8baQIVtzj8W
A6/BKfBvQOhoi79QVqTBYLvvQEwwKcCFErDBDYPxQIWUu0DAXojBFtINQVEYDEGDWJ7BXP5DQGu9
50AsPH/BC3+OQFMPBkF1jn/B5bbBQEbvzUB4aXLBBzeVQAqOqUAvF3LBo6b4QH0kaj5QsoTBcq7C
QM9V5z4HFoDB2OXNQEEWNr8NrIrBB63ZQOYVQ0EI2a3BRz23QDm6OUHOW7jB86yhQEIRP0HhTqvB
Il6lQGQrA0EgtqzB4EGDQFXuGUGMpqrBNNKYQEyXFEF6s7fBvRf1QF7pCEETR7DBPejnQMRJGkEA
PbvBbxMFQd+jI0Glr7DBlOqzQAkLKUH+OJzB+i3sQFnRK0FY0Z7BtiOGQJisDUADhq3Bb9RVQGrA
mT9nzKPB78GaQLRBaEAutonBc865QAdWkEBOiZPByM69QI2kMkBVcaDBpsRIQM/lREA7sZbBXvCQ
QB3rYT8ns5HB0udPQFLpp0CCJYrBzMhvQCJrvECDe5XB/KxYQGP+eUC6F6jBT+y3QPD460C185rB
w4vPQLIpJD/oV63Bb7SYQKr5db8s3afBDx7eQKgN4L9uMK7B+UPoQEbU50AXwovBaWsBQSk2AEG2
G5zBv+m+QKOP4UBXF5DBQYjaQKKx+0CeBqHBUyemQK1Dvj5YW6nB4Z3rQAlQ1r7vpq/BuJi0QCtT
AcAoWarBQ4vTQCs4sj89CpDBCYSEQEyo7EBIQ4HBSnegQFGpx0AZX3rBc6maQLIjz0DZR4nB/4vc
QONGsD7ydYfBoI/MQO40IkHs97nBfdXtQA4uK0HbTKjB9OeeQE1wIkHEY6nBDArVQIOTBEH3mKzB
/CSJQGNjwT/YJ6bB61uXQKSNh0D+sZDByMOeQBA/FkDWVJ3BhMCAQKbZXEDtcpnBJbzLQKX6HEEA
5a3Bi4IEQRvi9kBltZHBQKKqQA1Huz/bXZTBIiqAQJGAr0CvvY7BaELvQGiDDUArXZLB+ZFuQPKB
ikBWKKLB7scJQQuaIL5BPbPBGJ+nQG0ZU8Bx96jB27aYQB7450Cphp7B7KLZQNW21D9cnq7Bjxhy
QGB6lb+V0aTBY5rzQPcpJMAtA7DBc8vtQL5X4ED2b4PBgbsOQRz/BUHHy6DBhB1DQNhM60BbSoDB
ZnSPQO/zBkFrVIDBN3O/QGNgzkBauXLBk42RQF7Fq0A6pXLBUSf9QAc/9z4oVoTBFVnFQK/46D7h
5oDB757ZQFc4Kb/99IrBHqe0QNxZGEG6JL7BlRHFQPo8M0FXKLvBCI/sQF/CHkGWNL3B3fPtQIzI
J0Frqp/Br8wGQX6rJ0FCqavB6xvmQBomPEEDnanBPfidQHrFHkE7yaDBmFKYQBiOM0EZnKrB246G
QDzfGEHwkq3BDZjyQJm5AEHu+LDBuiy6QOoV90BLDbDBiumCQHh7CUAqKK3BK3NVQB2jjT+4IaPB
KSeYQKHhaEDiTonBXES4QEbajkD4OpPBmsS7QFLrM0ARqqDB56pGQJYPQEBYOZbB7eaTQH89YT8T
N5HBDhtNQC4zqUAINorBU1NtQDiXu0DGwZXBjU1SQC/7dUDKp6fBjU69QB3lAUFYAJbBOHPRQKqD
Rj+vk63BdUGbQFfQYL80tqjBqyHhQJAwzb/1Na/BtzTrQJj/0UB9dYzBK1sFQUHMAUEOC5jBW93B
QEW64UDot47BHpziQL/rCkGKg5rBdg+oQOzh7j57xKnBEhDuQLaGhL5zMrDBLq63QISp9L8AgqvB
wUjSQDEMtz86tY/B2hCEQMRk60AssoDBCuafQBGSxUBSvHnBSoGbQNOBz0BC0IjBUfnbQMSVkT60
BojBrdiaQDzHIEGRfKvBIc/TQOI9BkGATrHBVbreQFWpLUElALTB6WHhQDgzH0GoQaHBMSeKQOmN
yT/WYqbBLa+XQF/5iEBkxpDBg8CeQMLmGECQSZ3BOUSAQIggXkDIQZnBLpfLQJSnHEFlY6zBCDsH
QZOR4kA5JJHB4iKqQO04vT9Vd5TBtqqBQMi2sUCkC4/B4Q/vQMJ1DECVYJLBsoFpQFlQikA7+KHB
iPgKQfA0ID0qprPBfDurQBLWTMBQlKrB7AKeQHzrB0EDF5jBDx7bQPgx5z8Req7BoVd3QJa7jr/B
wqXBP//2QGB2GcAtS7HBrMLuQCcCuEBz1YbBSpMTQbcwCEENxZvBDQRCQGaq6UDjCIDBI6WOQIk9
BkEvjH7BNVy+QAily0ChdHHBGbmQQFvUqEA3+nLBbQb+QEZrnj4uzoXBaDjIQF82yD7syoDBoKfU
QGmLLL918IvBPFGVQL+xMEFv/qfBPU6MQNEOIEEZfrPBikqMQJyBFEGDVabBQXr2QCxzA0HA6rHB
ZWDFQErT80CnKqzBGGTFQNp2BUE8U7nB87MAQbcRK0FsxrTBRpXPQI5JLEEm6rvBs8vYQAW6PUEK
urDBEs/PQOB/K0Gyv5zB/0EBQVyLJEEmjqLBv+KDQM0MD0AQP63Byq5XQA7tkT8RkqPB2mGYQCqg
bUAcPYnBm6G4QG8uj0C7dJPBSuO7QJvAN0AeX6DBLY5HQE4HQECLtpXBVJKTQJhPWz+4vJHB+qFM
QBknrEDVIYvBV2R2QMLrvkCIJpbBCkZMQBA0dEBgQqfBlGSxQNVU+0CHcpjBHWzMQPmJEz8a9q3B
jvqXQD7lf7+lyqbBbgfbQKii6L9qV67B3nXnQKXQ5UA8i4vBORX5QKmbDEGVWJjBY9C8QEsu5ECz
P4/BWtTPQJWLC0Hz7ZzBDIKkQJ92pT5qFKnB27jnQGOr/L5Ii7DBriizQNxrBMCndqnBTRXWQHvZ
sT8ShJDB+MyCQHm76EDUk4DBgg2hQNO1xEAgyXnBxYSaQDrTzUD614jBKQngQJ/EvT5Lx4fB3PnI
QBoFGkGJ1brBkD/dQAJL70BGkbHBSMwGQas/GEFmkbDB7xvFQJiEGEHozKbBCjOIQE10vD9ZzKXB
YiWaQPCIiEAARJHB60SfQBMeFUCuXJ3BKL6BQKrqW0DmX5nBKGPeQJR7EEH5x7DBRlACQXTf/0D6
GZDBgmqsQBKKvD9cVpTB9HyBQEjorkB+2I7B5+vxQGsYC0BvcJPBtdVqQLKFiEALJ6LBCxcHQcDP
fr7mF7XBPxWnQFeVVcDWQqfBIgqSQAPf90A/+pvBh/vVQOqhyz/4ta/BvBtzQESKmL8O/qLBW93v
QGz3KMBuZLDBru3wQH7D0UCz6oTBIwAIQVzeF0EMh5vB9/4/QMYr5UDFNX/BPsiLQN8yBUFCp37B
uq6/QO+ZzED/D3LB+OWTQPVfp0CBnnLBVbAAQQOV/D4hIoXBxWTKQDKRBz+s9IDBtYDbQMZVJb8A
8orBTZzJQGWXK0HnW7rBEnLaQJXDFEH2AcLBMZunQHF/FEGjTbvBunHsQH5c4UBHb6rBOtO7QMBt
5ECgD7LBHKruQAb25EDyw7jBGeIOQS6yEUGmeKnByw0PQX+4EkHj1LfBBS0HQVXVKUGlQLDBGJ2i
QPgmF0HnaajBoU7NQJFgKUHcUqXBdeWAQNrNBUDh16zBJIRUQMw9ij/pZaLBw+qeQPWha0C86InB
nm65QCmjkUBZmJTBBrW7QPlJMkC4DKHBpf5KQAhDP0DLiJXBqvqVQMkdaz96wJDB369PQIWrpkDB
horBovtvQIJUvEB1tZXBbztMQC3mb0BqP6fBJLKiQBajA0FxAZXBQMKpQPxylr6g767B0E+dQFBt
n7/wM53BV57FQKiaIMCsh6rBcr/cQPnc8kBvH4nBX97nQLIuFUGRWJXBEwGyQH+b7UBWjozB2kC+
QKHgEkGXrZnBHMGXQJ1OQ758m6TBuGXAQElSur+O6rHBwTG0QP3DGcDtKKDBgonhQIEOxD93vJLB
j7pzQIOq3ED9W3vBoqKeQNvSvEAkr3fBDKOUQEQuzUCbNYfB/1X1QGVjYj8r0ojBq6uzQPsyLUGH
3LXBGLDuQLJ/FkHycK7BklblQL91PUEneqjBHDmtQK1zIUE7lKLBoRR/QG9ViD95XKHBW5CcQPOC
i0B2IZLBpsOdQJnnCUCKvZzBHUKDQNifWUCma5nBYdHNQPZfKEF+k6vBqZX2QMtmCEEAdY3BZxq1
QBZHzj95bJPBdgeAQFy8rkDypY7BibT4QJEk7j/cNprBa4BtQFCTg0Do1aLBjBbRQLGgx7/p3rvB
NFu5QDhKWsBfDZnBBEmCQLLSAUFY3ZfB5y+mQLCoBD/Uj7TBtvuPQJ8Jlb/9QZXBXfjWQB+CWcCF
0azBwg3pQItp3kDL34LBeIH8QPGRIUGNdJjBAvUwQDES0kBtnXnBy7x5QIbi/UAzvHXB4Pa7QLJC
x0A2eG/B/JKXQF1ym0BvWXPBYBUMQXbBTD+i5YnB6YPuQDOkwD81woHBuo/nQCUM8b3eq4fBtwKc
QC/JOUGfLLTBlm3JQFqiMkEQObzBqw2jQGeXHkHUebjBcfgAQWiYEkFjVqfB2nfdQGMfCEG3IbHB
4usBQVYqHEHz4LTB+mH4QDPQOkEWMqHBr5n6QHVUQkHYDa/BXKPNQIYhSkHR/qbB4aGSQEACGUG5
gabBUyGhQJ8gMEHcxp7BSk1eQMlrvD+kb6jB/25PQFWXTD8EPpvBn0yoQF0AdEBJFYvBW+O3QODN
mECrkpbBz6y0QFXdHECa/KLBq3RNQMupQ0DiDpXBjOujQBDcoz+qN43BES1NQFj2oUCc/orBXuls
QDTavkDEIZXBpzBOQBoZYkC/aqfB

>  <OMEGA_E>  (209) 
sOM1PqRdhz5gixs+rMqkPijv4z7Axls/

>  <OMEGA_NBR>  (209) 
     23897

$$$$
50167947
     RDKit          3D

 64 66  0  0  1  0  0  0  0  0999 V2000
    6.5289    0.6707  -21.6950 C   0  0  0  0  0  0  0  0  0  0  0  0
    4.7791   -0.9038  -21.0371 C   0  0  0  0  0  0  0  0  0  0  0  0
    5.6769    7.4227  -19.4144 C   0  0  0  0  0  0  0  0  0  0  0  0
    6.9364   -1.7289  -21.8223 C   0  0  0  0  0  0  0  0  0  0  0  0
    8.0040    7.8464  -19.3378 C   0  0  0  0  0  0  0  0  0  0  0  0
    5.2262    0.4211  -21.2108 C   0  0  0  0  0  0  0  0  0  0  0  0
    6.8776    7.8920  -20.1235 C   0  0  0  0  0  0  0  0  0  0  0  0
    7.3849   -0.4040  -21.9934 C   0  0  0  0  0  0  0  0  0  0  0  0
    5.6315   -1.9776  -21.3504 C   0  0  0  0  0  0  0  0  0  0  0  0
    5.9420    7.0635  -18.1153 C   0  0  0  0  0  0  0  0  0  0  0  0
    6.5523    1.4313  -17.9127 C   0  0  0  0  0  0  0  0  0  0  0  0
    4.2448    7.4164  -16.1708 C   0  0  0  0  0  0  0  0  0  0  0  0
    5.2288    6.3339  -15.6906 C   0  0  0  0  0  0  0  0  0  0  0  0
    4.9043    6.4826  -17.1792 C   0  0  0  0  0  0  0  0  0  0  0  0
    6.8592    0.2686  -16.9750 C   0  0  0  0  0  0  0  0  0  0  0  0
    7.4722   10.7706  -21.0084 C   0  0  0  0  0  0  0  0  0  0  0  0
    5.0377   10.0966  -21.1841 C   0  0  0  0  0  0  0  0  0  0  0  0
    6.4842   10.1705  -23.2392 C   0  0  0  0  0  0  0  0  0  0  0  0
    4.3353    1.5720  -20.8137 C   0  0  0  0  0  0  0  0  0  0  0  0
    6.8819    8.3481  -21.5656 C   0  0  0  0  0  0  0  0  0  0  0  0
    4.8139    4.2536  -18.1073 C   0  0  0  0  0  0  0  0  0  0  0  0
    4.9974    2.3660  -19.6736 C   0  0  1  0  0  0  0  0  0  0  0  0
    4.0696    3.4682  -19.1736 C   0  0  2  0  0  0  0  0  0  0  0  0
    6.4655    9.8390  -21.7304 C   0  0  0  0  0  0  0  0  0  0  0  0
    5.3269    1.4469  -18.5679 N   0  0  0  0  0  0  0  0  0  0  0  0
    4.0597    5.4595  -17.7829 N   0  0  0  0  0  0  0  0  0  0  0  0
    7.4381    2.2325  -18.1919 O   0  0  0  0  0  0  0  0  0  0  0  0
    3.7350    4.3380  -20.2571 O   0  0  0  0  0  0  0  0  0  0  0  0
    8.6354   -0.1636  -22.4474 F   0  0  0  0  0  0  0  0  0  0  0  0
    5.1978   -3.2480  -21.1938 F   0  0  0  0  0  0  0  0  0  0  0  0
    7.6355    7.2651  -17.7404 S   0  0  0  0  0  0  0  0  0  0  0  0
    6.8675    1.6865  -21.8361 H   0  0  0  0  0  0  0  0  0  0  0  0
    3.7836   -1.0944  -20.6642 H   0  0  0  0  0  0  0  0  0  0  0  0
    4.6969    7.3669  -19.8648 H   0  0  0  0  0  0  0  0  0  0  0  0
    7.5932   -2.5547  -22.0530 H   0  0  0  0  0  0  0  0  0  0  0  0
    8.9907    8.1344  -19.6693 H   0  0  0  0  0  0  0  0  0  0  0  0
    3.1711    7.3200  -15.9520 H   0  0  0  0  0  0  0  0  0  0  0  0
    4.5329    8.4774  -16.1332 H   0  0  0  0  0  0  0  0  0  0  0  0
    6.2210    6.6199  -15.3114 H   0  0  0  0  0  0  0  0  0  0  0  0
    4.8593    5.4625  -15.1301 H   0  0  0  0  0  0  0  0  0  0  0  0
    7.9117    0.3194  -16.6594 H   0  0  0  0  0  0  0  0  0  0  0  0
    6.2080    0.3293  -16.0905 H   0  0  0  0  0  0  0  0  0  0  0  0
    6.6790   -0.6819  -17.4984 H   0  0  0  0  0  0  0  0  0  0  0  0
    8.4851   10.5875  -21.3962 H   0  0  0  0  0  0  0  0  0  0  0  0
    7.1948   11.8197  -21.1884 H   0  0  0  0  0  0  0  0  0  0  0  0
    7.4509   10.5659  -19.9278 H   0  0  0  0  0  0  0  0  0  0  0  0
    4.3236    9.4354  -21.6966 H   0  0  0  0  0  0  0  0  0  0  0  0
    5.0163    9.8920  -20.1035 H   0  0  0  0  0  0  0  0  0  0  0  0
    4.7602   11.1457  -21.3641 H   0  0  0  0  0  0  0  0  0  0  0  0
    5.7741    9.5173  -23.7675 H   0  0  0  0  0  0  0  0  0  0  0  0
    6.1953   11.2215  -23.3872 H   0  0  0  0  0  0  0  0  0  0  0  0
    7.4968   10.0090  -23.6375 H   0  0  0  0  0  0  0  0  0  0  0  0
    4.1827    2.2328  -21.6798 H   0  0  0  0  0  0  0  0  0  0  0  0
    3.3642    1.1832  -20.4736 H   0  0  0  0  0  0  0  0  0  0  0  0
    7.8964    8.2201  -21.9713 H   0  0  0  0  0  0  0  0  0  0  0  0
    6.1781    7.7222  -22.1339 H   0  0  0  0  0  0  0  0  0  0  0  0
    4.9237    3.6347  -17.2046 H   0  0  0  0  0  0  0  0  0  0  0  0
    5.8090    4.5326  -18.4839 H   0  0  0  0  0  0  0  0  0  0  0  0
    5.9207    2.8259  -20.0557 H   0  0  0  0  0  0  0  0  0  0  0  0
    3.1654    3.0185  -18.7374 H   0  0  0  0  0  0  0  0  0  0  0  0
    4.6271    0.7966  -18.2724 H   0  0  0  0  0  0  0  0  0  0  0  0
    3.3306    5.2220  -17.1410 H   0  0  0  0  0  0  0  0  0  0  0  0
    3.6584    5.8255  -18.6225 H   0  0  0  0  0  0  0  0  0  0  0  0
    3.2694    3.8481  -20.9248 H   0  0  0  0  0  0  0  0  0  0  0  0
  1  6  2  0
  1  8  1  0
  2  6  1  0
  2  9  2  0
  3  7  1  0
  3 10  2  0
  4  8  2  0
  4  9  1  0
  5  7  2  0
  5 31  1  0
  6 19  1  0
  7 20  1  0
  8 29  1  0
  9 30  1  0
 10 14  1  0
 10 31  1  0
 11 15  1  0
 11 25  1  0
 11 27  2  0
 12 13  1  0
 12 14  1  0
 13 14  1  0
 14 26  1  0
 16 24  1  0
 17 24  1  0
 18 24  1  0
 19 22  1  0
 20 24  1  0
 21 23  1  0
 21 26  1  0
 22 23  1  0
 22 25  1  0
 23 28  1  0
  1 32  1  0
  2 33  1  0
  3 34  1  0
  4 35  1  0
  5 36  1  0
 12 37  1  0
 12 38  1  0
 13 39  1  0
 13 40  1  0
 15 41  1  0
 15 42  1  0
 15 43  1  0
 16 44  1  0
 16 45  1  0
 16 46  1  0
 17 47  1  0
 17 48  1  0
 17 49  1  0
 18 50  1  0
 18 51  1  0
 18 52  1  0
 19 53  1  0
 19 54  1  0
 20 55  1  0
 20 56  1  0
 21 57  1  0
 21 58  1  0
 22 59  1  6
 23 60  1  1
 25 61  1  0
 26 62  1  0
 26 63  1  0
 28 64  1  0
M  CHG  1  26   1
M  END
>  <OMEGA_C>  (210) 
gezQQGexKz9ij63BOO6YQAphZ78VTKjBW6m1QL+G7UCsUJvBRvfdQAhM3b8clK7BXhAAQQ8W+0DA
s5rBsTynQJKY1z6qr6nBgxXcQDeL/EDU/KDBylDsQFTWzr6B8q/BbzW0QJAh/b+nzarBQSW+QJcI
4kA37JDBMqzRQFgztz85TY/Br9WHQItT7UC1XYHBTVKnQJevykCmDHvBCfCcQGhxz0AXb4nBo37b
QFqEiT62zIfB8BvvQDRULEEsEajBEDWhQNGLIUH5eKnBq37PQEG6IkH76bnBxLqKQF44yT+FgqbB
xzjcQNKRBUFkhqzBNwuaQEQdiEDQ25DBZ+qfQEBsF0B9Y53BATqCQJv3XUBwY5nBXeXOQHBsHUHG
163BMHaqQIY1uT8ki5TBAumBQBu0rkBaQ47BNgXuQCHhDkDwiJHB7AlvQKzQikCaDqLBsCoKQYSF
J75RlLPB+FOmQIneT8DNjKnBZFb0QBV86EBE7I3BhcLbQDHe1z9HsK7BeCZyQLQUjL8/UKXBKU2W
QD+960Af657BKPvyQJ9/I8B6bLDB4dkPQYImAkG2Wp3B3/NKQMI96kA0O3/BRA2RQHKjB0HPEIHB
UxLHQDHW00B++3TB/36bQA/NrkAVFXLB/Cz9QKSHoz5lRoXBG6jGQBSaqD5XuYDBMbrVQF2TLr/H
/IvBAMMHQVZmKUF5K6vBvTvmQGMdPUHuganBqG3uQBoOKUEebJ/BzFqKQEP3FkG1kq3BJ4WgQH1F
HkHz06DBPVOYQMZUMkHD6arBl8W4QLZGGEHpI77B0j/GQDKLM0EOGbvB2eXvQOMkIEGJGb3BdNiF
QPjmDkAtcK3Bk05XQAdzlz/YyaPB/q78QH6FA0Ekxa/BPrPFQCYc90AlErHB/46dQK6faEDyoonB
gOO5QDcLkUAI35PBR3a9QOLaNED9caDBDJZKQL8uQUBL5pXBTBGUQJ7wSz/RLZLBOSlVQGoap0Cv
IInB3iJqQNRqukDh+pTByD1RQKpHdkD8ZafBfuXPQD6+Lj9wsK3BRbuYQFNaaL9XMKjBz0u1QGlG
7UDDNZvB4qLdQNI3278nvK7BY6//QJtL+0AhoprBxYOmQMTt1z7gqqnBHZbbQKl7/ECE56DBm4Lr
QORkxL4EJrDB3jS0QC6g/L9vyqrBGfq9QO+g4UDl1ZDB/0vSQJayrj/M2Y/BpXOIQN/N7EBTHoHB
GqWnQLKkyUC13XrB3eecQOT+zkApT4nB3BDbQARCfj761IfBzTLRQGpdIkH4ArrBnznsQARJLEHD
v6fBNC+fQObCIEEGRqrBF+qJQBinyD8VaKbBosDbQAJWBUHXeKzBKrGYQJtPh0BRgpDBjVufQBFa
F0CsVZ3BH9uBQFGIXkDwZpnBAfTNQBgTHUFZ963Bdf2pQMb8uD+AgJTBjlyBQHGsrkALJI7BMJbt
QEZTDkCXcZHBCHRyQKf4i0DdCqLBv6kJQR6cBb4h3bPBN+OmQDbnT8AqcqnBmij0QINz6ED+3I3B
elbaQIDG2T9a4K7BfUxyQJ2/jb+/EKXBLeKVQL9360C0yJ7Bi8PyQHEPIsDdrLDBv5MPQbhqAkHG
Sp3BNz5MQMYP6kAzmX7B0RaSQFxQB0EPwYDBfZvHQL5K0kD25HTBx6ObQMy5rUAK/HHBsBr7QDAq
xD6kWYTB3erCQPWAjz44b4HBpn3ZQAZdOb9l7YvBB+O7QFi0F0ESjr7BT6XHQOcXM0EmWLvBw2Hy
QKARIEGttrzBxFLqQE29KEGDJJ/BEaUGQRDyKUEaiKrBro3iQFj4PEGSKanBvGKcQGgNHUEcs6HB
00+WQP6RMUF2pavB76aJQLZHFkEg267BL5uEQE+ZDkA4Ua3BRhBWQMselj+FmqPBkFH8QLJkA0Hr
qq/BaonFQP4y9kAL/bDB0v6ZQMdcZkAgTInBjWq5QFU4j0AKFJPBreu8QOBXNEBScqDB/R9IQE96
QkAdS5bB0uySQF+5WD/XtJHBmwhTQNPyp0DSE4nBEYRqQMtVukDP8pTBj+VVQF0JekA3nafBxorQ
QMYjPT/OAK7BJVmZQFHGXL+2uajB5S26QJ/5/UCIl5fBF2beQNWz0794Rq/BFucCQfc8/EDIjZfB
txKnQERa8D4PE6rBgGviQP8PCEHDypvBtEfsQJr2pL7Ig7DBh+G0QA4h9r9BbKvBnRDBQPY24UAb
go/Bln3RQH9VrD8tEpDBY8uHQDu+6kCmnYDBUIGlQC5exkBn13nBdqGdQJ8EzkCX2IjB3qzZQIhV
Vz6CMIjBie7aQDd5L0G44LPB0CybQHAuH0E5y6rBQSrTQCJvB0FfkLPB1UuKQAnYzT86xqbB9Z7m
QHEKHEEbp6LBlBaZQNvTh0BQxJDBlFCfQFa5GEBGjJ3BhMiBQNSjX0BjkpnBk6nLQM4zHEGgGa3B
ilmpQB+WuT8vyJTBY5KCQLunr0B3fo7BRRbtQBzVDEB1fJHBVS1xQCyCjEA8LqLBfxwKQSDjfL06
HLTBJ3unQJzNTMDgSarBGHr3QL1O10APxI3BO/PaQK1D4T8WFK/B+odzQDq+iL+9oKXBSteaQGM2
A0E8j5rB7JbzQD8MHsBeR7HBcSoTQdtZAUFz/JnBGCFKQPhT6ECioX7BiuORQEYjBkHUcn/Bpt7E
QHzbzUDJyHLBqAuYQOjoqUCY93HBgKL5QJo2qD7zn4TBjFPBQMIGcT5y1oHBMfXXQMeuQL/la4zB
10H9QMjCLUEPobXBWNjIQIj6L0FNbLvBEInVQIBhPkEQZq/BJ3mPQKuqEUGj+aXBrDOWQIAyLkEI
YKbB84KJQIjLH0FFZrLBvXLIQGEr80Av167Byu3AQIMoCEELFbvBkHX1QDvKBUF9XrXBL1WFQGAI
EkCrnq3BVY1WQKKqmj+eHaTBfbrcQEnXKUGAyJ3Biz4EQTfIHUEm46TB9hSaQNL9Z0AtgInBOe65
QCIEj0C0X5PBfRq9QJLTNUBagaDBQm9IQL9cQ0BTXJbBu/eRQARMWz9PFJLBKedRQEcvqUBl+4nB
VUByQCfBvECCZpXBPAFUQKsOe0CbsqfBoQnRQGXkQT+r8a3BEbuZQJrvWr+E+ajBVzS7QH3G/UAT
mZfBrj/fQOzy0L/cUq/BR2oDQf3a+0BoZZfBuWqnQDp29T7pJarBmKjjQEO2B0G71JvBhPrsQFmL
mL7VeLDBrZG1QLZ09L96n6vB4LfBQChQ4UBWbI/B5EjRQEadrT/fCJDB6BKIQMWg6kBhl4DBJIal
QKcDxkDU1XnBeP6dQHURzkD514jBx6/ZQESTXz7+LojBCXGcQJaKIUGtYarBnIPMQGd8BUGE/rLB
tTfdQBucLEHH07TBc1uKQBopzj+D0qbBA2/oQEQeG0G8EqPBUiaZQAMBiEBr1ZDBlCafQGHXGEDy
jp3BxI6BQE2VX0Dgj5nBFFHLQHRYG0H0K63B2TepQCqruT/GzJTBx+GCQHf6r0AYlI7Bzr7sQJXC
DUBIcZHBs9FvQLlMjEAFLaLBxnMKQaB98byoCrTBAU2oQAoiTMDFlarBzhD4QAiJ10BjgY3Bn2bb
QPbs4z+f567BSN5zQHSyiL9UDKbBFvmbQIQtA0G3nJrB7630QCRkHMDgR7HBZbwTQYkaAUG/v5nB
/JlKQHRT6EBDtH7BikqSQB0LBkF3PH/BztPEQL9BzUCipXLBQdaXQPl+qUBuHXLBcKf5QLjorT5F
oYTBDGHBQLRYcz4R0oHBcBPYQOtEPr8tcIzBYB6cQLUVMUEdQabBXomJQAqqIkGNyLHBdn6OQCtB
FUE3IqXBfdjtQOhTAUGh6bTBHr++QAUw8kBWx63BBsq5QOGABkGrbbrBhXL+QNqmKEFx87bB8pbJ
QFcoLUGEILzBd1bcQGJNPEFL2bDBikyFQPBbEkCYpa3B/85WQIr4mT8UMaTBwgLhQOJ0KUG+UZ7B
A/UEQaHSG0FdxKXB+kSaQJu4aEBniYnBNfK5QJkBj0D0gZPBWu+8QAIoNkBOfKDBPGBIQNAgQ0CR
Q5bB9u+RQPiTWT+nJZLBUhpSQIWoqUDlIIrBzZJzQJU9vUCzfpXBBk1SQC5aekCwo6fBEnXQQDSd
Oj+fwa3BsReaQFVqZr+dfKjBmUqoQLo+80CKVJnBbAHgQFDq078Luq7BsezwQKSTAkESQ5vB3AKn
QHWD4D5q5qnB6vrHQLEQBkFoFZ/B0gftQCRUor6QEbDBsYC2QCcV+b/y9qrB9RC5QBIG30AcpJDB
MVDUQNLnvj+cE5DB5OWIQEdr6UDlWYDBY0GqQFLTx0B/1XnBwSScQH4Hy0D6kojB3L3eQGzi1z7c
yIfBcd7zQPH7L0GsqanBtjO/QJ7iKUEkZrjBtY/0QGYUDUFvkLTBu6GJQIXoxz9ykqbB7Rq3QLvS
FEGCuafBVoaXQIZ7hEBdJZDBlhifQOX4F0BknZ3BmJKAQGeiW0CoPZnBnXfYQBKzHkGpXK/BbEas
QAV9uz8h65TBYMd/QHF/qkBu/ozBKFvwQFUgEUCrA5PBiBNtQHPfi0CqfaHBEoUKQfB2EL2pgrPB
RhSqQPutTsB7nKnByHzwQOeY40CaJZDBwjHaQFWd4D+q7a7BNuJ0QEinj7/TgaXBjRqHQGEA8UC0
rJvBD9f1QCZwHcAQlbDB878GQUVjCUGSup7BuINOQF3a5UCt1nvBUm2RQJvIBUFKdoDBuaXKQHHv
0UCHJ3XBQ3qgQJg4rECgEXDBpEcAQSY3AT9vb4XBH1DKQP7bDz/ptIDBtd3YQJzlEr+JOovBvikD
QXSIKEFPKaPBDfsEQVlLN0ENda/BoL7eQJhiPEGbVKbBil6rQMEKHkHvnbzBt4SqQDZWNkF+8bTB
MLzVQPc+MUHwEb7BDuLfQDo1AUGuf7jBYPYEQUthFEGxh7rB/OcDQRIoBUFHWq7BjV6DQP/MDUAr
ea3BIIBWQF96kj/Do6PB51OgQEigC0EwnKzBKzemQKAPIkHmv6PBlhCaQNhiXUCNQ4nBNcW3QJzO
jUChy5LBjHu7QJ0gOEBw66DBxd9GQNKPPEADMZbBuReXQLyPST8GWpLBS2tUQKFqokCld4fBCf9h
QB17tkDxaJPBYmNQQJA5e0AgKqfBEyXQQHFbPT/rya3BixWaQB/XY7+BV6jB3b+nQHKN80CAVpnB
rJbfQMaQ0r+y267BO3XwQAWPAkFHSZvBcuymQLuI5T4oy6nBk4PHQLgxBkHTEp/BwY3sQJ3CnL7m
OrDBbFS2QDHD978W7qrBVGy4QOhu30AcoJDBU4DUQFijvD8UEZDBdSGIQHGt6UCUUIDBE7epQLw8
yEAM1XnBXXybQD13y0BJj4jBIeveQNERxz5L5ofBDXO+QND7KUFKYbjBu1rzQBnqDEEZprTBqPbz
QHneL0EVzKnBPaCJQHDuyD9Ka6bB+Ki2QJsUFUFbqKfBsqSXQG8EhUDWHpDBwDOfQMBnGEAAep3B
C8yAQCJyXED6MJnBluXXQFq4HkGgZa/B1x+sQJK7vD9vvJTBYx9/QCe0qkDq9ozB7ODwQMyrDkDP
JJPB4Q9uQB3xi0ARiaHBBioKQXTAw7z61bPB+fipQIAATsDAhanBmODvQN+d40ACKZDBp9bZQGQF
4j/M967BxTh1QC5gjr9NP6XBmJiGQGVF8UDMtZvBt0f1QAPCHMBi0bDBGIwGQYg/CUHHx57BqA9N
QDTm5UBYvHvBnnaQQPnvBUGdaYDB1hHKQI6C0kA9LXXBDCOgQNGIrEBaFnDBrYMAQdnO4j5CxYXB
wlzLQOYHCj+nroDBmt7XQKNCGb9mWovBJpWqQFm+NkH357TBed7UQFn1MEECM77BQ8mpQH1DHkF5
brzBkPUCQaeQBEE4cq7Bi0TeQFBtAUH7urjB4awEQSwfFEGEf7rBVEUDQedWKEENV6PBtfoEQbUF
N0HNqa/BREnfQJtoPEFua6bB4jyDQORkDkAtTq3BsJlWQMFekz/LdaPBHF+fQGoODEH8eKzBilym
QMFvIkGpoKPBXYKaQNV5XkCQPonBJsC3QAi3jkCIypLBLra7QIseOEAryKDBuhZHQP/FPUAPJpbB
GYOWQEoXUj+6AZLBBQJUQCpfokBrbofBiwBhQKWGtkDkX5PBjHtRQKz2ekCgL6fB

>  <OMEGA_E>  (210) 
ALYMPYAgBD249CU+wIc1PtA5Sj7QY0s+

>  <OMEGA_NBR>  (210) 
     30348

$$$$
50167939
     RDKit          3D

 64 66  0  0  1  0  0  0  0  0999 V2000
    7.2621    7.4956  -18.0468 C   0  0  0  0  0  0  0  0  0  0  0  0
    6.5005    0.6891  -21.6370 C   0  0  0  0  0  0  0  0  0  0  0  0
    4.7921   -0.9240  -20.9638 C   0  0  0  0  0  0  0  0  0  0  0  0
    6.9449   -1.7008  -21.8086 C   0  0  0  0  0  0  0  0  0  0  0  0
    7.7809    7.9077  -19.2401 C   0  0  0  0  0  0  0  0  0  0  0  0
    5.2127    0.4107  -21.1294 C   0  0  0  0  0  0  0  0  0  0  0  0
    7.3690   -0.3661  -21.9655 C   0  0  0  0  0  0  0  0  0  0  0  0
    5.6554   -1.9786  -21.3111 C   0  0  0  0  0  0  0  0  0  0  0  0
    5.8566    7.0966  -18.2967 C   0  0  0  0  0  0  0  0  0  0  0  0
    6.6046    1.3885  -17.9397 C   0  0  0  0  0  0  0  0  0  0  0  0
    4.4023    7.4344  -16.1314 C   0  0  0  0  0  0  0  0  0  0  0  0
    5.3962    6.3087  -15.8290 C   0  0  0  0  0  0  0  0  0  0  0  0
    4.8925    6.5331  -17.2666 C   0  0  0  0  0  0  0  0  0  0  0  0
    6.8934    0.2600  -16.9542 C   0  0  0  0  0  0  0  0  0  0  0  0
    5.0960   10.1366  -21.1893 C   0  0  0  0  0  0  0  0  0  0  0  0
    7.5505   10.6552  -20.8430 C   0  0  0  0  0  0  0  0  0  0  0  0
    6.6786   10.1763  -23.1447 C   0  0  0  0  0  0  0  0  0  0  0  0
    4.3041    1.5413  -20.7172 C   0  0  0  0  0  0  0  0  0  0  0  0
    6.8163    8.2789  -21.5114 C   0  0  0  0  0  0  0  0  0  0  0  0
    4.7282    4.2560  -18.0347 C   0  0  0  0  0  0  0  0  0  0  0  0
    4.9732    2.3704  -19.6064 C   0  0  1  0  0  0  0  0  0  0  0  0
    4.0315    3.4734  -19.1325 C   0  0  2  0  0  0  0  0  0  0  0  0
    6.5359    9.8055  -21.6525 C   0  0  0  0  0  0  0  0  0  0  0  0
    5.5877    7.2916  -19.5733 N   0  0  0  0  0  0  0  0  0  0  0  0
    6.7282    7.7956  -20.1127 N   0  0  0  0  0  0  0  0  0  0  0  0
    5.3278    1.4836  -18.4818 N   0  0  0  0  0  0  0  0  0  0  0  0
    4.0022    5.5019  -17.7801 N   0  0  0  0  0  0  0  0  0  0  0  0
    7.5283    2.0856  -18.3465 O   0  0  0  0  0  0  0  0  0  0  0  0
    3.7500    4.3448  -20.2292 O   0  0  0  0  0  0  0  0  0  0  0  0
    8.6095   -0.0972  -22.4307 F   0  0  0  0  0  0  0  0  0  0  0  0
    5.2484   -3.2584  -21.1594 F   0  0  0  0  0  0  0  0  0  0  0  0
    7.7786    7.4657  -17.0988 H   0  0  0  0  0  0  0  0  0  0  0  0
    6.8180    1.7123  -21.7728 H   0  0  0  0  0  0  0  0  0  0  0  0
    3.8088   -1.1367  -20.5710 H   0  0  0  0  0  0  0  0  0  0  0  0
    7.6085   -2.5118  -22.0698 H   0  0  0  0  0  0  0  0  0  0  0  0
    8.7858    8.2437  -19.4487 H   0  0  0  0  0  0  0  0  0  0  0  0
    3.3629    7.3581  -15.7798 H   0  0  0  0  0  0  0  0  0  0  0  0
    4.7297    8.4834  -16.0830 H   0  0  0  0  0  0  0  0  0  0  0  0
    6.4370    6.5488  -15.5664 H   0  0  0  0  0  0  0  0  0  0  0  0
    5.0701    5.4235  -15.2632 H   0  0  0  0  0  0  0  0  0  0  0  0
    7.9707    0.2319  -16.7336 H   0  0  0  0  0  0  0  0  0  0  0  0
    6.3331    0.4337  -16.0237 H   0  0  0  0  0  0  0  0  0  0  0  0
    6.5843   -0.6993  -17.3948 H   0  0  0  0  0  0  0  0  0  0  0  0
    4.3776    9.5336  -21.7640 H   0  0  0  0  0  0  0  0  0  0  0  0
    4.9935    9.9069  -20.1185 H   0  0  0  0  0  0  0  0  0  0  0  0
    4.8939   11.2050  -21.3561 H   0  0  0  0  0  0  0  0  0  0  0  0
    8.5729   10.4191  -21.1729 H   0  0  0  0  0  0  0  0  0  0  0  0
    7.3491   11.7237  -21.0097 H   0  0  0  0  0  0  0  0  0  0  0  0
    7.4487   10.4257  -19.7720 H   0  0  0  0  0  0  0  0  0  0  0  0
    7.6989    9.9450  -23.4845 H   0  0  0  0  0  0  0  0  0  0  0  0
    5.9548    9.5974  -23.7371 H   0  0  0  0  0  0  0  0  0  0  0  0
    6.4835   11.2510  -23.2756 H   0  0  0  0  0  0  0  0  0  0  0  0
    4.1071    2.1866  -21.5860 H   0  0  0  0  0  0  0  0  0  0  0  0
    3.3549    1.1293  -20.3438 H   0  0  0  0  0  0  0  0  0  0  0  0
    6.0801    7.7308  -22.1177 H   0  0  0  0  0  0  0  0  0  0  0  0
    7.8286    8.0731  -21.8893 H   0  0  0  0  0  0  0  0  0  0  0  0
    4.7533    3.6529  -17.1151 H   0  0  0  0  0  0  0  0  0  0  0  0
    5.7564    4.4895  -18.3482 H   0  0  0  0  0  0  0  0  0  0  0  0
    5.8854    2.8320  -20.0122 H   0  0  0  0  0  0  0  0  0  0  0  0
    3.1074    3.0251  -18.7387 H   0  0  0  0  0  0  0  0  0  0  0  0
    4.6060    0.9164  -18.0854 H   0  0  0  0  0  0  0  0  0  0  0  0
    3.2820    5.3285  -17.1084 H   0  0  0  0  0  0  0  0  0  0  0  0
    3.5917    5.8209  -18.6343 H   0  0  0  0  0  0  0  0  0  0  0  0
    3.3138    3.8571  -20.9179 H   0  0  0  0  0  0  0  0  0  0  0  0
  1  5  2  0
  1  9  1  0
  2  6  2  0
  2  7  1  0
  3  6  1  0
  3  8  2  0
  4  7  2  0
  4  8  1  0
  5 25  1  0
  6 18  1  0
  7 30  1  0
  8 31  1  0
  9 13  1  0
  9 24  2  0
 10 14  1  0
 10 26  1  0
 10 28  2  0
 11 12  1  0
 11 13  1  0
 12 13  1  0
 13 27  1  0
 15 23  1  0
 16 23  1  0
 17 23  1  0
 18 21  1  0
 19 23  1  0
 19 25  1  0
 20 22  1  0
 20 27  1  0
 21 22  1  0
 21 26  1  0
 22 29  1  0
 24 25  1  0
  1 32  1  0
  2 33  1  0
  3 34  1  0
  4 35  1  0
  5 36  1  0
 11 37  1  0
 11 38  1  0
 12 39  1  0
 12 40  1  0
 14 41  1  0
 14 42  1  0
 14 43  1  0
 15 44  1  0
 15 45  1  0
 15 46  1  0
 16 47  1  0
 16 48  1  0
 16 49  1  0
 17 50  1  0
 17 51  1  0
 17 52  1  0
 18 53  1  0
 18 54  1  0
 19 55  1  0
 19 56  1  0
 20 57  1  0
 20 58  1  0
 21 59  1  6
 22 60  1  1
 26 61  1  0
 27 62  1  0
 27 63  1  0
 29 64  1  0
M  CHG  1  27   1
M  END
>  <OMEGA_C>  (211) 
PWPoQJTb70DcX5DB1wPQQHZmMD+YGK3B2ViZQKaKbL/btafBuDzeQDiz2b8EeK7B8/z4QJwL/UCq
65nBZs6mQO5D0j4OCanBnc7rQMNyu75Yua/BFPm0QNFB/b8qfarBEGm7QGcX40CsX5LBEFnTQNO5
sT9thI/B+N+MQJDm7UArDYHBk62sQJ/gyUCxQ33Bn4+cQCsP0UADIorB2ZbcQCAlhT5JoofBmhKj
QKQvIkG3g6nBbJ3xQOd7KkFqvqbBL7fVQE7SIkFCKLnB4bqJQLNJxT/ZvKXBDh/aQJB2BEFdF6zB
i02XQFoxiEAWR5DBGySfQDi0F0DZ2ZzB2QGBQL5LXkBOD5nB2CXRQIDjHEE9OK3BJs6yQLZU6UAN
lpzBPk3XQDh1+UDI5qDBtn2qQPvmvT/J2pPBbRKAQHgPsECMPY7BmOfwQLZ6BUCuxZLBwABwQJkI
i0Br1aHBqsAJQZT4xr0NcrPBSvOnQDiKUMBiRqnBL+r4QE3n7kBKyojBXS3aQC0u2z+2Lq7Bm8Nz
QGx+kb9RkaTBN3nzQJ/BIMDkjrDBypIMQTPmA0H+lpvB8ThXQKR160ARenzBElqXQBu8B0ECqoDB
MfzNQN6P0UD/D3nBmD6iQEyNrUAMNnTB9g//QPWAbT573oXB7ajKQHsM3j6GMIDByrLSQCgHM796
KIvBsBWMQHKJGEGhHK7Bv8qfQLCCHkGe8qDBk5qcQHpHM0Fd2arBnSoJQbu0JkEmYqnBsyvrQGeU
O0HXE6jB4FvuQJ3PJkEYLZ7BS132QLQeH0FR4LvB3Y2+QPWOGUGD5b3BsnjPQOUDNEFsNLrBUm2D
QKHxC0AbsKzBfLdWQI+MkD8kwKLBWZDCQN9i90AW8bDBNoT6QHgrAUE9Ha/B+RqYQEzJaUDK64jB
kDS4QNipj0AyyZLBIFW8QF8/NUAWGaDB3N5GQI6bQUDW6JXB8mOTQCSaaj/nrpDB0wtSQAyDqkD5
3YjBFd5lQHpEukD9EpXBuhRUQIfadkDcV6fB5YvtQL6n20B7g5DBX47PQMP8Oz+vBK7Bd7WYQD79
Yr8R6ajBNZzdQPqE07+dwK/BM1oAQS2j90ASaZfBLU+mQJZm5j4wAarBHUvrQELnob4Ky7DBbkK0
QJre97+a26vBCzC/QMM55UBInpDBloPSQKqdrD8SCpDBMjaKQClC6kAXgoDBOfWqQLHbxkCRqnvB
2oWeQMkB0ECdcInBCEjbQOxqXz5zJYjBGJzQQBeMBUHS/LHBUt2eQHMDIkGzdarBBM7iQFSJLEF3
zrPB5oOJQBrKyT9NcabBenLnQHh2G0EsuaHBMD2aQJCfiEAu3JDB7WKfQJl5F0CDYp3BODKCQB28
XkCDVZnBlCzOQKGlG0E4ZqzBsD64QCGFAkGZSZfBlXjfQN8dCEFLGpvBBCaqQMAkuD9YopTB4V2D
QGuEsECvs47BVcrtQIV2DUDli5HB3pxvQFkji0DjCKLBS4UJQUB8KL3sc7TBfRWnQAr2TcA55arB
+kj9QNonw0A43IvBNsrZQNAt4T+29K7BoGhyQH1kjb/f0KXBx9LyQE9xHcDO8LHBRBgRQf3f+UBo
eZnBd3BQQHvQ5UCIBX3BaeaSQIUPBkGK9n7BowfLQOZvz0BG0XXBdVmgQFghqUBE4HPBGVT7QINq
sT5hp4TBUiXDQJ4vdT4wvoHBD6/ZQMQ6P79JWYzBM1HyQCM6AUGnULPBMlfBQP/J8kDS5KzBkOO/
QElUBkGyuLnBtJidQC+2MUFVfqbBHPuNQIDjIkFEK7LBvm6PQDb0FUFkV6XB6VbhQLdXPEEO9K/B
AjUCQWY9KEFcTLXBsFrRQMUMLUHWcbvB8E2DQFPaD0BAPa3BNiJWQMrOlD+WhaPB3ekEQfs6HEGM
kqPBwC7eQMelKUGhDp3BfVKcQBA/a0ByeInBUqy6QFnsj0BswJPBqOi8QCdQNEDxiqDBY0JKQJ2w
QkD60ZXBCRWTQPXsVj9i2JHB36dUQKUwqkBn+onBFwJyQAOxvEDFoZXBeIZRQEIJd0BYXKfB6+/p
QNNG7UAnrpDBgJ/QQDreLz/ira3BqgGZQBRcZL/eP6jB4ljdQI8P278lB6/BwQ36QMTW+0CZKJrB
g0anQP0H3j5LnanBZrnrQLdLxb4LULDBE/ezQBZW+78RBKvB+Ba8QDFs40BxeJLB18rTQDL2qz/2
0I/B+FCMQH4Q7kCVWoHB+RCtQOUjy0BwV33BoWKdQAYY0UClPIrB2TvcQPqfYT4/1YfBKELVQEXp
IkH1arnB/yKjQPWXIkEYq6nB/LDxQE4cK0E2GafBjBKLQKJvyj/WQ6bBLoHaQNL9BEG+KKzB2UCa
QPFmiEBsopDBiKSgQNqTF0ASJ53BE8qCQGajXUBuG5nB0CbRQNJRHUFwba3BaLmyQNvr60DmiJzB
7ZfXQGS++kCW86DBRWGrQNWruD8sYJTBGOCBQH5Er0B2S47B2nrvQBwHDECqeJHB9GRvQGFxikDI
yKHBMMUJQeCxEL5IELTBcTOmQLMLT8D/wanB3FP7QI6f6UAYRYnBrW3bQMoW2j/hw67Bh+JyQEDY
ir8eFqXB5g7yQOZFIsCcHrHB4DANQQ7wAkGQ5pvBx/VVQPvR6kBlS33BCcSVQCr6B0H8E4HBOAPO
QFrz00Da+3jBEjqjQALRrkBGH3TBh3r8QLpGrD6VbYTBv1vEQCldhz5WYIHBQ/HZQOcFQL/S74vB
R9z1QGA5H0EwLbzBhA2+QAVxGUE9Cr7B1MbOQLUNNEFUlLrB4NifQDqrHkEjIaHB0sqcQKC8M0GI
36rBghGMQPAfGUFxVa7BP0XvQDZcJ0GchZ7BPSUJQYSZJ0F26qnB4pzqQMApPEEsXqjBQ+CFQHX1
D0DIIq3BIzxYQL5tmD+ieaPBcTfDQJAT+EDaAbHBswb7QJTLAUFqH6/BnWedQA05akDgUInBcz+6
QE8ZkUAFl5PBZBC+QKhINUA3PqDBWQ5MQGBbQEAQmJXBpTSUQHL5WT9siZHBpC5XQFmKqEAlzojB
PGFnQERfuUCPAZXBIvZRQCIUdUBxHafBS97ZQMNqAEG3NojB4wzHQMUnJT+XG67BJEOZQNtchL/g
saXBpwzaQCUu27/XIa/BIQ73QHp3B0Ewc4/BBVSiQHpQnz5gHqjBTRfjQCyVur5RhLHBegK1QLz0
AsDXRKnBIrG6QGBy5kBUHI7BY1HbQBJZwj9g75DBvPF6QD5l50AvAIDByw6cQPAEw0DLynnBz1iW
QFWHz0BysYjBfk/pQHOYGD8524fBLPXSQF5J90C2P7PBGO24QFLSGkHqJajBf+P7QChZHkFF8LLB
PX6FQIQjsz+CFaTBU23+QLi1BUF+DKPBI9KZQMj4ikDKSJHBZ/aeQDbDFUDBuJzBRrCBQEJTXUA6
+pjB9CDhQI2ODkEWJ6zB1fnEQKBC5kDRWpjB8Q/oQCfo/0BEBpnBoxuwQICNyT90k5PB0Kd/QDz1
sEChSI/B7Xr1QMamEUBtCZXB6EZqQFp6h0BhDaLBq1gDQRAYF727ELfBVjusQNaoVcDgAKfBKI/Z
QKHUA0EafX/B/JTNQBGn1j94EbDBSDp6QHPIpL8YHKHBl4LvQDFlH8BBzLHBhcAJQe3UEEGw/I3B
6F41QOzn4kBshX7BqLSFQJBcBEGhHHzBETq6QDZEykD2enHB3jSPQANzpEDA43PB5rwFQcdMQT+w
KYbBj3HWQH20UT8NpYDBgxbkQJDl5r5/N4rB6VfvQJ3c5UB9GLbB+ZW+QIiL4UAbkK7BldPAQGC9
AUH3JbrBvu3CQOhRKEHBFaPBftCmQPzkIEFQDq/B4pKkQGDtD0F0eKPBZAoDQSLfK0F66q3B9yAM
QZkTFkE7G7bB/FvoQDhTJEFOn7nBW4txQAw3/D+P5qrBz6tVQOYzdD+Uk5/B+U4HQSKZ7kB2EqbB
9jQLQYwEEkEvJqHBm3GfQHaDc0AGvYnBza+4QPRalEABzpTB4JO5QKKYMUCiT6HBOiFLQNzUQUAA
9JTBLXObQO+PiD8cA4/BzcpJQDgzqEAVj4vBsh5xQCiwvkAZR5bBrNFLQDS/a0DF8KbB

>  <OMEGA_E>  (211) 
QO4IPqBpcT5AswQ+JLP1Pg==

>  <OMEGA_NBR>  (211) 
     34763

$$$$
50167988
     RDKit          3D

 73 75  0  0  1  0  0  0  0  0999 V2000
    6.2974    0.6100  -21.7135 C   0  0  0  0  0  0  0  0  0  0  0  0
    4.7563   -1.0300  -20.7583 C   0  0  0  0  0  0  0  0  0  0  0  0
    5.7749    7.4584  -19.3574 C   0  0  0  0  0  0  0  0  0  0  0  0
    6.8619   -1.7565  -21.7499 C   0  0  0  0  0  0  0  0  0  0  0  0
    8.0449    8.0777  -19.1084 C   0  0  0  0  0  0  0  0  0  0  0  0
    5.0813    0.3019  -21.0669 C   0  0  0  0  0  0  0  0  0  0  0  0
    6.9740    8.0504  -19.9669 C   0  0  0  0  0  0  0  0  0  0  0  0
    7.1932   -0.4181  -22.0418 C   0  0  0  0  0  0  0  0  0  0  0  0
    5.6418   -2.0601  -21.1105 C   0  0  0  0  0  0  0  0  0  0  0  0
    5.9838    7.0406  -18.0629 C   0  0  0  0  0  0  0  0  0  0  0  0
    6.6709    1.4831  -17.9620 C   0  0  0  0  0  0  0  0  0  0  0  0
    4.6597    7.7157  -14.5322 C   0  0  0  0  0  0  0  0  0  0  0  0
    4.3036    8.4768  -15.8175 C   0  0  0  0  0  0  0  0  0  0  0  0
    5.7860    6.7043  -14.7834 C   0  0  0  0  0  0  0  0  0  0  0  0
    3.8112    7.4965  -16.8746 C   0  0  0  0  0  0  0  0  0  0  0  0
    5.4128    5.7258  -15.9039 C   0  0  0  0  0  0  0  0  0  0  0  0
    4.8762    6.4309  -17.1932 C   0  0  0  0  0  0  0  0  0  0  0  0
    7.0113    0.5392  -16.8123 C   0  0  0  0  0  0  0  0  0  0  0  0
    6.6244   10.3091  -23.1027 C   0  0  0  0  0  0  0  0  0  0  0  0
    7.4230   10.9802  -20.8166 C   0  0  0  0  0  0  0  0  0  0  0  0
    5.0556   10.1410  -21.1444 C   0  0  0  0  0  0  0  0  0  0  0  0
    4.1723    1.4052  -20.6272 C   0  0  0  0  0  0  0  0  0  0  0  0
    7.0369    8.5243  -21.4007 C   0  0  0  0  0  0  0  0  0  0  0  0
    4.8814    4.2564  -18.2636 C   0  0  0  0  0  0  0  0  0  0  0  0
    4.9327    2.2804  -19.6281 C   0  0  1  0  0  0  0  0  0  0  0  0
    4.0388    3.4040  -19.1622 C   0  0  2  0  0  0  0  0  0  0  0  0
    6.5300    9.9818  -21.5956 C   0  0  0  0  0  0  0  0  0  0  0  0
    5.3793    1.4611  -18.4800 N   0  0  0  0  0  0  0  0  0  0  0  0
    4.1298    5.4541  -17.9710 N   0  0  0  0  0  0  0  0  0  0  0  0
    7.4900    2.3254  -18.3154 O   0  0  0  0  0  0  0  0  0  0  0  0
    3.6017    4.1826  -20.2795 O   0  0  0  0  0  0  0  0  0  0  0  0
    8.3720   -0.1183  -22.6312 F   0  0  0  0  0  0  0  0  0  0  0  0
    5.3227   -3.3404  -20.8233 F   0  0  0  0  0  0  0  0  0  0  0  0
    7.6332    7.3793  -17.5730 S   0  0  0  0  0  0  0  0  0  0  0  0
    6.5375    1.6349  -21.9549 H   0  0  0  0  0  0  0  0  0  0  0  0
    3.8300   -1.2596  -20.2527 H   0  0  0  0  0  0  0  0  0  0  0  0
    4.8298    7.3616  -19.8710 H   0  0  0  0  0  0  0  0  0  0  0  0
    7.5433   -2.5510  -22.0162 H   0  0  0  0  0  0  0  0  0  0  0  0
    9.0160    8.4806  -19.3556 H   0  0  0  0  0  0  0  0  0  0  0  0
    4.9870    8.4353  -13.7674 H   0  0  0  0  0  0  0  0  0  0  0  0
    3.7687    7.1795  -14.1736 H   0  0  0  0  0  0  0  0  0  0  0  0
    3.5123    9.2096  -15.6013 H   0  0  0  0  0  0  0  0  0  0  0  0
    5.1958    9.0003  -16.1915 H   0  0  0  0  0  0  0  0  0  0  0  0
    6.6985    7.2474  -15.0705 H   0  0  0  0  0  0  0  0  0  0  0  0
    5.9721    6.1375  -13.8593 H   0  0  0  0  0  0  0  0  0  0  0  0
    2.9043    6.9964  -16.5039 H   0  0  0  0  0  0  0  0  0  0  0  0
    3.5740    8.0514  -17.7943 H   0  0  0  0  0  0  0  0  0  0  0  0
    6.3076    5.1447  -16.1713 H   0  0  0  0  0  0  0  0  0  0  0  0
    4.6333    5.0467  -15.5281 H   0  0  0  0  0  0  0  0  0  0  0  0
    8.0197    0.7670  -16.4365 H   0  0  0  0  0  0  0  0  0  0  0  0
    6.2797    0.6705  -16.0014 H   0  0  0  0  0  0  0  0  0  0  0  0
    6.9796   -0.5005  -17.1700 H   0  0  0  0  0  0  0  0  0  0  0  0
    5.9951    9.6082  -23.6708 H   0  0  0  0  0  0  0  0  0  0  0  0
    6.2764   11.3380  -23.2769 H   0  0  0  0  0  0  0  0  0  0  0  0
    7.6692   10.2144  -23.4336 H   0  0  0  0  0  0  0  0  0  0  0  0
    7.3669   10.7605  -19.7402 H   0  0  0  0  0  0  0  0  0  0  0  0
    8.4646   10.8829  -21.1567 H   0  0  0  0  0  0  0  0  0  0  0  0
    7.0718   12.0064  -21.0000 H   0  0  0  0  0  0  0  0  0  0  0  0
    4.9729    9.9108  -20.0719 H   0  0  0  0  0  0  0  0  0  0  0  0
    4.7270   11.1753  -21.3237 H   0  0  0  0  0  0  0  0  0  0  0  0
    4.4202    9.4498  -21.7176 H   0  0  0  0  0  0  0  0  0  0  0  0
    3.8706    2.0080  -21.4964 H   0  0  0  0  0  0  0  0  0  0  0  0
    3.2781    0.9818  -20.1464 H   0  0  0  0  0  0  0  0  0  0  0  0
    8.0821    8.4711  -21.7394 H   0  0  0  0  0  0  0  0  0  0  0  0
    6.4175    7.8552  -22.0160 H   0  0  0  0  0  0  0  0  0  0  0  0
    5.1029    3.7151  -17.3319 H   0  0  0  0  0  0  0  0  0  0  0  0
    5.8230    4.5178  -18.7685 H   0  0  0  0  0  0  0  0  0  0  0  0
    5.8110    2.7091  -20.1330 H   0  0  0  0  0  0  0  0  0  0  0  0
    3.1830    2.9963  -18.6041 H   0  0  0  0  0  0  0  0  0  0  0  0
    4.7116    0.8537  -18.0495 H   0  0  0  0  0  0  0  0  0  0  0  0
    3.3122    5.1970  -17.4559 H   0  0  0  0  0  0  0  0  0  0  0  0
    3.8595    5.8775  -18.8357 H   0  0  0  0  0  0  0  0  0  0  0  0
    3.0670    3.6445  -20.8513 H   0  0  0  0  0  0  0  0  0  0  0  0
  1  6  2  0
  1  8  1  0
  2  6  1  0
  2  9  2  0
  3  7  1  0
  3 10  2  0
  4  8  2  0
  4  9  1  0
  5  7  2  0
  5 34  1  0
  6 22  1  0
  7 23  1  0
  8 32  1  0
  9 33  1  0
 10 17  1  0
 10 34  1  0
 11 18  1  0
 11 28  1  0
 11 30  2  0
 12 13  1  0
 12 14  1  0
 13 15  1  0
 14 16  1  0
 15 17  1  0
 16 17  1  0
 17 29  1  0
 19 27  1  0
 20 27  1  0
 21 27  1  0
 22 25  1  0
 23 27  1  0
 24 26  1  0
 24 29  1  0
 25 26  1  0
 25 28  1  0
 26 31  1  0
  1 35  1  0
  2 36  1  0
  3 37  1  0
  4 38  1  0
  5 39  1  0
 12 40  1  0
 12 41  1  0
 13 42  1  0
 13 43  1  0
 14 44  1  0
 14 45  1  0
 15 46  1  0
 15 47  1  0
 16 48  1  0
 16 49  1  0
 18 50  1  0
 18 51  1  0
 18 52  1  0
 19 53  1  0
 19 54  1  0
 19 55  1  0
 20 56  1  0
 20 57  1  0
 20 58  1  0
 21 59  1  0
 21 60  1  0
 21 61  1  0
 22 62  1  0
 22 63  1  0
 23 64  1  0
 23 65  1  0
 24 66  1  0
 24 67  1  0
 25 68  1  6
 26 69  1  1
 28 70  1  0
 29 71  1  0
 29 72  1  0
 31 73  1  0
M  CHG  1  29   1
M  END
>  <OMEGA_C>  (212) 
/YPJQHkpHD9Jta3B7TOYQIDYg7/xEKbBUcy4QGSr7kDr25rB75TbQDDW4L/W/63B+LcAQSk+AUEN
3pjBaZqiQFWNmj4GiajBYyvfQEfOAEFAvJ/B5S7mQLsX1r6xVbDBkom0QB/YA8A/4qjBqXu/QFBM
4UDkgJDBAXjVQLrVvT8hso/BSxyVQLLm9kDSg2jBfreJQAKhB0FqFH3B2Sa5QKSJ1kDziGzBaupz
QJDj70Ao/4bBsDWtQOs5t0A+dn7BywmcQKfJzUDBi4nBeFzgQB4KCj+Ff4bBOfvTQAvyJEFr0rjB
f4ntQAevL0FkiKbBTMehQGRBIkGsJ6nB4IOFQCvcsz95BKXBJS7hQKxjCEGmNKvBHzScQC00iEDO
G5LBndidQPXxEUBtBp3Bnz2BQMfaWUAuTJnBtPXQQH+1H0HGw6zB3SKsQCQEuz8V15PBQyeEQOiH
rkCzxI/BSq7vQNnSFEDrhZLB4oJmQPzXhUBcPKLB0/MFQbxT8r2hDLXBTlOqQDfJVcAflqbBWUP0
QDUj7EBwlYzBkDPRQMFE0T+6o6/B4R51QDA8ob+LBaLB142aQCiS60C5957B0WLxQONDI8A5IbDB
V0EQQbSwB0FN2JrB35WfQCr3BkE8R1zBMzJxQBO+5UAdx2LBxchgQGZaE0G8nnnBR0SmQGIBEEFJ
iIHBCVrWQKTq50C4IHHBExu/QGNmxEB/v13BOOA5QC/i30D5B4TBtrtkQLPSAEGlWo7BPdjJQCqh
pEDYXoHBSkSUQIl+oUD+cnjBvlAAQWFYRD/ufYPBAPPIQJqkKz/gAoDBxljfQMkhAL8YXInB7de/
QCq7GUHXXb3BYtjIQEVoNUEbN7rBDWr1QGNuI0EOeLvBr73rQAwrLEH8653B724HQUUgLkEBQanB
NEziQCYaQEENAKjBGSKfQL2SHkE+k6DBmUOXQBnOMkHnlqrBNXKNQHAyF0Gmva3Btbh3QFyDAECg
+KvB28xRQFtXez/aK6HBLFABQYeJB0Ff6q3BClzNQJtd+0DAILDBGkujQLPEbUDIp4rB61W6QDmS
kEDuJZbBavO5QL5hLUBTEKHBhrZLQMXDP0Am1ZTBeMWWQNuNWj9KZZDBdPpTQOBNpkCopYvBqgJ3
QHkUvECVr5bBsklEQCY/aUBrz6bB

>  <OMEGA_E>  (212) 
sP1jPg==

>  <OMEGA_NBR>  (212) 
     36268

$$$$
50167979
     RDKit          3D

 64 66  0  0  1  0  0  0  0  0999 V2000
    7.0961    7.2618  -18.0874 C   0  0  0  0  0  0  0  0  0  0  0  0
    7.6791    7.7688  -19.3326 C   0  0  0  0  0  0  0  0  0  0  0  0
    6.4993    0.6923  -21.6991 C   0  0  0  0  0  0  0  0  0  0  0  0
    4.7757   -0.9035  -21.0236 C   0  0  0  0  0  0  0  0  0  0  0  0
    6.9359   -1.7015  -21.8294 C   0  0  0  0  0  0  0  0  0  0  0  0
    5.2050    0.4270  -21.2021 C   0  0  0  0  0  0  0  0  0  0  0  0
    7.3670   -0.3709  -22.0015 C   0  0  0  0  0  0  0  0  0  0  0  0
    5.6386   -1.9668  -21.3454 C   0  0  0  0  0  0  0  0  0  0  0  0
    5.7475    7.0203  -18.2037 C   0  0  0  0  0  0  0  0  0  0  0  0
    6.7476    7.8767  -20.3350 C   0  0  0  0  0  0  0  0  0  0  0  0
    6.6395    1.3933  -18.0191 C   0  0  0  0  0  0  0  0  0  0  0  0
    4.2674    7.3923  -16.1051 C   0  0  0  0  0  0  0  0  0  0  0  0
    5.3199    6.3481  -15.6899 C   0  0  0  0  0  0  0  0  0  0  0  0
    4.8476    6.4398  -17.1445 C   0  0  0  0  0  0  0  0  0  0  0  0
    6.9241    0.3206  -16.9734 C   0  0  0  0  0  0  0  0  0  0  0  0
    7.6857   10.7592  -20.9830 C   0  0  0  0  0  0  0  0  0  0  0  0
    5.2433   10.2381  -21.3889 C   0  0  0  0  0  0  0  0  0  0  0  0
    6.8528   10.3161  -23.3136 C   0  0  0  0  0  0  0  0  0  0  0  0
    4.3112    1.5688  -20.7868 C   0  0  0  0  0  0  0  0  0  0  0  0
    7.0284    8.4033  -21.7150 C   0  0  0  0  0  0  0  0  0  0  0  0
    4.7533    4.1880  -18.0103 C   0  0  0  0  0  0  0  0  0  0  0  0
    4.9941    2.3741  -19.6660 C   0  0  1  0  0  0  0  0  0  0  0  0
    4.0605    3.4644  -19.1541 C   0  0  2  0  0  0  0  0  0  0  0  0
    6.6972    9.9194  -21.8313 C   0  0  0  0  0  0  0  0  0  0  0  0
    5.3653    1.4618  -18.5690 N   0  0  0  0  0  0  0  0  0  0  0  0
    3.9851    5.3755  -17.6443 N   0  0  0  0  0  0  0  0  0  0  0  0
    7.4935    2.2375  -18.2707 O   0  0  0  0  0  0  0  0  0  0  0  0
    3.7997    4.3811  -20.2180 O   0  0  0  0  0  0  0  0  0  0  0  0
    8.6144   -0.1130  -22.4544 F   0  0  0  0  0  0  0  0  0  0  0  0
    5.2255   -3.2428  -21.1779 F   0  0  0  0  0  0  0  0  0  0  0  0
    5.1767    7.3556  -19.8092 S   0  0  0  0  0  0  0  0  0  0  0  0
    7.6611    7.0967  -17.1819 H   0  0  0  0  0  0  0  0  0  0  0  0
    8.7212    8.0276  -19.4483 H   0  0  0  0  0  0  0  0  0  0  0  0
    6.8227    1.7121  -21.8468 H   0  0  0  0  0  0  0  0  0  0  0  0
    3.7864   -1.1063  -20.6407 H   0  0  0  0  0  0  0  0  0  0  0  0
    7.6001   -2.5188  -22.0684 H   0  0  0  0  0  0  0  0  0  0  0  0
    3.2229    7.2802  -15.7788 H   0  0  0  0  0  0  0  0  0  0  0  0
    4.5315    8.4598  -16.1293 H   0  0  0  0  0  0  0  0  0  0  0  0
    6.3370    6.6679  -15.4192 H   0  0  0  0  0  0  0  0  0  0  0  0
    5.0284    5.4883  -15.0687 H   0  0  0  0  0  0  0  0  0  0  0  0
    7.9333    0.4680  -16.5614 H   0  0  0  0  0  0  0  0  0  0  0  0
    6.1833    0.3927  -16.1634 H   0  0  0  0  0  0  0  0  0  0  0  0
    6.8605   -0.6731  -17.4410 H   0  0  0  0  0  0  0  0  0  0  0  0
    8.7171   10.5363  -21.2934 H   0  0  0  0  0  0  0  0  0  0  0  0
    7.4807   11.8293  -21.1339 H   0  0  0  0  0  0  0  0  0  0  0  0
    7.5607   10.5083  -19.9193 H   0  0  0  0  0  0  0  0  0  0  0  0
    4.5384    9.6438  -21.9889 H   0  0  0  0  0  0  0  0  0  0  0  0
    5.1207    9.9877  -20.3249 H   0  0  0  0  0  0  0  0  0  0  0  0
    5.0407   11.3088  -21.5394 H   0  0  0  0  0  0  0  0  0  0  0  0
    6.1556    9.7262  -23.9267 H   0  0  0  0  0  0  0  0  0  0  0  0
    6.6294   11.3866  -23.4320 H   0  0  0  0  0  0  0  0  0  0  0  0
    7.8847   10.1186  -23.6395 H   0  0  0  0  0  0  0  0  0  0  0  0
    4.1291    2.2248  -21.6507 H   0  0  0  0  0  0  0  0  0  0  0  0
    3.3536    1.1703  -20.4206 H   0  0  0  0  0  0  0  0  0  0  0  0
    8.0937    8.2526  -21.9441 H   0  0  0  0  0  0  0  0  0  0  0  0
    6.4154    7.8479  -22.4400 H   0  0  0  0  0  0  0  0  0  0  0  0
    4.8249    3.5164  -17.1422 H   0  0  0  0  0  0  0  0  0  0  0  0
    5.7634    4.4884  -18.3257 H   0  0  0  0  0  0  0  0  0  0  0  0
    5.9004    2.8455  -20.0740 H   0  0  0  0  0  0  0  0  0  0  0  0
    3.1274    3.0090  -18.7908 H   0  0  0  0  0  0  0  0  0  0  0  0
    4.6595    0.8576  -18.1994 H   0  0  0  0  0  0  0  0  0  0  0  0
    3.3273    5.1297  -16.9324 H   0  0  0  0  0  0  0  0  0  0  0  0
    3.4953    5.7065  -18.4508 H   0  0  0  0  0  0  0  0  0  0  0  0
    3.3669    3.9253  -20.9304 H   0  0  0  0  0  0  0  0  0  0  0  0
  1  2  1  0
  1  9  2  0
  2 10  2  0
  3  6  2  0
  3  7  1  0
  4  6  1  0
  4  8  2  0
  5  7  2  0
  5  8  1  0
  6 19  1  0
  7 29  1  0
  8 30  1  0
  9 14  1  0
  9 31  1  0
 10 20  1  0
 10 31  1  0
 11 15  1  0
 11 25  1  0
 11 27  2  0
 12 13  1  0
 12 14  1  0
 13 14  1  0
 14 26  1  0
 16 24  1  0
 17 24  1  0
 18 24  1  0
 19 22  1  0
 20 24  1  0
 21 23  1  0
 21 26  1  0
 22 23  1  0
 22 25  1  0
 23 28  1  0
  1 32  1  0
  2 33  1  0
  3 34  1  0
  4 35  1  0
  5 36  1  0
 12 37  1  0
 12 38  1  0
 13 39  1  0
 13 40  1  0
 15 41  1  0
 15 42  1  0
 15 43  1  0
 16 44  1  0
 16 45  1  0
 16 46  1  0
 17 47  1  0
 17 48  1  0
 17 49  1  0
 18 50  1  0
 18 51  1  0
 18 52  1  0
 19 53  1  0
 19 54  1  0
 20 55  1  0
 20 56  1  0
 21 57  1  0
 21 58  1  0
 22 59  1  6
 23 60  1  1
 25 61  1  0
 26 62  1  0
 26 63  1  0
 28 64  1  0
M  CHG  1  26   1
M  END
>  <OMEGA_C>  (213) 
YxPjQKpg6EDuspDB5Lr1QPSZ+EAzqZrBXfrPQL86MT+9l63BUNKYQP9OZ79lMKjBTfPdQM7J2b+I
oq7BCY+mQNKi2j4AnqnBYr7rQNjkvb4WA7DBem+0QGLA+79cw6rBouu3QLSm4EAdoZHBluzXQB8O
/EAfrqLBHHfUQJNXsj8nJ5DBcI6IQHqN7EBJ14DBsTyqQIsjy0ClCXvBSR+bQJQSzkDgJ4nB3pHd
QJ4kpD6WyYfB//D1QK8lLEEy3afBMsmnQDHPI0GPHKvBTUrbQKsOJUFJgrrBwPWJQNrPyD9GS6bB
6OjgQAB0BkFbuK3BYRuYQGAEhkAsFZDB+c+fQKXxF0D+U53BOO+BQPq4XUCRO5nBQU/WQPa1HkGK
pq7B1rCrQHsduz9RjZTBMQx/QBYErEBtJ43BXsrvQAczD0B4KpLBHS5zQK0xjECPvqHBfdQJQYB8
572iorPBGzenQAiKT8BTbKnBd6elQMJg60BAeZ7BDCj1QCQY40CCdInBAooLQSFxAEELlpvBK1Pa
QLEm2z9Pxq7BqVRyQFWbjb8UIKXBTzTzQM00IcAkjLDBLEROQKr36EDEdXzBzwGRQHJbB0HYCIHB
oMjKQMRf1UAmtXbB5uigQIugr0A5GXHBat39QO6X7z7IfYTB2d3FQBMSyT6tToHBZInbQPlNLL8l
h4vBcHkLQZqUKEHtWKrBmGHvQANFPUEjEqnB+PDxQP0hKEHGWp/BRDqRQCVNGkE36a/BJt2jQKLN
H0FNmaLBxk2hQKfwNEGrUKzBv/rEQHOeG0H1ab/BNyTUQKcvNkGxdLvBq0/8QO7lIUGnHb3BQiGE
QKRjDkC8NK3BYKFWQGnNlT9QXaPB238BQdkKBEF4ja/Bp0rNQPgh+0AyhbPBeGWaQB4MYUAiI4nB
Bm64QE6hj0Adm5LBU9C8QAAcNkCbl6DBwyZIQGCTQECmU5bBUxqVQLyKWz9TmJHBwPFUQFAmpEB6
dYfBdbNfQO6btkA9m5PBZ3tXQIs3e0B1cafB0HLmQKhj50ApIo7BMXv9QEGk+0Ar+JbBBPrRQABx
PD/9Vq3B4OiZQJArXL9gkKjBVr/fQEIu1L/vhK7BefqnQC/x8D6awanBYe3tQJV9p740n6/B1q+1
QDYi9r/ACKvBPPO7QGrr4EDVapDBBb7jQLWiAUE+pZ/BV4XSQHTCqj++KpDBvwyGQMXg7ECd8oDB
BS2lQD1FykBZ1XnB1iybQClnzkAK4IjBPtXYQEXelz7BXofB05DvQHujK0HzKbbBKsnCQH8LLUHr
i6XBMYSwQLgfE0HRkbTBMAKLQOY/zj+2mqbBpU30QHHfDEHEgqnBILSYQKiEh0BedpDBLcefQP+m
GUC6Z53Bsc+BQJ9sX0ATYJnBJ1bVQBHwHUEgPq7BUv+pQFoPvT+wlJTBCUKAQL2yrUDPso3Bgc3v
QLFrBkCfb5LBE8twQA2YjECL66HBLC0LQYDmjb3s37LBnAKoQAq5TMDzA6rBWfSvQPQR8EDscJ3B
fDf1QN+B3kDvpIbB7YgPQdzZAUEPsZbBO57cQPDK4D+qU67BLL9zQJAXiL+OwqXB9x71QIVnHsCC
WLDBrD1HQJcf6kBngH7B3HyPQNpjB0F+wIDBc+TEQKRj00DvtXPBbQaZQIe7rkBatXDBg0r5QCqw
xz5NDITBMy3BQNrf7D6U/YDBX5PUQMEtNr9FuYrBkxj9QGBIIUGAbLzBrp3aQJGyN0Hu27nBctUE
QVKzM0GV2bHBfeqvQJmnI0Epyp/BlCzdQCYZNUHBVqHBXh+uQGUYOUEaWanBoESdQPQ8CUEeG6/B
1BqcQAeBH0HOL7jBRBC+QEP2CEEB6LrBZzGGQCCtEUDGgq3B/OBXQPhEmz9696PBpUIJQbvgFEG6
bKfBtVb6QMe6AEENs6/BvmmbQIJaZUAxZ4nBFN+4QHjZkEA6K5PBG2C9QIGFN0D3XKDBjLlIQFEq
QkArPJbB2UuSQP0+az+KlpHBNYRSQIyjpUCWg4jBc/FlQKCPuUA6WJTBFClUQD5Ke0CBfKfBd6Xk
QKv930ANi5DBmxj5QIZPAEGYRJfB94TQQDrTPj/Dwq3Bo+OYQPxTXb9b+KjB2I7eQHRy0r/kM6/B
LcKmQMhe8D5qDarBpIPsQAPdnr7+NrDB7rW0QGHE9b+UnKvB8Ue5QBVP5kABpI/BTTjcQDYSD0FM
C5vBISTTQGwHpz80epDBgnyFQO+250AbZn/BI2KoQJ/8xkBPlXnBE42bQHjozUAkdojBRGTaQAzV
bz45+ofBBsXrQFKGLUE5bbXB4KWkQOK/IUFcQK7BT47fQDqBBkFatbHBOfiJQDgFzT/mm6bBRbTn
QKZeIUGaW6LBtK+aQAHkh0Cvs5DBI62fQAd0GEDJep3B7nmCQGjkXkBZSpnBB6XVQB6YHUFhza3B
RVuqQNqTuT8FvpTBnbuBQCd1rUCHv43BawHwQFTJBUCqp5LBNtJvQJgAjEAF0qHBqW4KQaAGLL2e
eLPBt2enQFjDTMB3kqrBwWyoQHYcCUFR5pbBCrL1QF4LxkBjv4zBxXQNQdSrAEGwCpnBB/HaQF5W
4j/5ta7BKvNxQGK/ib+RHqbB3O/zQGstHcD9LbHBJbVHQKM84UDIVnvBmOWLQPQWBUHAzn3BZsfH
QP0D0kA82HPBYbyfQLkSqUBDYHHBbQX7QLH0pj5cwoTB8BXDQPMjuz5+d4HBgUnWQN3rQr9Uk4vB
TkgHQVrjKkHxPrXBedffQL4SK0Finb3BzK3kQGz7PUFA3LLB5iGUQHiMFkEa3ajB8vqdQA9HMkFg
uqvBnySZQGFeH0GCe7bBtAPQQOHG9UATXKzBd1DTQFFpBEF35LnBDi4BQSLgA0HOo7HBfk6EQKSa
EUAPbK3BVoNWQEwHmT87y6PBDy7aQFhFMEEsHp/B1l8FQaXFIkFxy6LBxUOfQFmpZkC9ponBbA66
QEnokUCFz5PBnzK9QDy5NUBLk6DBxO1KQI9EQkBc0pXBidWSQCxgYz8/tJHB6ZlUQPtrpEBSyojB
EABqQGEZukBPX5TBXoVRQOG7eUDuNqfBm97hQHYe3EAfiJDBSjP4QMUM6kDTJZrBVCfKQKm5Gz+A
Dq7BZcWYQDuFd7/roaXBKrDaQFzk4r+D363Bjq2jQGxWtD4OiqjBqrHlQAZo575srrDBNTi0QF7h
AcA1WqjBvmm2QBwi4UD1ZZHBjLHcQCbk+kCBmqHBNerWQD68uT8dT5DBSmWCQOeF8EBgtYHBayCj
QGOez0DdG3vBu/mWQNbH0EA2aInBzFXgQK4MAj+oAofBe4wBQQ6WL0HnXbDB6cAJQXggJEEglJ3B
bkTHQJi2LEFuFKPBraKHQOd7wD+zN6XBLn/rQDESC0HdvKrB/ruXQC6giEA4VpDBD8ufQNiOGECs
Hp3BfMWCQL6VYUCEhJnBrR3yQC+WIkE70abBIPqsQI0exz/U7JPBX7J6QPrirUCVpI3BFkLzQF4C
DEDfrpPB4215QNRnjUA5T6LBHV4FQSyHTL6w4bXBeNGpQJnkUsAAmKXBNpCnQCNh9UBIx53BKqzx
QJFYz0D4ionBgC4NQUtw50BfR5vBPHTSQNJRzz/sQ7DBpOR2QICglL8oVaHBp73vQHutJcCu86/B
nb9AQItU7UBAMX/BJvOKQP1QCUF7GILBkRfDQL8t2kCm93XBOYSYQFDgtEDw93DBBuUAQV4JIj9e
doTBQOfKQEf7PT8TSYDBqBjbQL4HCL+dk4nBHgrsQPq9LkGkALfBrrYDQSNfQEHE863Biv0QQYjx
KEFa+bLBBwcEQTDvGkFWpJbBiSUZQdaNHUGqTKDBrd4LQXL7NEEUR5vB75a6QOufI0EqPpzBhdHM
QD5oPUGqqaDBpwmwQFFJLEEisKnBX5N+QNSgBkABS6zBlXZUQO7ojj+WgKHBb/cEQVfGBEFY163B
SErTQF3PCkERILHBsUKaQPjTZkCuV4nB0+K3QL9Ck0DFvJLBdkO8QMyNM0AOC6HBLeNHQPwzR0Ad
15bB3WCWQE/ihD8yD5DBHHVPQPNHpUC3JojBPKBcQGvut0BHPpTBQyxfQPoRfUCPEajB

>  <OMEGA_E>  (213) 
QHfEPQCIpT0As1w+gBe9Pg==

>  <OMEGA_NBR>  (213) 
     40683

$$$$
50167938
     RDKit          3D

 63 65  0  0  1  0  0  0  0  0999 V2000
    6.4922    0.6843  -21.6559 C   0  0  0  0  0  0  0  0  0  0  0  0
    4.7925   -0.9314  -20.9678 C   0  0  0  0  0  0  0  0  0  0  0  0
    6.9570   -1.7043  -21.7868 C   0  0  0  0  0  0  0  0  0  0  0  0
    7.9432    7.8324  -19.3230 C   0  0  0  0  0  0  0  0  0  0  0  0
    5.2045    0.4040  -21.1487 C   0  0  0  0  0  0  0  0  0  0  0  0
    7.3711   -0.3689  -21.9626 C   0  0  0  0  0  0  0  0  0  0  0  0
    5.6658   -1.9844  -21.2949 C   0  0  0  0  0  0  0  0  0  0  0  0
    6.8062    7.8454  -20.0924 C   0  0  0  0  0  0  0  0  0  0  0  0
    5.8982    7.0960  -18.1419 C   0  0  0  0  0  0  0  0  0  0  0  0
    6.6013    1.4330  -17.9446 C   0  0  0  0  0  0  0  0  0  0  0  0
    4.2477    7.4353  -16.1521 C   0  0  0  0  0  0  0  0  0  0  0  0
    5.2235    6.3293  -15.7223 C   0  0  0  0  0  0  0  0  0  0  0  0
    4.8627    6.5149  -17.2030 C   0  0  0  0  0  0  0  0  0  0  0  0
    6.9030    0.3281  -16.9370 C   0  0  0  0  0  0  0  0  0  0  0  0
    6.5811   10.1468  -23.2047 C   0  0  0  0  0  0  0  0  0  0  0  0
    7.4895   10.6903  -20.9296 C   0  0  0  0  0  0  0  0  0  0  0  0
    5.0405   10.1084  -21.2143 C   0  0  0  0  0  0  0  0  0  0  0  0
    4.2927    1.5341  -20.7390 C   0  0  0  0  0  0  0  0  0  0  0  0
    6.8116    8.2911  -21.5369 C   0  0  0  0  0  0  0  0  0  0  0  0
    4.7465    4.2612  -18.0663 C   0  0  0  0  0  0  0  0  0  0  0  0
    4.9674    2.3677  -19.6341 C   0  0  1  0  0  0  0  0  0  0  0  0
    4.0323    3.4719  -19.1511 C   0  0  2  0  0  0  0  0  0  0  0  0
    6.4783    9.8026  -21.7023 C   0  0  0  0  0  0  0  0  0  0  0  0
    5.6757    7.3910  -19.4042 N   0  0  0  0  0  0  0  0  0  0  0  0
    5.3327    1.4847  -18.5105 N   0  0  0  0  0  0  0  0  0  0  0  0
    4.0089    5.4949  -17.7980 N   0  0  0  0  0  0  0  0  0  0  0  0
    7.5120    2.1509  -18.3447 O   0  0  0  0  0  0  0  0  0  0  0  0
    3.7330    4.3389  -20.2467 O   0  0  0  0  0  0  0  0  0  0  0  0
    8.6128   -0.0973  -22.4234 F   0  0  0  0  0  0  0  0  0  0  0  0
    5.2677   -3.2650  -21.1267 F   0  0  0  0  0  0  0  0  0  0  0  0
    7.5778    7.3013  -17.7274 S   0  0  0  0  0  0  0  0  0  0  0  0
    6.8018    1.7077  -21.8080 H   0  0  0  0  0  0  0  0  0  0  0  0
    3.8081   -1.1460  -20.5789 H   0  0  0  0  0  0  0  0  0  0  0  0
    7.6294   -2.5140  -22.0290 H   0  0  0  0  0  0  0  0  0  0  0  0
    8.9262    8.1150  -19.6696 H   0  0  0  0  0  0  0  0  0  0  0  0
    3.1790    7.3513  -15.9058 H   0  0  0  0  0  0  0  0  0  0  0  0
    4.5546    8.4902  -16.0983 H   0  0  0  0  0  0  0  0  0  0  0  0
    6.2298    6.5911  -15.3633 H   0  0  0  0  0  0  0  0  0  0  0  0
    4.8541    5.4522  -15.1708 H   0  0  0  0  0  0  0  0  0  0  0  0
    7.9761    0.3344  -16.6955 H   0  0  0  0  0  0  0  0  0  0  0  0
    6.3200    0.4991  -16.0200 H   0  0  0  0  0  0  0  0  0  0  0  0
    6.6301   -0.6462  -17.3687 H   0  0  0  0  0  0  0  0  0  0  0  0
    5.8711    9.5277  -23.7726 H   0  0  0  0  0  0  0  0  0  0  0  0
    6.3416   11.2100  -23.3544 H   0  0  0  0  0  0  0  0  0  0  0  0
    7.6040    9.9483  -23.5571 H   0  0  0  0  0  0  0  0  0  0  0  0
    7.4330   10.4612  -19.8552 H   0  0  0  0  0  0  0  0  0  0  0  0
    8.5075   10.4888  -21.2944 H   0  0  0  0  0  0  0  0  0  0  0  0
    7.2451   11.7505  -21.0917 H   0  0  0  0  0  0  0  0  0  0  0  0
    4.9566    9.8666  -20.1445 H   0  0  0  0  0  0  0  0  0  0  0  0
    4.8207   11.1754  -21.3672 H   0  0  0  0  0  0  0  0  0  0  0  0
    4.3227    9.5008  -21.7849 H   0  0  0  0  0  0  0  0  0  0  0  0
    4.0906    2.1754  -21.6095 H   0  0  0  0  0  0  0  0  0  0  0  0
    3.3461    1.1216  -20.3598 H   0  0  0  0  0  0  0  0  0  0  0  0
    7.8097    8.1029  -21.9592 H   0  0  0  0  0  0  0  0  0  0  0  0
    6.0631    7.7036  -22.0889 H   0  0  0  0  0  0  0  0  0  0  0  0
    4.7992    3.6580  -17.1480 H   0  0  0  0  0  0  0  0  0  0  0  0
    5.7645    4.5079  -18.4019 H   0  0  0  0  0  0  0  0  0  0  0  0
    5.8763    2.8290  -20.0480 H   0  0  0  0  0  0  0  0  0  0  0  0
    3.1149    3.0249  -18.7406 H   0  0  0  0  0  0  0  0  0  0  0  0
    4.6251    0.8872  -18.1332 H   0  0  0  0  0  0  0  0  0  0  0  0
    3.2582    5.2933  -17.1689 H   0  0  0  0  0  0  0  0  0  0  0  0
    3.6379    5.8443  -18.6584 H   0  0  0  0  0  0  0  0  0  0  0  0
    3.2864    3.8481  -20.9266 H   0  0  0  0  0  0  0  0  0  0  0  0
  1  5  2  0
  1  6  1  0
  2  5  1  0
  2  7  2  0
  3  6  2  0
  3  7  1  0
  4  8  2  0
  4 31  1  0
  5 18  1  0
  6 29  1  0
  7 30  1  0
  8 19  1  0
  8 24  1  0
  9 13  1  0
  9 24  2  0
  9 31  1  0
 10 14  1  0
 10 25  1  0
 10 27  2  0
 11 12  1  0
 11 13  1  0
 12 13  1  0
 13 26  1  0
 15 23  1  0
 16 23  1  0
 17 23  1  0
 18 21  1  0
 19 23  1  0
 20 22  1  0
 20 26  1  0
 21 22  1  0
 21 25  1  0
 22 28  1  0
  1 32  1  0
  2 33  1  0
  3 34  1  0
  4 35  1  0
 11 36  1  0
 11 37  1  0
 12 38  1  0
 12 39  1  0
 14 40  1  0
 14 41  1  0
 14 42  1  0
 15 43  1  0
 15 44  1  0
 15 45  1  0
 16 46  1  0
 16 47  1  0
 16 48  1  0
 17 49  1  0
 17 50  1  0
 17 51  1  0
 18 52  1  0
 18 53  1  0
 19 54  1  0
 19 55  1  0
 20 56  1  0
 20 57  1  0
 21 58  1  6
 22 59  1  1
 25 60  1  0
 26 61  1  0
 26 62  1  0
 28 63  1  0
M  CHG  1  26   1
M  END
>  <OMEGA_C>  (214) 
fsDPQNksLz80P63BaVyZQO1ybr8ovqfBlp/eQCUn2r9ES67BhS7+QPmi+kCalZrB44qmQLrUzj6R
MKnBQODrQPTlvL6As6/BlU61QGcC/r/iW6rBUczZQHUN+0A7vaDB6728QK0S40CEIpHBqD3TQB5s
tz+Bjo/BgO2HQMHt7UB3N4HBEienQMiJykCSjnvBJJubQGZ60EDEn4nBPuXcQNb8pz4Af4fBDZjS
QGxZIkE4o7nB4KnvQJELK0Hab6fBo0uhQDG8IUHotqnB3l2JQJBdxD9n6aXBPvjZQFSoBEGfS6zB
8OKXQN9biEDgh5DBUfWeQKeIF0CaEp3BxwiBQLUzXkB9NZnBME7PQJ7XHEFSnq3BPp+1QNyC7EDN
O5vBHKWqQLQJvj+CFZTBjkiAQDTWr0BgYo7BFmLwQIunCUDwwZLBWOluQOzXikA0+aHBGc4JQQRa
x70rY7PBz5CoQA32UMCEA6nBoH3yQGik6UCe0Y3Bd6jZQHmW2j+/dq7BQLhzQPCvkr+HoaTB1SP0
QIXlIMBrO7DB4tEOQRjXAUFkW53B9nNLQLs960BQfn7BWr+RQP7XB0FNyYDBSVrHQHXq0kDmz3XB
6lSbQDR4rkCcu3LBgTz/QKU0qz57kIXBCj3KQL6D/z4HKYDB9CnUQEFqJb8m84rB89+7QE1xGEFh
Lr7BAO7KQPhbM0HL1brB+VPzQCwsH0HmdLzBcNvtQDlhJ0F8157BwB4IQUrSJ0HZWqrBh9fnQBYC
PEG+u6jBR5yeQGbdHUH7J6HB6UKaQEbOMkEE8KrB2lOKQCYDGEF3R67BgOaCQNs5C0BX4KzBTCZW
QGKRjz/e4KLBv+j5QFqlAUGGrK/B/gTCQPeD9kAYtrDBw5KZQBcdakATL4nBLHe4QO5AkEAnN5PB
VQq8QOENNUA7YqDBTVpHQIaYQUC87JXBkwCUQJ0hYz+0EJHB2YVQQNliqUDfWYnBENRoQNEEu0CB
RJXBllRSQLJHdkCeaafBFzTQQIXKPz+vyq3BtK2ZQLY+Yr8ZtqjBKzvfQBBH0b/XPK/BIQkCQYx7
+UCLUZjBzdmmQG6B6T7o4anBxnPsQEpRl77LYbDBaMy1QMjG9r9gcavBsZzhQABsCUFB05rBVum/
QGyo4kD+DpDBFibTQEy3sj/VMJDBmhqHQO0r7EBgAoHBEAqmQI2pyEDMrnrBbvecQMqCz0D5O4nB
41HcQC6Umj5WAojBFRbfQDSvLUED2LPBYledQPpLH0Gey6rBvQ3WQETxBUGV5rHBJomJQATJyT+g
c6bBsi7mQC5mHUF7maHBlZ2YQKM+iEBtupDBE/CeQOqRGECmbZ3BJyWBQJPAXkA9YZnBSv/NQDnZ
G0G1bazBZne7QOxHAkG0KJbBGnWqQJJQvD/9oJTBAwCCQHdEsEBqpI7Bhn/uQF+UD0C6GJLB/wVu
QE1vi0DYC6LBPSAKQUC4Q7zi9rPBUBypQCOeTcAzWqrBS5T0QOh+0ED67Y/B9h7aQFBa4z97yq7B
Xh50QFDjjb8HuaXBq9z0QD0JHMAXRbHBtSMSQVh9/kDSMJvBihtJQBgA6UCNDH/BkHOQQAD+BkFV
SYDBuIDFQB4W0UB6AnTB7pqZQDYarEBdfHLBeq78QMaj4D6NuYTBoLvEQIPztz5AfoHBvCbaQIWV
Lr8r6IvBNtMAQZl5K0EYF7XBxXjOQCLoLEGUl7vByEvZQB1gPUFIIbDB+qGQQPW2EkGchqXBfdSX
QI8ML0G7HqfBegGNQJOUHkEHlbLBhxPKQDQK8kAiu6zBGDjFQCd4BUEdoLnB4JX4QC/NA0HQOrPB
Bj2DQNMxD0CyTq3BOlhWQE3fkz/NiqPB/l7ZQCoTK0F/FJ3BMS4EQeYGIEFiPqPB7tGZQPQeakAu
W4nBqWG5QFBJj0BHa5PBEB+8QBGGNkDhnqDBYwpIQLDMQUCvA5bB87KTQAxBXz/Rr5HBZCJRQN8X
qkD3CYrBR39wQHiavEAXnJXBs69QQBTdd0BXdafB+u3QQNjbPT/bv63BWPiZQPeYYb9awKjB5hTf
QMqb0r+4dq/BRzgDQdbI+UAKGpjBGH+nQJRn6T6m3KnBxMvsQIsanr5edbDB+qS1QDUW978foqvB
ojbkQK6mCUHztJrBnN3BQMh440A36o/BaG/SQPy2rT9tCpDBnnKIQFiU60Cp5YDBkLamQFQhx0CM
/nrBxEeeQCjpz0DPWInBRh3bQEC9bD5jGojBQsedQCURIkHIdanBWlTOQBBiBUETMLHB3lneQDpC
LEHbR7TBGkOKQDRXyj/TfabBIuroQG4sHUHo06HBVDGZQHraiEC86ZDB3iKfQPItGECnVp3BGCKB
QIMjXkCxS5nB8LbMQNP+G0FpEqzB0vC9QIjHAkEZ+pXBzPSpQI4juj/Ej5TBqlWDQC6FsUCtEY/B
sO/tQLlcDUBzqJHBURtrQAJLikAtA6LBQ1kKQSBdCr2SA7TBcnioQKeUTcAFr6rBXGv2QCz+0EBE
sY/BgTTbQAEl4j8bpK7BRNR0QGfNjL97saXB8Vb0QE7zHMBqo7HBeGITQfqN/kCu6ZrBTJdLQHOp
6EAlEX/BWziSQHCPBkFPpH/BZCLGQCKZzkCn/nPBr7WZQLUjqkB9a3PBR1P7QLpntD52sITBhzfD
QFwjiD7ZpYHBPw3ZQDu1PL/3PozBO+KcQAcaMkHK1qXBmMiKQK0OIkFt3rDBzFeQQNpYFkG60aPB
KLjvQDEvAUHPBLPBFvvAQFc580CMj6vB42u7QH9SBUFAnLjBs7L/QBI0KEGuPLbBKtTKQIyyK0EO
mbvBfRHdQP1zPEF92bDBr5mEQPDkD0BMV63BkDRXQDIIlT+XvKPB/pjfQHNuK0FlOZ3BeVAFQQiU
HkETQqTBc2+aQJlAbUAhZInBr/C5QKYRj0DXvZPB3Yy8QFBDNkAxYKDBb0VJQBnHQEAhqZXBVNOS
QCUDXT//sZHBrt5RQGIVrEDMwYrB9Gd2QL0nvkDfIZbB0Q1NQIFMdEA4PqfBTvvPQMtaOD+Xvq3B
QqqZQCUEZr+wPqjB3dneQKN+1b+S3a7B+AHwQLxPAUHKZJvBNcWmQCzQ3z4stKnBDCDsQETBqb65
N7DBj5K1QNyX+b9B6KrBp/jGQBmbBkFdj57BU123QKfR4UDFpZDBhKDVQIydvD+pOpDBLmiHQCf4
6UAWLYDBesmpQEnlyEDvL3rB5sGaQAPnzEDvrYjBj5jgQNIqxT5UI4jBNjnCQBleKkEaBLjBB9Tx
QDoRC0Hvf7TB8ID5QBALLkHEuanBGriJQBxByD/CUKbBZbq3QNn9FUHYIqfB5XiYQOEfhkBLQJDB
vKCfQJ9hGEDncJ3B+k+BQHJxXEC5GpnBbRPaQLkPHkHOG6/BKCaoQP7e+EBkeZjBIfusQL/uvD93
vZTBN1B/QJiaq0CXKo3BJYfxQO0cEEDiNpPBrj1tQARDi0BChaHBg/cJQQi9ab0T17PBlNCoQBLA
TsB4kqnBnMnuQE6E4EA1k5DBxN7ZQHxD3z8U767BWn10QPKgjr91FqXB2lD0QEyCHsDu3LDBR20G
QbYSB0FfLp/B4RVMQEBX5UAHPnvBxxqPQHwoBkGgG4DB8BXKQNmQ00D3qHXBGgahQCKXrEC+r3DB
aE8BQWG66j7h9YXBJM3MQAd2Az8l74DBBEXaQNMpGr9orovBW/OwQLv9N0HmfrTBD3PZQPhEMEH7
7r3BqEmrQDSaH0Hh9rvBTqEBQeviAUHcYq7BVXDaQKaZAEFke7jB3kwEQWlEEUF+c7rBIpYFQYHa
JUFhT6PBhBwIQVUWNEHIuq/Bz1znQB2CO0H0U6bBzjKDQPDODUCoN63Bjd9WQMBbkz9xSKPBzKGe
QPLeDUFbyKvBzweqQGUNJEGwGaPBNFmcQNTjYUAaSonBTyW4QKxNkEA2IJPBm/W7QGYkOEB11aDB
nudIQPajPUDg2pXBX3uXQC0qUz+P6pHBPelTQCn1okDmsofBSXlhQBAot0CjoJPBcUZQQFmGeEAg
DafBSS7QQPMsKj8RR63B22qZQDGycr8d9afBkOfeQE/F3L8GVq7B5+b+QEGY+0D+dJrB2MCmQGA2
xj5eWKnBIVbsQNSmx76Bq6/Bo2a1QJUrAMBBg6rBDb3aQNWv+0BysaDBM3C9QBLa4kDQLZHBmFbU
QOPfsz9dEZDBfASIQOHK7UBvaYHBdkinQIq4ykCYm3vBsjGcQKEY0ECBsonB5IfdQEpDuj7Zc4fB
YOvwQFV9K0H2iqfBs4CiQFMTIkETm6nBBh7TQIWdIkFEprnBtoyJQFiTwj9NGKbBszbbQP8HBUGa
QKzBzj+YQGy6h0CwnJDBKhufQKLNFkBUQp3BAQCBQMy0XEAXO5nBTmDQQNgyHUHym63BaYi2QGWQ
7ECMRpvBClyrQC0LvD/jWZTBn9yAQC1fr0B8dY7BNvfvQDNPDkDJd5LBU79sQPlGikBO46HB1CYK
QSyg9b1mNLPBeImoQLMTUsBsMKnBtP7yQMUT6kBIvo3BHDvaQAIG2D9ucq7BS4dzQIiglL/m76TB
m2v0QD5HIsB3PrDBMCoPQcySAkGsJJ3BrIFLQGwA60CxCn/BEqSRQEvPB0FBC4HBjFHHQI1k00BO
vnXBUG6bQGPGrkB9snLBNDH+QFRpAT+PX4TB6XPGQMYN9T4g34DBLJHaQLjiJL8o5orBVb0IQfYA
KEGEZarBE2/pQBBvPEFIA6nBVOruQB0rKEFb6p7BNXqLQAfuF0FH6q3BenagQALAHkG1+qDBOfua
QPUDM0GjE6vBZ0G8QKqkGEGjHL7B+U/LQAubM0Ed3LrBjb7zQGB1H0HsjLzB4SODQOs1CkDoEq3B
/nVWQPT2jT/kEKPBykr7QOQYAkGjkK/BjH/DQE4q90CZuLDBcBeaQKgZaUBMP4nBAca4QF1yj0CM
XpPBxuy7QB4aNUCgmqDBXShIQLpDP0B60pXBo9SUQL+8YD8TNJHBUaRRQBwBqUC6bInBzgxqQAiQ
ukBIWJXBErRPQCIodUAWSqfB

>  <OMEGA_E>  (214) 
sP4EPoAEfj4or4o+dCiUPtj+Az4=

>  <OMEGA_NBR>  (214) 
     46052

$$$$
50168376
     RDKit          3D

 64 66  0  0  1  0  0  0  0  0999 V2000
    6.5198    0.6842  -21.6653 C   0  0  0  0  0  0  0  0  0  0  0  0
    4.8138   -0.9401  -21.0138 C   0  0  0  0  0  0  0  0  0  0  0  0
    6.9932   -1.7026  -21.8029 C   0  0  0  0  0  0  0  0  0  0  0  0
    7.3667    7.4514  -18.0389 C   0  0  0  0  0  0  0  0  0  0  0  0
    5.6599    7.3698  -19.5630 C   0  0  0  0  0  0  0  0  0  0  0  0
    5.9495    7.0678  -18.2597 C   0  0  0  0  0  0  0  0  0  0  0  0
    5.2246    0.3980  -21.1798 C   0  0  0  0  0  0  0  0  0  0  0  0
    7.4060   -0.3652  -21.9654 C   0  0  0  0  0  0  0  0  0  0  0  0
    5.6961   -1.9889  -21.3313 C   0  0  0  0  0  0  0  0  0  0  0  0
    6.6293    1.3858  -18.0067 C   0  0  0  0  0  0  0  0  0  0  0  0
    4.4177    7.4158  -16.1641 C   0  0  0  0  0  0  0  0  0  0  0  0
    5.4062    6.2973  -15.8031 C   0  0  0  0  0  0  0  0  0  0  0  0
    4.9618    6.4987  -17.2578 C   0  0  0  0  0  0  0  0  0  0  0  0
    6.9123    0.3432  -16.9299 C   0  0  0  0  0  0  0  0  0  0  0  0
    6.6767   10.1587  -23.1557 C   0  0  0  0  0  0  0  0  0  0  0  0
    5.1213   10.1038  -21.1821 C   0  0  0  0  0  0  0  0  0  0  0  0
    7.5443   10.7671  -20.8769 C   0  0  0  0  0  0  0  0  0  0  0  0
    4.3055    1.5241  -20.7687 C   0  0  0  0  0  0  0  0  0  0  0  0
    6.9718    8.3463  -21.4541 C   0  0  0  0  0  0  0  0  0  0  0  0
    4.7650    4.2349  -18.0788 C   0  0  0  0  0  0  0  0  0  0  0  0
    4.9694    2.3508  -19.6514 C   0  0  1  0  0  0  0  0  0  0  0  0
    4.0238    3.4365  -19.1406 C   0  0  2  0  0  0  0  0  0  0  0  0
    6.5757    9.8384  -21.6479 C   0  0  0  0  0  0  0  0  0  0  0  0
    7.8563    7.9297  -19.1621 N   0  0  0  0  0  0  0  0  0  0  0  0
    6.8377    7.8737  -20.0558 N   0  0  0  0  0  0  0  0  0  0  0  0
    5.3504    1.4521  -18.5461 N   0  0  0  0  0  0  0  0  0  0  0  0
    4.0625    5.4889  -17.8079 N   0  0  0  0  0  0  0  0  0  0  0  0
    7.4875    2.2161  -18.2874 O   0  0  0  0  0  0  0  0  0  0  0  0
    3.6679    4.2964  -20.2248 O   0  0  0  0  0  0  0  0  0  0  0  0
    8.6542   -0.0882  -22.4050 F   0  0  0  0  0  0  0  0  0  0  0  0
    5.3023   -3.2717  -21.1695 F   0  0  0  0  0  0  0  0  0  0  0  0
    6.8295    1.7092  -21.8058 H   0  0  0  0  0  0  0  0  0  0  0  0
    3.8234   -1.1598  -20.6434 H   0  0  0  0  0  0  0  0  0  0  0  0
    7.6713   -2.5091  -22.0399 H   0  0  0  0  0  0  0  0  0  0  0  0
    7.9068    7.3537  -17.1088 H   0  0  0  0  0  0  0  0  0  0  0  0
    4.7221    7.2413  -20.0831 H   0  0  0  0  0  0  0  0  0  0  0  0
    3.3645    7.3391  -15.8561 H   0  0  0  0  0  0  0  0  0  0  0  0
    4.7373    8.4674  -16.1192 H   0  0  0  0  0  0  0  0  0  0  0  0
    6.4343    6.5467  -15.5015 H   0  0  0  0  0  0  0  0  0  0  0  0
    5.0615    5.4185  -15.2384 H   0  0  0  0  0  0  0  0  0  0  0  0
    7.9244    0.4966  -16.5273 H   0  0  0  0  0  0  0  0  0  0  0  0
    6.1760    0.4446  -16.1190 H   0  0  0  0  0  0  0  0  0  0  0  0
    6.8403   -0.6638  -17.3667 H   0  0  0  0  0  0  0  0  0  0  0  0
    7.7044    9.9751  -23.5020 H   0  0  0  0  0  0  0  0  0  0  0  0
    5.9811    9.5153  -23.7145 H   0  0  0  0  0  0  0  0  0  0  0  0
    6.4160   11.2140  -23.3244 H   0  0  0  0  0  0  0  0  0  0  0  0
    5.0329    9.8799  -20.1088 H   0  0  0  0  0  0  0  0  0  0  0  0
    4.8667   11.1592  -21.3586 H   0  0  0  0  0  0  0  0  0  0  0  0
    4.4318    9.4606  -21.7486 H   0  0  0  0  0  0  0  0  0  0  0  0
    7.4826   10.5495  -19.8004 H   0  0  0  0  0  0  0  0  0  0  0  0
    8.5729   10.5958  -21.2271 H   0  0  0  0  0  0  0  0  0  0  0  0
    7.2660   11.8162  -21.0553 H   0  0  0  0  0  0  0  0  0  0  0  0
    4.1093    2.1717  -21.6360 H   0  0  0  0  0  0  0  0  0  0  0  0
    3.3567    1.1066  -20.4008 H   0  0  0  0  0  0  0  0  0  0  0  0
    6.3242    7.7286  -22.0936 H   0  0  0  0  0  0  0  0  0  0  0  0
    8.0198    8.2216  -21.7644 H   0  0  0  0  0  0  0  0  0  0  0  0
    4.8224    3.6432  -17.1533 H   0  0  0  0  0  0  0  0  0  0  0  0
    5.7816    4.4576  -18.4353 H   0  0  0  0  0  0  0  0  0  0  0  0
    5.8708    2.8311  -20.0597 H   0  0  0  0  0  0  0  0  0  0  0  0
    3.1314    2.9701  -18.6977 H   0  0  0  0  0  0  0  0  0  0  0  0
    4.6464    0.8548  -18.1618 H   0  0  0  0  0  0  0  0  0  0  0  0
    3.3289    5.3148  -17.1510 H   0  0  0  0  0  0  0  0  0  0  0  0
    3.6711    5.8329  -18.6614 H   0  0  0  0  0  0  0  0  0  0  0  0
    3.2051    3.7967  -20.8871 H   0  0  0  0  0  0  0  0  0  0  0  0
  1  7  2  0
  1  8  1  0
  2  7  1  0
  2  9  2  0
  3  8  2  0
  3  9  1  0
  4  6  1  0
  4 24  2  0
  5  6  2  0
  5 25  1  0
  6 13  1  0
  7 18  1  0
  8 30  1  0
  9 31  1  0
 10 14  1  0
 10 26  1  0
 10 28  2  0
 11 12  1  0
 11 13  1  0
 12 13  1  0
 13 27  1  0
 15 23  1  0
 16 23  1  0
 17 23  1  0
 18 21  1  0
 19 23  1  0
 19 25  1  0
 20 22  1  0
 20 27  1  0
 21 22  1  0
 21 26  1  0
 22 29  1  0
 24 25  1  0
  1 32  1  0
  2 33  1  0
  3 34  1  0
  4 35  1  0
  5 36  1  0
 11 37  1  0
 11 38  1  0
 12 39  1  0
 12 40  1  0
 14 41  1  0
 14 42  1  0
 14 43  1  0
 15 44  1  0
 15 45  1  0
 15 46  1  0
 16 47  1  0
 16 48  1  0
 16 49  1  0
 17 50  1  0
 17 51  1  0
 17 52  1  0
 18 53  1  0
 18 54  1  0
 19 55  1  0
 19 56  1  0
 20 57  1  0
 20 58  1  0
 21 59  1  6
 22 60  1  1
 26 61  1  0
 27 62  1  0
 27 63  1  0
 29 64  1  0
M  CHG  1  27   1
M  END
>  <OMEGA_C>  (215) 
faLQQCImLz9xUq3BDwuaQMiocL8/HKjBssjfQK7v2b9gbK7By7vrQN5x7kC4T5DBFx61QP/U60Af
gZzBe2K+QJ0r4kD2E5LB4C+nQBPByz5PcKnBI/7sQPD+ur42ua/BXUa2QKiV/r9ppqrBQyPUQFNi
sT/LDZDBH16NQCVO7UAPUIHB//+sQDWDyUBh2XzBZMeeQHX1z0D2D4rBrjHdQEe4rz51cIfBRKfV
QAyKIkHOPrnBbOGjQAWpIUHzdKnBmWrxQN5FLEHaA6fB5MaJQPAVwz9eJqbBZBnfQFWKBUELoqvB
DHuYQLGEh0BpoZDBMgWfQOdyFkAlNp3BusKAQF7wW0DpH5nBxGvSQPFpHUHvLq3BjGb7QCHA/UAJ
TJnBsM7aQDP1+0AucqDBRjarQHTeuT9yXpTBWgCCQAWlr0CIdo7B+5nvQKvUDUCMTJLB2r5qQDN8
iUBXzKHBy3cKQSiOtL15PbPBTKypQN1jUcAfW6nB9YraQJXI2j9Wcq7B3rJ0QIp0lL/DJaXBnXv1
QDiVIMDOUbDBxQT9QNNR60De3ojBvRuXQFq450ArqqDBcFRXQDDa6kCAsn3B05eXQHR6B0Ek9IDB
leXNQMV+0UA4BnjB+/ehQAxkrUBx0HPB+5T9QM88/j7rN4TB76HFQAql4z6184DBs+PaQIrsKb8a
74rB2or2QPqZH0EdBLzBZWW/QLs+GEFCt73BClDNQGVsM0F4mLrBLQ2hQD8UHkG53qDB97ubQESM
MkFx3qrBUtGNQJleF0E6/a3BW3HvQN3KKEEoZ57BeSoJQXaIKUET0anBdoPoQD4PPUFbcajBcX+D
QND8CkCGFq3BVtRWQJijjT/KNKPBfl/KQIVQ90C4v7DBGlEAQZ2LA0FsHa7B+VCaQAEraUDuOYnB
nAK5QJikjkBue5PB9927QNkwNUAqeqDB42hIQIAWPkDtlJXBoa+UQJjTWj9gS5HB+wxVQC8TqkA7
NYnBHPNqQOamukB5SpXBwiBNQIz9ckDAGKfBW2zPQPgGLT/yo63BjKWZQFx1dL/NC6jBaVveQI7H
2r9pFq/B/Y/rQJ0G8ECrUpDBIBy1QHc860CAhZzByaa+QDIz4kBlEpLByoqmQNfqxD4ebqnBkGfr
QKt7vb64YbDB1G21QKoIAMDN9KrBs/vSQLMarj+axo/BSaOOQAUP7EBTEIHBzaiuQExQyEBj43zB
UaCfQItfz0A+AIrBf/rcQH7xcj7O6IfBbMihQEIVIUFSxqnBTLvuQEeDLEEADafBrWHUQMh+IkF1
X7nBUU2JQGkRwT9ABKbBXjzeQFKUBUGLuKvBDLCYQEnlhkBygJDB7uKeQDwHFUC7GZ3BRFSBQD9A
XEBhMZnBcbTQQKdTHUFEU63BKNL6QF1W/0CiWZnBtlfaQNE+/EACgaDBakuqQLmUtj9eOZTBxp2C
QLtGr0CRZY7Bq+rtQKdjDkDAipHBmitwQKwWikA/8KHBYl8JQWwNtL1bRrTBN9SoQC87UsCJw6nB
zDHZQMno2T8wwa7BYf50QI/Qlr/8waTBarvzQELXIMA+Q7HBfNz8QE3d7UDb3IjBPjiXQHso5kAt
q6DB2T1aQPg96UAx8HzBw66YQLPfBkHynYDBd6nPQL9b0EA9RnjBoRmkQFLaq0CJ+nPBZHL9QOkf
vz57sITBsLLFQJjHhD6xT4HB4P3aQE0yO79jDYzBKn+MQMBHFkGmPa7Bu8meQDbcHUHsJ6HBBMKY
QITHMUGmZ6vByQEIQRXTKUGzlKnByr3lQNw2PUEErqjBgcXrQI1LKUFJbp7Bj4n1QPXoH0HJB7zB
ntC+QIj4F0Ga673BbmbLQMZJM0EewLrBA8CCQGRJCkDy6KzBnhxWQHtkiz/cA6PBAsrJQIjq9kBa
yrDBVc3/QGvYA0GQOa7B13yZQBlaZ0DMIYnBUpm5QO+SjUCcI5PB3Ce8QG4vMkC+W6DBf6lHQIE/
QEDu55XBeYmTQCuHVD+FPpHBUwBWQIcIqkDoKInB859sQHxMukCWP5XBxvpSQK1OdUACYKfBZiPO
QLoIJz8Nv63BVAGYQK0aZr96CafBXpPbQPiu378YEq7BvneyQNMt4EB+/ZzBCInjQPBD7kBv1I/B
bi26QJhG4UBVUZHBTIilQGRi1j74ManB+DfpQBqo274WHrDByPayQMyk/b+liKnBVsvTQA6vsj+P
9o/Bk3CIQJXw70A8C4HB9gaoQOMRzUDS53rBH8yaQEmo0ECeOYnB1oXaQDII0D5O1YbB0ckXQRdW
K0HikaPBNoHhQOWsI0FAtaTB0RsCQRUtKkGMj5LB/8KJQJECyz/YEKbB5H8LQdHYB0EXmZzB43aY
QA2giECxVpDBa0+gQHsdGkBhTZ3BUiiDQPePYkCPm5nBzzkFQUv8H0F0yp3Bwu/VQEIG6kDj6qHB
JpHxQM019UAbF5rBNPWqQDpmwz8vPJTB8hJ/QOHWrkDhiI3BjAnxQDZNCUDbmJLBjM55QMjUjUBJ
YKLBvTIIQdRNTL5hT7TB2gemQEy3T8CLe6fBQ2rYQBTM1D+GaK/BDhFyQE/Nib8XeqPBR0DwQOwU
JcC/+q/BhW2UQJt+2EBMzqDBnd70QP4b8kDRaojBMhNNQGzc7UDmd33BzXOSQIPXCEHrIoHBHKrI
QJHS1UCg+XXB6L+cQPj/sUCxK3HBby77QIOSAz9EqoPBgELDQAgSHD+wboDBY/jVQOxlHr/q0InB
FaMmQZgrKUGr+J7BscgZQYtwJEG4mqvBMzQUQd6CPEHpQ6TB9PvFQOPQG0EH4aDBBUPbQELxNEEX
ZKXBAGzmQO/eHEHmuqzByLfpQKsdIkF3Zo7B5eQQQelZKEEI4I3Bcb38QPtHO0F6dJPBRSKEQD9A
DkBRGq3B1u5VQBGGmz+jAaPBM5gSQX5AAkFYJqTBaUoXQTA/BkEvHZbB5CiaQJNhZkAHX4nBZf64
QCs+kkBfsJLBotG9QIOnNUDepKDBNuRIQGO7R0Ct6pbB11qTQOFgfT8+9ZDBBFdTQFTnpkCLCojB
7qNhQJy4uUDOGJTBLzVfQFvtfUBwHKjB

>  <OMEGA_E>  (215) 
OAQDPkB9+D2gKf4+

>  <OMEGA_NBR>  (215) 
     49449

$$$$
50197324
     RDKit          3D

 86 89  0  0  1  0  0  0  0  0999 V2000
   12.9075    1.0737  -13.0723 C   0  0  0  0  0  0  0  0  0  0  0  0
   12.4992   -0.0514  -13.8166 C   0  0  0  0  0  0  0  0  0  0  0  0
   11.9888    2.1048  -12.7872 C   0  0  0  0  0  0  0  0  0  0  0  0
   11.1703   -0.1505  -14.2682 C   0  0  0  0  0  0  0  0  0  0  0  0
   10.6567    2.0046  -13.2336 C   0  0  0  0  0  0  0  0  0  0  0  0
    6.7640    1.0813  -21.1312 C   0  0  0  0  0  0  0  0  0  0  0  0
    4.9547   -0.4901  -20.6662 C   0  0  0  0  0  0  0  0  0  0  0  0
    7.0714   -1.2975  -21.5705 C   0  0  0  0  0  0  0  0  0  0  0  0
   10.2422    0.8646  -13.9549 C   0  0  0  0  0  0  0  0  0  0  0  0
    5.4561    0.8267  -20.6603 C   0  0  0  0  0  0  0  0  0  0  0  0
    7.5724    0.0186  -21.5746 C   0  0  0  0  0  0  0  0  0  0  0  0
    5.7589   -1.5498  -21.1273 C   0  0  0  0  0  0  0  0  0  0  0  0
    6.4227   -1.1695  -16.0344 C   0  0  0  0  0  0  0  0  0  0  0  0
    6.9828    2.1274  -17.5653 C   0  0  0  0  0  0  0  0  0  0  0  0
    7.1764   -2.1745  -18.0691 C   0  0  0  0  0  0  0  0  0  0  0  0
    6.1055    5.7500  -18.3176 C   0  0  0  0  0  0  0  0  0  0  0  0
    7.8427   -0.8301  -17.8757 C   0  0  0  0  0  0  0  0  0  0  0  0
    4.8573    6.9547  -16.6467 C   0  0  0  0  0  0  0  0  0  0  0  0
    6.7804   -2.5325  -16.6566 C   0  0  2  0  0  0  0  0  0  0  0  0
    5.9013    7.1613  -17.7320 C   0  0  2  0  0  0  0  0  0  0  0  0
    4.9444    4.9171  -17.7281 C   0  0  2  0  0  0  0  0  0  0  0  0
    6.1586    9.2460  -22.0944 C   0  0  0  0  0  0  0  0  0  0  0  0
    3.8562   -3.2783  -18.2121 C   0  0  0  0  0  0  0  0  0  0  0  0
    8.8237    0.7469  -14.4418 C   0  0  0  0  0  0  0  0  0  0  0  0
    4.5535    1.9645  -20.2329 C   0  0  0  0  0  0  0  0  0  0  0  0
    5.6647   -3.6082  -16.5831 C   0  0  0  0  0  0  0  0  0  0  0  0
    5.3210    9.0941  -20.8260 C   0  0  0  0  0  0  0  0  0  0  0  0
    8.6920    1.4326  -15.8064 C   0  0  0  0  0  0  0  0  0  0  0  0
    6.1911    8.5490  -19.6909 C   0  0  0  0  0  0  0  0  0  0  0  0
    7.2724    1.2150  -16.3753 C   0  0  2  0  0  0  0  0  0  0  0  0
    4.2553    3.9684  -18.7271 C   0  0  2  0  0  0  0  0  0  0  0  0
    5.2439    2.9008  -19.2226 C   0  0  1  0  0  0  0  0  0  0  0  0
    7.0593   -0.1846  -16.8072 N   0  0  0  0  0  0  0  0  0  0  0  0
    5.6957    2.1057  -18.0755 N   0  0  0  0  0  0  0  0  0  0  0  0
    3.9944    5.9027  -17.1949 N   0  0  0  0  0  0  0  0  0  0  0  0
    5.7723   -0.9878  -15.0119 O   0  0  0  0  0  0  0  0  0  0  0  0
    7.8645    2.8152  -18.0710 O   0  0  0  0  0  0  0  0  0  0  0  0
    3.7377    4.7020  -19.8372 O   0  0  0  0  0  0  0  0  0  0  0  0
    5.3031    8.0531  -18.6840 O   0  0  0  0  0  0  0  0  0  0  0  0
    4.3291   -3.1049  -16.8586 O   0  0  0  0  0  0  0  0  0  0  0  0
    8.8287    0.2630  -22.0085 F   0  0  0  0  0  0  0  0  0  0  0  0
    5.2845   -2.8158  -21.1102 F   0  0  0  0  0  0  0  0  0  0  0  0
   13.9258    1.1462  -12.7198 H   0  0  0  0  0  0  0  0  0  0  0  0
   13.2058   -0.8369  -14.0402 H   0  0  0  0  0  0  0  0  0  0  0  0
   12.3067    2.9713  -12.2264 H   0  0  0  0  0  0  0  0  0  0  0  0
   10.8610   -1.0032  -14.8544 H   0  0  0  0  0  0  0  0  0  0  0  0
    9.9545    2.7980  -13.0245 H   0  0  0  0  0  0  0  0  0  0  0  0
    7.1433    2.0923  -21.1506 H   0  0  0  0  0  0  0  0  0  0  0  0
    3.9520   -0.6868  -20.3165 H   0  0  0  0  0  0  0  0  0  0  0  0
    7.6938   -2.1133  -21.9073 H   0  0  0  0  0  0  0  0  0  0  0  0
    6.2958   -2.0940  -18.7233 H   0  0  0  0  0  0  0  0  0  0  0  0
    7.8775   -2.9119  -18.4871 H   0  0  0  0  0  0  0  0  0  0  0  0
    6.0498    5.7726  -19.4159 H   0  0  0  0  0  0  0  0  0  0  0  0
    7.0770    5.3371  -18.0081 H   0  0  0  0  0  0  0  0  0  0  0  0
    8.8914   -0.9557  -17.5682 H   0  0  0  0  0  0  0  0  0  0  0  0
    7.8006   -0.2377  -18.8016 H   0  0  0  0  0  0  0  0  0  0  0  0
    5.3267    6.6279  -15.7071 H   0  0  0  0  0  0  0  0  0  0  0  0
    4.2866    7.8783  -16.4696 H   0  0  0  0  0  0  0  0  0  0  0  0
    7.6656   -2.9250  -16.1348 H   0  0  0  0  0  0  0  0  0  0  0  0
    6.8399    7.5548  -17.3145 H   0  0  0  0  0  0  0  0  0  0  0  0
    5.3418    4.3137  -16.8987 H   0  0  0  0  0  0  0  0  0  0  0  0
    5.5280    9.6378  -22.9061 H   0  0  0  0  0  0  0  0  0  0  0  0
    6.9876    9.9437  -21.9048 H   0  0  0  0  0  0  0  0  0  0  0  0
    6.5638    8.2657  -22.3857 H   0  0  0  0  0  0  0  0  0  0  0  0
    2.8417   -2.8628  -18.3026 H   0  0  0  0  0  0  0  0  0  0  0  0
    4.5301   -2.7544  -18.9058 H   0  0  0  0  0  0  0  0  0  0  0  0
    3.8367   -4.3501  -18.4591 H   0  0  0  0  0  0  0  0  0  0  0  0
    8.5564   -0.3157  -14.5383 H   0  0  0  0  0  0  0  0  0  0  0  0
    8.1477    1.2311  -13.7216 H   0  0  0  0  0  0  0  0  0  0  0  0
    4.2716    2.5474  -21.1221 H   0  0  0  0  0  0  0  0  0  0  0  0
    3.6493    1.5449  -19.7677 H   0  0  0  0  0  0  0  0  0  0  0  0
    5.8949   -4.3940  -17.3175 H   0  0  0  0  0  0  0  0  0  0  0  0
    5.6682   -4.0395  -15.5712 H   0  0  0  0  0  0  0  0  0  0  0  0
    4.9158   10.0749  -20.5366 H   0  0  0  0  0  0  0  0  0  0  0  0
    4.4920    8.3969  -21.0174 H   0  0  0  0  0  0  0  0  0  0  0  0
    8.8763    2.5108  -15.6910 H   0  0  0  0  0  0  0  0  0  0  0  0
    9.4313    1.0064  -16.5005 H   0  0  0  0  0  0  0  0  0  0  0  0
    6.8319    7.7361  -20.0631 H   0  0  0  0  0  0  0  0  0  0  0  0
    6.8197    9.3517  -19.2780 H   0  0  0  0  0  0  0  0  0  0  0  0
    6.5503    1.4518  -15.5801 H   0  0  0  0  0  0  0  0  0  0  0  0
    3.4325    3.4586  -18.2044 H   0  0  0  0  0  0  0  0  0  0  0  0
    6.0997    3.3929  -19.7079 H   0  0  0  0  0  0  0  0  0  0  0  0
    5.0286    1.5072  -17.6319 H   0  0  0  0  0  0  0  0  0  0  0  0
    3.4255    5.4986  -16.4786 H   0  0  0  0  0  0  0  0  0  0  0  0
    3.4094    6.2635  -17.9212 H   0  0  0  0  0  0  0  0  0  0  0  0
    3.3163    4.1043  -20.4436 H   0  0  0  0  0  0  0  0  0  0  0  0
  1  2  2  0
  1  3  1  0
  2  4  1  0
  3  5  2  0
  4  9  2  0
  5  9  1  0
  6 10  2  0
  6 11  1  0
  7 10  1  0
  7 12  2  0
  8 11  2  0
  8 12  1  0
  9 24  1  0
 10 25  1  0
 11 41  1  0
 12 42  1  0
 13 19  1  0
 13 33  1  0
 13 36  2  0
 14 30  1  0
 14 34  1  0
 14 37  2  0
 15 17  1  0
 15 19  1  0
 16 20  1  0
 16 21  1  0
 17 33  1  0
 18 20  1  0
 18 35  1  0
 19 26  1  0
 20 39  1  0
 21 31  1  0
 21 35  1  0
 22 27  1  0
 23 40  1  0
 24 28  1  0
 25 32  1  0
 26 40  1  0
 27 29  1  0
 28 30  1  0
 29 39  1  0
 30 33  1  0
 31 32  1  0
 31 38  1  0
 32 34  1  0
  1 43  1  0
  2 44  1  0
  3 45  1  0
  4 46  1  0
  5 47  1  0
  6 48  1  0
  7 49  1  0
  8 50  1  0
 15 51  1  0
 15 52  1  0
 16 53  1  0
 16 54  1  0
 17 55  1  0
 17 56  1  0
 18 57  1  0
 18 58  1  0
 19 59  1  1
 20 60  1  1
 21 61  1  1
 22 62  1  0
 22 63  1  0
 22 64  1  0
 23 65  1  0
 23 66  1  0
 23 67  1  0
 24 68  1  0
 24 69  1  0
 25 70  1  0
 25 71  1  0
 26 72  1  0
 26 73  1  0
 27 74  1  0
 27 75  1  0
 28 76  1  0
 28 77  1  0
 29 78  1  0
 29 79  1  0
 30 80  1  1
 31 81  1  1
 32 82  1  6
 34 83  1  0
 35 84  1  0
 35 85  1  0
 38 86  1  0
M  CHG  1  35   1
M  END
>  <OMEGA_C>  (216) 
H4VOQe5uiT81KFHBi/xHQZCHUr3mEF3BVNI/QUC0BkBEmEzBa7kyQQwdGr6dSmTBCIIqQaxKAEDZ
vFPBynLYQLtnij+dDKnBv4yeQKzu+r5QVKXBhUjiQIETpr9akKzB5N8jQehWXT92R1/BlZiuQNqf
Uz9NSKXByVDyQLB0mDyymKzBL0m4QEZexr+nBKnBGofNQOSxlb9/RoDBN3PfQL4mCECnhYzBc6Xl
QHgqC8CWjZDBf2DDQFEAuEBdipLBmvf6QMKAVL97AY/B3m6bQDKN3kBzLIXBJfnYQAgUIsDJQIXB
m9e8QMYp5UAg243BTDieQNVYnUAa043BNRPFQI3vE0FYwbDBvMt2QFLQUcBcspHByi0NQXA1Pz+A
EWfBfraRQFtz+z/43KHB4ES1QB7sZsAtqoTBlUWqQFKBEUGxm6bBQhILQdVdtz/b5nzBRB3GQNLI
CEH0hp3Be7foQIWDmz+wAIPBLSuIQIT5fUAz0ZXBPs6nQDCnOUDux5nBL+bhQKQSPb4pdYbBDUO2
QCjDBkCumpDBSaR/QOfivEAZj4nBEre4QGjdfL+0MHDB0qn7QP4sNEB5kZDBvzVvQPt2lkCPsp7B
prKpQFXZAEHOeJXBTIiKQAy3RsB83obBYkINQVauhj6AEbDBuhqpQNo2NMC64ajB7M9eQXS3kj81
hEvBEktTQU9AVr+NpGDBLehEQToqPkB7n0PBi8YtQX5qgL9uq23BikUfQbMRM0A3ZFDBiZXkQLTo
BUCANKnBRO18QCPUL78fiKLBYjP2QO8/B8AsQq/B2nbJQEMEBsBKyZXBhhT8QLhcOsCV5ZPBW5jB
QC25uEDNU5vBjXbiQILJqkCKEJDBCUMOQQasdL+1i4zBjJ75QMdrc77BaZbBYHSqQOkX1EBUUHvB
+iuJQBUb/EDHwYPB0kz1QAM0O8AiFIHBTODaQP/A8UAehIrBK/CqQKkJikB2MIfBp+WwQJ80GkGu
P7fBU5rfQHcZH0EZPa/BSwrSQDpABEHmFbPBqt41QH84N8DIa5LB5faQQBtIMMAkP5fBWIx1QNsz
i8AmrJPB0+YIQcCoob7GnGjBE10CQQSVnT+4i1vBUbGIQEEII0Ah+qjBa45pQNa/xT9JJJ7BRKO8
QAOcjMBBiorBIGK1QK9DgcClI3nBR06dQNgyIUHsSqTBP76PQJtZBkG5I6jBJAUOQbCxIEAyDnvB
quYWQTTSgD/sAITB157aQD+O90AxgaDBPzvaQKWgFUFeOZrB0JvRQF/UuT/+R3nB+q1bQIRaXUCq
opHBBDHDQIwkWUDMqZ3Bo+qgQIjqwD8JDo3BDjxbQKT0r0AU1IPB4jNaQPZuyECpXo/B9j5UQMhW
g0COjKPBYVpOQUIecD/Y90/BrqFHQSD2I74eaVzBk/w/QXoV/j81SEvBHHgyQRC1X76K+mPBzsYq
QUFr9j9gwFLBnKTWQLRCjT9aKKnBtkmdQPVw9L59GqXBNa7gQF87o7+om6zBFfUjQSSUTz+uwF7B
MyytQKySVz+NKqXBEm/wQKNRNj3syazBxhK3QA9hxL+FzKjBdxzPQOtOkr97QYDBSJfgQGKMB0B1
ZYzBmhv3QCWNEMCQE47B9GTEQIJ3tkB8bZHB51L3QDlHQ7/i8I/BAk+XQC4d4kA4IIbBCWTRQJnl
HMBXeobBlGy8QNjt5ECD+Y3BxjSdQLZYnUBUM43Bef2gQEUmGEEj2qrBbll4QK27h8BpdJXBhW0N
QbTlPD/CvGbB2tKQQBiI/D+xcKHB6LKmQG9lJ8AiXIzBqbnIQLdNCkG9tqjB4dcLQf1iuT/qc3zB
q7nSQKPcCEF7tpzBzLzqQAdznD/X1YLBN1eIQHmofUDyWpXBCdKnQBpEOUCnXpnB5i/mQPokP75X
/4XBkP62QGIVBkAyRZDB73p7QEX9vUBO9YnBUYy4QKdVcL/+z3DBGXn8QGiEM0BWlZDBzhBxQBSv
lkCgQp7BAoCvQA4u/kBkD5fBmFamQGJZdsDzJpLBfR4MQXkKmD6FgLDB5emnQAwVM8DzsajBI49e
Qf05ej82AUrBTLhSQaaMdL+nH2DBzUNFQblINUBz9kHBilctQb5Dhr+Hw23BKsUfQSeuLkAHTk/B
RojiQGJ/B0Bba6nBkq56QK5LLb9WOKLBsoH0QACsBcDwY6/BxBLyQGWEM8AfnJXBmpkKQSPRJcBV
XYrBTG/GQDYhtECEMZrB9BziQAkyqkCW2I3BNQkMQbLKzr7XaZHBfdniQA1DAL81yZbBgwqjQHQZ
3EDS7nvBKmaEQA/N/0DvOIbB9xjXQF8zU8D3D4HBtQDZQC8w8kCyDIrBCyCnQM6wikCEKYbBj9Oa
QD/QGEGAgrPBxyiFQPIeEUGbxKbBvImmQFRtKEFuzqfBUOZ7QAgtpsCo2ZnBjmlPQKu9i8CtXY7B
ahddQDDMXcCcrZrBDrkIQfKvob4XlWjBgLMCQTNMnT+jNFvBIieHQOd1JEAKbajBmnVoQGY4xj9I
l53BC2mMQKhcJ8D/gYbBcWmiQNHN47+3+pHBn/TCQB0w9EDh0qvBlFXkQHFmEUG03KzBxacOQd2p
IUAKUnrBR+IXQWqrhD8NvIPBa7bvQM1O/kCsi5vBtx/YQNgNGUEMipnBXV/TQCyUuD9A/HjBzzNb
QOfbXEDCXJHB7fPCQJu9WEATXZ3BafShQBRQvz/3oIzBW9xVQHjRskCpHoTBZGxXQFzCxkCLMZDB
NGhXQE+8g0B5Q6PB3HhOQYiNgz9TsFDBTuxHQUzec70ydV3Bfcg/QXK/AkDxQkvBGJ0yQQDdEL5l
kGTBS3IqQYs1+z+mXFLBBZLXQFB0lT90FqnBK+qeQMwN4753PaXB9CvjQEc2mr+yg6zBesgjQWTc
Wj9JpF7BqQGuQD54Yj+SOaXBmyTyQDCo/D0EpqzBf4q5QNFpvr9c1qjBAJjMQAaTlr/osoDBUHrf
QGeCB0AGH4zB0lf4QM0jEMCoYY7Byf3GQIdRtkDwGJHBQ+b0QFpXQb8OGpDBWmiYQMO95kBbUojB
1pbXQEkdI8DLmIXBiU64QH+55EAffJHBd52fQDlZnUAAzIzBwsLFQL60IUEqzZ7BKDhiQLXxRsBN
8pTB7BcNQdm0QT88UGbBRvGQQIL0/z/CaaHBM52vQDqtUcD34YnBhTG5QAh9EkGv8afBYSwLQU9B
uT/pHHzBy+W9QPcK9kDIe6TBrWfpQNyhmT8UqILBclqJQDj/f0BOGZXBB8CnQP7tOUBZOJnBcTXl
QGESW75Z84XBV0S2QPGSBUBVL5DBF5aAQMIovkBVFInBVXe0QOQxfL91QHLBvRb7QAcaNkDe+o/B
MlR0QGF3mED8853B30eiQFx07UBRcZvBrfWWQKjBHMAgApHBpPwMQfiwyz4lP7DB3VqrQELeMMCY
sajB6MdeQXywij8bDEvBe0FTQWksVL+Bx2HBvuZEQZBxOEDNqEHBOZ0tQfNQd79Yim7BMzkfQUi+
L0D+a07BmuziQOP8C0C0TanBdsx9QO44Kb+jfaLBc533QBVsAMBIO6/BXmTwQMkLM8CzwpXBi2MM
Qd7AIcAFxIvBodXPQM/9qkB1IZnBk3jiQLSvskBkrIvBajMKQU7wqL68D5LBJEDeQP54CL98mZbB
JhKpQHkj6UDol4DBGcCCQPccAUGzRonBnbfmQIknS8DT2X7Btj/TQPe4+kD2IZDBTt6pQOipiUB6
94XBTSDCQF9gMkEmeaHBYuOwQBjTHkEM3ZfBBUPnQNTMHkFLhpzBSFE/QDOIG8DwU5rBZa10QKqG
gMCnWJnBXdw4QPF7WMDNK47BmJEIQYyLmr4k4WfBiGkCQQXonz/JwVrB7TGHQO/iJkCMVKjBBtho
QHeQxz/FpZ3BI9+5QF2yhcBaOI7BclebQFw4ZMCCEoPBULeXQG2DFUEuNKrB8xbOQCl9FUFu3a7B
1cQNQY/TIUCcLXrBzUEXQXjWhD9fjYPBxvK0QB8F4UB9LavBaVTfQCza70CtNKLBiPHRQO4ItD9J
nXjBEmVcQLSHYEAzHZHBJ2DDQGF2WECeHZ3BKiShQHA6vD/LwIzBuappQLkTtkAK64HBCilRQKj5
wEB3Uo7BPkJZQEEFhkAg9aLB

>  <OMEGA_E>  (216) 
eL7kPqS3qj60PgQ/

>  <OMEGA_NBR>  (216) 
      4292

$$$$
50197326
     RDKit          3D

 92 95  0  0  1  0  0  0  0  0999 V2000
   12.9129    1.0935  -13.0042 C   0  0  0  0  0  0  0  0  0  0  0  0
   12.5045   -0.0331  -13.7462 C   0  0  0  0  0  0  0  0  0  0  0  0
   11.9944    2.1252  -12.7203 C   0  0  0  0  0  0  0  0  0  0  0  0
   11.1760   -0.1323  -14.1983 C   0  0  0  0  0  0  0  0  0  0  0  0
   10.6628    2.0249  -13.1672 C   0  0  0  0  0  0  0  0  0  0  0  0
    6.7689    1.1147  -21.0833 C   0  0  0  0  0  0  0  0  0  0  0  0
    5.0372   -0.5201  -20.5441 C   0  0  0  0  0  0  0  0  0  0  0  0
    7.1614   -1.2550  -21.4938 C   0  0  0  0  0  0  0  0  0  0  0  0
   10.2493    0.8852  -13.8888 C   0  0  0  0  0  0  0  0  0  0  0  0
    5.4839    0.8171  -20.5751 C   0  0  0  0  0  0  0  0  0  0  0  0
    7.6087    0.0785  -21.5301 C   0  0  0  0  0  0  0  0  0  0  0  0
    5.8744   -1.5524  -21.0092 C   0  0  0  0  0  0  0  0  0  0  0  0
    6.5250   -1.1442  -16.0756 C   0  0  0  0  0  0  0  0  0  0  0  0
    7.0207    2.1444  -17.5263 C   0  0  0  0  0  0  0  0  0  0  0  0
    7.6976   -2.2399  -17.8686 C   0  0  0  0  0  0  0  0  0  0  0  0
    6.1348    5.6921  -18.1853 C   0  0  0  0  0  0  0  0  0  0  0  0
    8.0695   -0.7708  -17.8246 C   0  0  0  0  0  0  0  0  0  0  0  0
    4.7389    7.0918  -16.7957 C   0  0  0  0  0  0  0  0  0  0  0  0
    7.1691   -2.4783  -16.4557 C   0  0  2  0  0  0  0  0  0  0  0  0
    5.8874    7.1529  -17.7920 C   0  0  2  0  0  0  0  0  0  0  0  0
    4.9148    4.9159  -17.6320 C   0  0  2  0  0  0  0  0  0  0  0  0
    3.1829   -3.2826  -18.6682 C   0  0  0  0  0  0  0  0  0  0  0  0
    5.0220    9.5189  -21.3962 C   0  0  0  0  0  0  0  0  0  0  0  0
    8.8364    0.7755  -14.3882 C   0  0  0  0  0  0  0  0  0  0  0  0
    4.5543    1.9298  -20.1342 C   0  0  0  0  0  0  0  0  0  0  0  0
    4.3040   -2.8548  -17.7142 C   0  0  0  0  0  0  0  0  0  0  0  0
    6.2546    8.6345  -21.1526 C   0  0  0  0  0  0  0  0  0  0  0  0
    8.7120    1.5071  -15.7314 C   0  0  0  0  0  0  0  0  0  0  0  0
    5.2721   -4.0296  -17.4372 C   0  0  0  0  0  0  0  0  0  0  0  0
    6.5778    8.5213  -19.6569 C   0  0  0  0  0  0  0  0  0  0  0  0
    7.3239    1.2393  -16.3497 C   0  0  2  0  0  0  0  0  0  0  0  0
    6.2331   -3.7102  -16.2556 C   0  0  1  0  0  0  0  0  0  0  0  0
    4.2518    3.9472  -18.6364 C   0  0  2  0  0  0  0  0  0  0  0  0
    5.2440    2.8891  -19.1428 C   0  0  1  0  0  0  0  0  0  0  0  0
    7.1824   -0.1560  -16.8114 N   0  0  0  0  0  0  0  0  0  0  0  0
    5.7235    2.1142  -18.0020 N   0  0  0  0  0  0  0  0  0  0  0  0
    3.9380    5.9409  -17.2209 N   0  0  0  0  0  0  0  0  0  0  0  0
    5.7467   -0.9551  -15.1474 O   0  0  0  0  0  0  0  0  0  0  0  0
    7.8971    2.8178  -18.0595 O   0  0  0  0  0  0  0  0  0  0  0  0
    7.0485   -4.8471  -15.9854 O   0  0  0  0  0  0  0  0  0  0  0  0
    3.7321    4.6747  -19.7479 O   0  0  0  0  0  0  0  0  0  0  0  0
    5.4792    7.9087  -18.9484 O   0  0  0  0  0  0  0  0  0  0  0  0
    8.8422    0.3647  -22.0017 F   0  0  0  0  0  0  0  0  0  0  0  0
    5.4475   -2.8326  -20.9955 F   0  0  0  0  0  0  0  0  0  0  0  0
   13.9313    1.1668  -12.6523 H   0  0  0  0  0  0  0  0  0  0  0  0
   13.2109   -0.8196  -13.9675 H   0  0  0  0  0  0  0  0  0  0  0  0
   12.3123    2.9922  -12.1602 H   0  0  0  0  0  0  0  0  0  0  0  0
   10.8660   -0.9866  -14.7818 H   0  0  0  0  0  0  0  0  0  0  0  0
    9.9602    2.8180  -12.9582 H   0  0  0  0  0  0  0  0  0  0  0  0
    7.1066    2.1395  -21.1287 H   0  0  0  0  0  0  0  0  0  0  0  0
    4.0533   -0.7523  -20.1639 H   0  0  0  0  0  0  0  0  0  0  0  0
    7.8060   -2.0503  -21.8378 H   0  0  0  0  0  0  0  0  0  0  0  0
    6.9209   -2.4328  -18.6233 H   0  0  0  0  0  0  0  0  0  0  0  0
    8.5760   -2.8681  -18.0776 H   0  0  0  0  0  0  0  0  0  0  0  0
    6.1937    5.5909  -19.2791 H   0  0  0  0  0  0  0  0  0  0  0  0
    7.0663    5.3221  -17.7322 H   0  0  0  0  0  0  0  0  0  0  0  0
    9.1233   -0.6518  -17.5327 H   0  0  0  0  0  0  0  0  0  0  0  0
    7.9066   -0.3056  -18.8080 H   0  0  0  0  0  0  0  0  0  0  0  0
    5.1191    6.9436  -15.7742 H   0  0  0  0  0  0  0  0  0  0  0  0
    4.1423    8.0151  -16.8346 H   0  0  0  0  0  0  0  0  0  0  0  0
    8.0389   -2.6233  -15.7982 H   0  0  0  0  0  0  0  0  0  0  0  0
    6.7849    7.5804  -17.3211 H   0  0  0  0  0  0  0  0  0  0  0  0
    5.2365    4.3410  -16.7511 H   0  0  0  0  0  0  0  0  0  0  0  0
    2.5097   -2.4316  -18.8488 H   0  0  0  0  0  0  0  0  0  0  0  0
    3.6196   -3.6133  -19.6221 H   0  0  0  0  0  0  0  0  0  0  0  0
    2.6148   -4.1103  -18.2185 H   0  0  0  0  0  0  0  0  0  0  0  0
    4.8199    9.5776  -22.4759 H   0  0  0  0  0  0  0  0  0  0  0  0
    4.1515    9.0837  -20.8835 H   0  0  0  0  0  0  0  0  0  0  0  0
    5.2119   10.5286  -21.0034 H   0  0  0  0  0  0  0  0  0  0  0  0
    8.5759   -0.2848  -14.5224 H   0  0  0  0  0  0  0  0  0  0  0  0
    8.1523    1.2315  -13.6573 H   0  0  0  0  0  0  0  0  0  0  0  0
    4.2358    2.5001  -21.0193 H   0  0  0  0  0  0  0  0  0  0  0  0
    3.6733    1.4864  -19.6471 H   0  0  0  0  0  0  0  0  0  0  0  0
    4.8655   -2.0247  -18.1677 H   0  0  0  0  0  0  0  0  0  0  0  0
    3.8608   -2.5217  -16.7641 H   0  0  0  0  0  0  0  0  0  0  0  0
    6.0580    7.6290  -21.5530 H   0  0  0  0  0  0  0  0  0  0  0  0
    7.1184    9.0739  -21.6728 H   0  0  0  0  0  0  0  0  0  0  0  0
    8.8372    2.5881  -15.5708 H   0  0  0  0  0  0  0  0  0  0  0  0
    9.4925    1.1456  -16.4171 H   0  0  0  0  0  0  0  0  0  0  0  0
    4.6847   -4.9256  -17.1879 H   0  0  0  0  0  0  0  0  0  0  0  0
    5.8686   -4.2220  -18.3411 H   0  0  0  0  0  0  0  0  0  0  0  0
    7.4806    7.9064  -19.5270 H   0  0  0  0  0  0  0  0  0  0  0  0
    6.7570    9.5266  -19.2480 H   0  0  0  0  0  0  0  0  0  0  0  0
    6.5695    1.4280  -15.5718 H   0  0  0  0  0  0  0  0  0  0  0  0
    5.6081   -3.5034  -15.3744 H   0  0  0  0  0  0  0  0  0  0  0  0
    3.4316    3.4282  -18.1188 H   0  0  0  0  0  0  0  0  0  0  0  0
    6.0842    3.3892  -19.6467 H   0  0  0  0  0  0  0  0  0  0  0  0
    5.0688    1.5214  -17.5330 H   0  0  0  0  0  0  0  0  0  0  0  0
    3.3769    5.6061  -16.4639 H   0  0  0  0  0  0  0  0  0  0  0  0
    3.3476    6.1897  -17.9887 H   0  0  0  0  0  0  0  0  0  0  0  0
    6.4969   -5.6104  -15.8601 H   0  0  0  0  0  0  0  0  0  0  0  0
    3.3266    4.0718  -20.3599 H   0  0  0  0  0  0  0  0  0  0  0  0
  1  2  2  0
  1  3  1  0
  2  4  1  0
  3  5  2  0
  4  9  2  0
  5  9  1  0
  6 10  2  0
  6 11  1  0
  7 10  1  0
  7 12  2  0
  8 11  2  0
  8 12  1  0
  9 24  1  0
 10 25  1  0
 11 43  1  0
 12 44  1  0
 13 19  1  0
 13 35  1  0
 13 38  2  0
 14 31  1  0
 14 36  1  0
 14 39  2  0
 15 17  1  0
 15 19  1  0
 16 20  1  0
 16 21  1  0
 17 35  1  0
 18 20  1  0
 18 37  1  0
 19 32  1  0
 20 42  1  0
 21 33  1  0
 21 37  1  0
 22 26  1  0
 23 27  1  0
 24 28  1  0
 25 34  1  0
 26 29  1  0
 27 30  1  0
 28 31  1  0
 29 32  1  0
 30 42  1  0
 31 35  1  0
 32 40  1  0
 33 34  1  0
 33 41  1  0
 34 36  1  0
  1 45  1  0
  2 46  1  0
  3 47  1  0
  4 48  1  0
  5 49  1  0
  6 50  1  0
  7 51  1  0
  8 52  1  0
 15 53  1  0
 15 54  1  0
 16 55  1  0
 16 56  1  0
 17 57  1  0
 17 58  1  0
 18 59  1  0
 18 60  1  0
 19 61  1  1
 20 62  1  1
 21 63  1  1
 22 64  1  0
 22 65  1  0
 22 66  1  0
 23 67  1  0
 23 68  1  0
 23 69  1  0
 24 70  1  0
 24 71  1  0
 25 72  1  0
 25 73  1  0
 26 74  1  0
 26 75  1  0
 27 76  1  0
 27 77  1  0
 28 78  1  0
 28 79  1  0
 29 80  1  0
 29 81  1  0
 30 82  1  0
 30 83  1  0
 31 84  1  1
 32 85  1  1
 33 86  1  1
 34 87  1  6
 36 88  1  0
 37 89  1  0
 37 90  1  0
 40 91  1  0
 41 92  1  0
M  CHG  1  37   1
M  END
>  <OMEGA_C>  (217) 
JZtOQRT4iz8mEVDBexJIQUDDB71q8FvBQ+k/QbsCCEB8hkvBCNEyQbKDB75KLGPBBZsqQXWXAUDm
rFLBEZvYQHOtjj+xqqjBcjChQCoiBb9rWqTBSCrlQKejoL8386vBL/0jQVafYj9rOF7BHnyvQEYq
UT/EmaTBE3rzQMjDoD2qPazB6vq7QBK0xr/eEqjBBc3QQB51kr/smoDBjKngQJk9CUDiNYzBblL2
QAFbD8Db8o7B6U/EQF8ltkCPe5HBlxwBQUxQRb++mI7BPKWXQM/v4kCqXYbB42jlQM2bHsA6pYPB
/GW8QIrk5EDzVY7BGUadQMNOnUBfDo3BNLRLQCQWUsCIWJXBBLSgQExNGEGBK6vBzGENQTmHRj9B
NmbBobyRQL0C9z/dEqHBL7qJQGW0NsCdto3BVCXIQPAmCkF0OKnBeGQLQUrpwD/5s3vBrbSoQLDy
gMBLf4vBeH3SQFVXCEFbQZ3Bb13qQC+hnj9IzILBYXXHQDJzbcCLC4LBrg6IQEKffEBYF5XBFs+n
QD/nOEBeJJnBkdblQLa1H76yfYbB+Sa3QPVOB0AJBJDBjgd8QKsbvkBhxInBT+W3QIR+dL/pW3LB
9bT8QEpWNEDOeZDBAI3hQLIbm8BcxH/BbttuQDCXlUCu+53BfFWvQOoT/UA+lpfBr3kNQWC/uj5x
A7DBiFGuQD1JNcDa9qfBqeZeQVtZlT/eb0rBuF9TQdLQUb+7el/BGP9EQZd/P0BakELB99otQU2U
fL8kgmzBEV0fQd5ZNEDOVE/B8WjjQBvuCECZB6nB9bSBQCuWQL/DT6HBy8r5QIA4A8DFs67B7Hfd
QEKzG8B8/JTBSzcJQbWPN8DwnpDBaTLGQIToskCQO5rBER/iQGxOqkCB243BPPkRQTjaJr/xQozB
/gL9QFxynL69dpbBe8+jQM0x3kAnY3zBkY2EQM89AEE7rYbBS58AQfXkJ8A/xXzBPR7ZQNeS8kCW
kYrBEJGnQJHpikAsAobBtJ4gQEmfG8BeypbB46dnQGtAZ8AT+pzBalknQJuHg8CHv5HBaDyaQAU+
GUGuzrPB5tiEQM9WEUGCEafB08emQD51KEHzBqjB9TYJQWvMkb7SW2jBBnACQTWgnT98hFrBiYuH
QBIBIEB2J6jBlxZrQKtDvj9NLZ3BjrKbQAmVAcBqV5HBohZ3QNVjIcDdHIbBCdvBQNQg9ECBbKzB
9cnjQNkuEUHyYa3BAGUNQXejJUDQIXnBNOEXQZeikj9OVoPBuOiVQM+encDQgInBWMu7QLYah8Ce
upLBwGDvQP0A/UA1N5zBKznYQBhtGEHP+5nB+jjSQH7Jtj8iJnnBLHWzQMY3YMB//XXBl59bQEBn
W0BP85DBvbHCQGjpWECALJ3BvjOiQBi8wj+WQ4zB8h5YQMVks0D9tYPB4z5WQEwSxkDa6I/BTebP
QBKIs8DPwn3Bl+dUQA1MgkAQ4aLB

>  <OMEGA_E>  (217) 
LNa7Pg==

>  <OMEGA_NBR>  (217) 
      6120

$$$$
50197331
     RDKit          3D

 98101  0  0  1  0  0  0  0  0999 V2000
   12.9490    0.9255  -13.0882 C   0  0  0  0  0  0  0  0  0  0  0  0
   12.0521    1.9553  -12.7378 C   0  0  0  0  0  0  0  0  0  0  0  0
   12.5123   -0.1544  -13.8822 C   0  0  0  0  0  0  0  0  0  0  0  0
   10.7133    1.8984  -13.1681 C   0  0  0  0  0  0  0  0  0  0  0  0
   11.1741   -0.2133  -14.3125 C   0  0  0  0  0  0  0  0  0  0  0  0
    6.7875    1.1274  -21.0763 C   0  0  0  0  0  0  0  0  0  0  0  0
    4.9714   -0.4656  -20.7411 C   0  0  0  0  0  0  0  0  0  0  0  0
    7.1090   -1.2248  -21.6373 C   0  0  0  0  0  0  0  0  0  0  0  0
   10.2692    0.8007  -13.9337 C   0  0  0  0  0  0  0  0  0  0  0  0
    5.4737    0.8455  -20.6361 C   0  0  0  0  0  0  0  0  0  0  0  0
    7.6058    0.0908  -21.5625 C   0  0  0  0  0  0  0  0  0  0  0  0
    5.7856   -1.4987  -21.2449 C   0  0  0  0  0  0  0  0  0  0  0  0
    6.2874   -1.1529  -16.2201 C   0  0  0  0  0  0  0  0  0  0  0  0
    7.5672   -3.7133  -14.9370 C   0  0  0  0  0  0  0  0  0  0  0  0
    7.0161    2.0904  -17.5256 C   0  0  0  0  0  0  0  0  0  0  0  0
    7.7973   -2.2943  -17.7538 C   0  0  0  0  0  0  0  0  0  0  0  0
    6.1398    5.6932  -18.1941 C   0  0  0  0  0  0  0  0  0  0  0  0
    7.7784   -0.7974  -17.9945 C   0  0  0  0  0  0  0  0  0  0  0  0
    4.7683    7.0586  -16.7461 C   0  0  0  0  0  0  0  0  0  0  0  0
    5.9144    7.1434  -17.7435 C   0  0  2  0  0  0  0  0  0  0  0  0
    4.9254    4.9128  -17.6354 C   0  0  2  0  0  0  0  0  0  0  0  0
    6.5061   -2.5180  -16.9357 C   0  0  2  0  0  0  0  0  0  0  0  0
    7.6472   -5.0221  -14.1600 C   0  0  0  0  0  0  0  0  0  0  0  0
    5.0357    9.4577  -21.3754 C   0  0  0  0  0  0  0  0  0  0  0  0
    2.8558   -2.8760  -18.4909 C   0  0  0  0  0  0  0  0  0  0  0  0
    5.4214   -4.3890  -18.3678 C   0  0  0  0  0  0  0  0  0  0  0  0
    8.8455    0.7406  -14.4053 C   0  0  0  0  0  0  0  0  0  0  0  0
    4.5582    1.9509  -20.1540 C   0  0  0  0  0  0  0  0  0  0  0  0
    6.2760    8.5946  -21.0947 C   0  0  0  0  0  0  0  0  0  0  0  0
    3.9364   -2.5262  -17.4462 C   0  0  0  0  0  0  0  0  0  0  0  0
    8.7390    1.4096  -15.7782 C   0  0  0  0  0  0  0  0  0  0  0  0
    6.5983    8.5401  -19.5947 C   0  0  0  0  0  0  0  0  0  0  0  0
    7.3308    1.1725  -16.3500 C   0  0  2  0  0  0  0  0  0  0  0  0
    4.2593    3.9432  -18.6330 C   0  0  2  0  0  0  0  0  0  0  0  0
    5.3556   -2.8828  -17.9501 C   0  0  1  0  0  0  0  0  0  0  0  0
    5.2497    2.8820  -19.1374 C   0  0  1  0  0  0  0  0  0  0  0  0
    7.1784   -0.2333  -16.7804 N   0  0  0  0  0  0  0  0  0  0  0  0
    6.6258   -3.6162  -15.9559 N   0  0  0  0  0  0  0  0  0  0  0  0
    5.7159    2.0833  -18.0002 N   0  0  0  0  0  0  0  0  0  0  0  0
    3.9533    5.9390  -17.2212 N   0  0  0  0  0  0  0  0  0  0  0  0
    5.6069   -0.9636  -15.2173 O   0  0  0  0  0  0  0  0  0  0  0  0
    8.4167   -2.8508  -14.7462 O   0  0  0  0  0  0  0  0  0  0  0  0
    7.8903    2.7745  -18.0490 O   0  0  0  0  0  0  0  0  0  0  0  0
    3.7388    4.6726  -19.7440 O   0  0  0  0  0  0  0  0  0  0  0  0
    5.5015    7.9491  -18.8647 O   0  0  0  0  0  0  0  0  0  0  0  0
    8.8632    0.3630  -21.9752 F   0  0  0  0  0  0  0  0  0  0  0  0
    5.3005   -2.7576  -21.3367 F   0  0  0  0  0  0  0  0  0  0  0  0
   13.9731    0.9640  -12.7474 H   0  0  0  0  0  0  0  0  0  0  0  0
   12.3923    2.7876  -12.1395 H   0  0  0  0  0  0  0  0  0  0  0  0
   13.2043   -0.9357  -14.1598 H   0  0  0  0  0  0  0  0  0  0  0  0
   10.0281    2.6932  -12.9126 H   0  0  0  0  0  0  0  0  0  0  0  0
   10.8403   -1.0330  -14.9315 H   0  0  0  0  0  0  0  0  0  0  0  0
    7.1634    2.1392  -21.0394 H   0  0  0  0  0  0  0  0  0  0  0  0
    3.9583   -0.6799  -20.4344 H   0  0  0  0  0  0  0  0  0  0  0  0
    7.7429   -2.0226  -21.9954 H   0  0  0  0  0  0  0  0  0  0  0  0
    7.7679   -2.8499  -18.7027 H   0  0  0  0  0  0  0  0  0  0  0  0
    8.6875   -2.5936  -17.1811 H   0  0  0  0  0  0  0  0  0  0  0  0
    6.1703    5.6286  -19.2917 H   0  0  0  0  0  0  0  0  0  0  0  0
    7.0786    5.2993  -17.7774 H   0  0  0  0  0  0  0  0  0  0  0  0
    8.7997   -0.4142  -18.1367 H   0  0  0  0  0  0  0  0  0  0  0  0
    7.1693   -0.5540  -18.8776 H   0  0  0  0  0  0  0  0  0  0  0  0
    5.1481    6.8610  -15.7328 H   0  0  0  0  0  0  0  0  0  0  0  0
    4.1848    7.9911  -16.7436 H   0  0  0  0  0  0  0  0  0  0  0  0
    6.8196    7.5425  -17.2625 H   0  0  0  0  0  0  0  0  0  0  0  0
    5.2527    4.3402  -16.7550 H   0  0  0  0  0  0  0  0  0  0  0  0
    8.5207   -4.9996  -13.4918 H   0  0  0  0  0  0  0  0  0  0  0  0
    6.7322   -5.1505  -13.5630 H   0  0  0  0  0  0  0  0  0  0  0  0
    7.7460   -5.8611  -14.8644 H   0  0  0  0  0  0  0  0  0  0  0  0
    4.8363    9.4732  -22.4571 H   0  0  0  0  0  0  0  0  0  0  0  0
    4.1678    9.0343  -20.8487 H   0  0  0  0  0  0  0  0  0  0  0  0
    5.2152   10.4835  -21.0210 H   0  0  0  0  0  0  0  0  0  0  0  0
    1.8642   -2.6087  -18.0971 H   0  0  0  0  0  0  0  0  0  0  0  0
    3.0460   -2.3141  -19.4172 H   0  0  0  0  0  0  0  0  0  0  0  0
    2.8872   -3.9548  -18.7035 H   0  0  0  0  0  0  0  0  0  0  0  0
    4.6075   -4.6101  -19.0740 H   0  0  0  0  0  0  0  0  0  0  0  0
    6.3894   -4.5942  -18.8483 H   0  0  0  0  0  0  0  0  0  0  0  0
    5.3138   -5.0221  -17.4747 H   0  0  0  0  0  0  0  0  0  0  0  0
    8.5281   -0.3098  -14.4827 H   0  0  0  0  0  0  0  0  0  0  0  0
    8.1984    1.2674  -13.6886 H   0  0  0  0  0  0  0  0  0  0  0  0
    4.2383    2.5484  -21.0204 H   0  0  0  0  0  0  0  0  0  0  0  0
    3.6773    1.4974  -19.6761 H   0  0  0  0  0  0  0  0  0  0  0  0
    6.0895    7.5729  -21.4573 H   0  0  0  0  0  0  0  0  0  0  0  0
    7.1369    9.0220  -21.6296 H   0  0  0  0  0  0  0  0  0  0  0  0
    3.8932   -1.4473  -17.2361 H   0  0  0  0  0  0  0  0  0  0  0  0
    3.7344   -3.0880  -16.5223 H   0  0  0  0  0  0  0  0  0  0  0  0
    8.9169    2.4902  -15.6754 H   0  0  0  0  0  0  0  0  0  0  0  0
    9.4890    0.9774  -16.4570 H   0  0  0  0  0  0  0  0  0  0  0  0
    7.5039    7.9352  -19.4404 H   0  0  0  0  0  0  0  0  0  0  0  0
    6.7718    9.5611  -19.2240 H   0  0  0  0  0  0  0  0  0  0  0  0
    6.6023    1.3776  -15.5518 H   0  0  0  0  0  0  0  0  0  0  0  0
    3.4389    3.4273  -18.1126 H   0  0  0  0  0  0  0  0  0  0  0  0
    5.5344   -2.2903  -18.8595 H   0  0  0  0  0  0  0  0  0  0  0  0
    6.0997    3.3818  -19.6250 H   0  0  0  0  0  0  0  0  0  0  0  0
    5.9653   -4.3632  -16.0325 H   0  0  0  0  0  0  0  0  0  0  0  0
    5.0520    1.4956  -17.5376 H   0  0  0  0  0  0  0  0  0  0  0  0
    3.3679    5.5936  -16.4877 H   0  0  0  0  0  0  0  0  0  0  0  0
    3.3866    6.2199  -17.9957 H   0  0  0  0  0  0  0  0  0  0  0  0
    3.3299    4.0709  -20.3549 H   0  0  0  0  0  0  0  0  0  0  0  0
  1  2  2  0
  1  3  1  0
  2  4  1  0
  3  5  2  0
  4  9  2  0
  5  9  1  0
  6 10  2  0
  6 11  1  0
  7 10  1  0
  7 12  2  0
  8 11  2  0
  8 12  1  0
  9 27  1  0
 10 28  1  0
 11 46  1  0
 12 47  1  0
 13 22  1  0
 13 37  1  0
 13 41  2  0
 14 23  1  0
 14 38  1  0
 14 42  2  0
 15 33  1  0
 15 39  1  0
 15 43  2  0
 16 18  1  0
 16 22  1  0
 17 20  1  0
 17 21  1  0
 18 37  1  0
 19 20  1  0
 19 40  1  0
 20 45  1  0
 21 34  1  0
 21 40  1  0
 22 35  1  0
 22 38  1  1
 24 29  1  0
 25 30  1  0
 26 35  1  0
 27 31  1  0
 28 36  1  0
 29 32  1  0
 30 35  1  0
 31 33  1  0
 32 45  1  0
 33 37  1  0
 34 36  1  0
 34 44  1  0
 36 39  1  0
  1 48  1  0
  2 49  1  0
  3 50  1  0
  4 51  1  0
  5 52  1  0
  6 53  1  0
  7 54  1  0
  8 55  1  0
 16 56  1  0
 16 57  1  0
 17 58  1  0
 17 59  1  0
 18 60  1  0
 18 61  1  0
 19 62  1  0
 19 63  1  0
 20 64  1  1
 21 65  1  1
 23 66  1  0
 23 67  1  0
 23 68  1  0
 24 69  1  0
 24 70  1  0
 24 71  1  0
 25 72  1  0
 25 73  1  0
 25 74  1  0
 26 75  1  0
 26 76  1  0
 26 77  1  0
 27 78  1  0
 27 79  1  0
 28 80  1  0
 28 81  1  0
 29 82  1  0
 29 83  1  0
 30 84  1  0
 30 85  1  0
 31 86  1  0
 31 87  1  0
 32 88  1  0
 32 89  1  0
 33 90  1  1
 34 91  1  1
 35 92  1  6
 36 93  1  6
 38 94  1  0
 39 95  1  0
 40 96  1  0
 40 97  1  0
 44 98  1  0
M  CHG  1  40   1
M  END
>  <OMEGA_C>  (218) 
Ai9PQYfsbD8taVHBOtVAQTFI+j8ezkvBYzJIQUMbHr5THV7BlmkrQYb/8j9msFLBMskyQeFzWr4K
AGXBXDPZQKpPkD88nKjBvhWfQLpe7r7R7aXBG33jQD/HnL80Ga3BeE4kQdf6TD9k8F7B3iivQDZx
WD/MFqXBnWLzQBIIuj3nf6zB6iO5QIbUv7939anBUTLJQHCRk7+twoHBGybyQEGmbcAH/m7BIYTg
QDXJBUCCNIzBw4P5QCvWEsC6B47BOXnEQHoutkBrjZHB2+j4QDkfTL/U9I/Bt5WYQDzg4UD694XB
F0O9QMCW5EDG8o3BipydQGs1nUA8FY3BpDHQQFInIcBCfIfBnLX0QBy1oMA3j2LBhSShQJ9SF0HQ
AKvBJMY2QAUROMBY7ZPB73utQN9yjMBL8ZLBXocNQW+WPT8pfGbBddyRQPu1+T9vO6HBB9XIQF+D
CUEJwqjBe+57QAStIcDRkYvB9dILQcJttD+Xc3zB8CTTQC+kCEHZwZzBMpbqQLwUlj/bzILBFkyI
QN1dfEBeEJXBJ2GrQEp/OMDMmY/Bx/2nQGhzOEBgGZnBjbXlQF/obr5EPobBWAbUQIdwZ8BQS3/B
X+i2QMFUBUBpAJDBzwJ9QPoLvkAMxYnBbmuzQFuwdr80enPB26oGQehzNsBX8GvBin38QEaRMUBd
ZJDBdUhvQEKGlUDD853BTwywQLpe/kDS6pbByc8NQejZuT48za/B+p2pQA98MMCQsarBx5FfQVnK
dj999UvBq0ZGQdpnMkBSO0LB1ERTQYOKb7+bjmLB93IgQd5cLED5mU7B6XEtQfQ4hL9h527BdTrl
QFXpCECXUKjBxVR9QN8LLr+aeaPBlsX3QMdxAcCi9q/B6pL4QDJlNsAbn5XBMgALQSn9JcDfconB
CHPFQLEdtEB4VZrBhoPiQB+UqUAOOI7BlMsMQdYW1L4GGJHBnmrlQPjRDb85BZfB1bykQKWN20CR
uXvB2OmFQDm3/0Ds8oXBQDraQDxc8UClGYrBBhaoQOriikBHCobBuFQIQeT8n8BY3lfBcW7XQJDQ
pMDiAVnBo9/3QIGOu8Cc1G3BnMKaQB2SF0ELqLPBNl6FQLKMEEEQyqbBj+KmQDi8J0EUK6jB1Jzu
Pzj1JsDGxpDB3/FCQHEaFMB1VpvBo8c4QDkcfcC0oJXBW3CTQP+Fk8CEl5jBxHXMQL8Dk8BcyZbB
AQuqQBi1oMA2zIvBE3MIQXuanr4ruWfBpywDQbU4oj9tBFvBcaCHQNgYI0DaKajBy1hrQJSpvz+n
aJ3Bed3CQDBV8kBzqKvB0mHkQB5aEEF3Ca3B+yp5QDRBub+B44nBvwBvQGKiRcDBLYTBvasOQQRg
H0CBznrB+dIXQSE6ej/vp4PBWCDwQOPs/UDhhZvBNLLYQGH6GEHKypnBAEbTQAJWsD8y1HjBPRdc
QLZYW0Cf5pDB3hmxQJOUEsBH4JbB4DDDQHpvWED//5zBDOS+QFufi8CkQoDBRKqhQOpwvz8NTYzB
D4tXQKr+skDl5oPBZ71YQG0Jx0BE94/BlR1VQLREgkDs1qLBaYBPQQhtdz+IolHBs21IQd74Br60
4F3BKDNBQb9kAECZXkzBiP4yQRy3Sr6yq2TBN70rQbhd+D9IHlPBOHTZQD94jD9klajB9v6eQHla
+L4q9KXBzEbjQBi2oL/YHq3BNY8kQYpPUz+q7V7BeVKvQHCjUj+NFqXBG3fzQNzTZT1BeazBYt24
QGTIwr8n/6nBdKXJQN9yk7//u4HBnQzyQDdLb8C+DW/Bs+PgQE+3BUBFN4zBMW76QBh2EsCY5I3B
W2HEQObxtUCftJHBHpT5QBxXS78k44/BS4mYQKaR4UAdFobBDCC9QJ5V5EALF47B8cWdQEzXnECc
J43BpdbQQNQDIcBcd4fB/zL1QI9aosAuXmPB5WKhQKfnGEFIuqrBlMg4QI9SPcAI7JPBxJ6vQFH9
i8BsOpPBiMUNQdynQT+vbmbByyWSQOJY9z/rPqHBi/nHQBAlCkFY1qjBJlJ9QEiRJMAjk4vB5gUM
QVSWtT/DcXzBgv7SQHhyCEG45pzBcP7qQGmUlj/GyILBGHiIQHMWe0ClEpXBS2CsQM05OMAFqI/B
4UioQLF2N0AKI5nBpC3mQGaza779M4bBJEzUQPMQaMDMdn/Bylq3QDCABECGDJDB0SF9QKSTvUCB
1onB0uSzQDhLd7+/aHPBiysGQZAeN8CRQGvBkcT8QHPJMUCIZZDBKL1uQGaglEAF853BXNyvQAcd
/kDNDZfBgvANQbcXoz4lsa/BcSapQDfOMcAVtqrB4elfQQeBgT+TRkzBGHRTQQn2a7/nCWLBsrVG
QSOSNkBOKUPB7pktQRXsg79gQ27B280gQW9vL0DIQ0/Bua7lQIjVBkCtRKjB1A59QBOpMb9sgqPB
6mL3QFCYA8CmArDBvPz5QNxhNsDddZXBcmALQZUBJcDINYnBoBHFQDTfs0AUfZrBqJPiQHV0qUAx
b47B7BgNQUWuz74uBZHBqBrmQM4JD7+w+JbBBsykQHNp20D29nvB3byFQDFU/0C6FIbBZBzaQIwf
8UBJQYrBqICoQLK1ikDhGobBI1kIQfm5ocBlYljBZqrXQPvlp8CtM1rB2n/5QPxCvMA2Fm/BDHCa
QA28GUEyWLPBbVeFQNaFEkEleabBXr+oQP0GKUFJt6fBcaDxP/55LsA7wJDBLYxDQBDlGMDGVJvB
wS09QK0egcDwoZXBOtKVQEE2k8Co75jBYcrOQO6NkcCcEpfBGYqsQO3eoMCTL4zBDsMIQepTl74F
lmfBZGQDQe1XpD/W/lrBBvGHQPTHIUD1MKjBid9rQCe2vT+maJ3BHWXAQHYw9EA16avBDs3jQGKZ
EEFaJ63BAjV4QHFXv7/04YnBltZxQAIEScAeL4TBEtYOQbABIECT4XrBsQcYQbQgfD/po4PBxpfv
QHi+/EDY7ZvBlX7ZQOSIGEFHuZnBtarTQAQCsT8Uz3jBNexcQBbOWUDf2JDBJa+xQJLLEMAg05bB
Ol/DQHmrV0DcDp3BkyG/QGHZi8AYeYDBjEKiQAq+vD/nYIzBn+5XQF+CskAE8oPBk5pYQElpxkBC
BpDBQJhUQA4zgUDPy6LB

>  <OMEGA_E>  (218) 
+N1APpDCQD4=

>  <OMEGA_NBR>  (218) 
      9470

$$$$
50197336
     RDKit          3D

 88 91  0  0  1  0  0  0  0  0999 V2000
   12.9423    1.0088  -13.0890 C   0  0  0  0  0  0  0  0  0  0  0  0
   12.5240   -0.0836  -13.8754 C   0  0  0  0  0  0  0  0  0  0  0  0
   12.0287    2.0287  -12.7517 C   0  0  0  0  0  0  0  0  0  0  0  0
   11.1885   -0.1656  -14.3100 C   0  0  0  0  0  0  0  0  0  0  0  0
   10.6907    1.9473  -13.1849 C   0  0  0  0  0  0  0  0  0  0  0  0
    6.7839    1.1379  -21.0745 C   0  0  0  0  0  0  0  0  0  0  0  0
    4.9592   -0.4540  -20.7661 C   0  0  0  0  0  0  0  0  0  0  0  0
    7.1030   -1.2080  -21.6547 C   0  0  0  0  0  0  0  0  0  0  0  0
   10.2647    0.8346  -13.9418 C   0  0  0  0  0  0  0  0  0  0  0  0
    5.4622    0.8570  -20.6550 C   0  0  0  0  0  0  0  0  0  0  0  0
    7.6070    0.1029  -21.5534 C   0  0  0  0  0  0  0  0  0  0  0  0
    5.7744   -1.4815  -21.2772 C   0  0  0  0  0  0  0  0  0  0  0  0
    6.1286   -1.1294  -16.2256 C   0  0  0  0  0  0  0  0  0  0  0  0
    6.9937    2.0495  -17.5446 C   0  0  0  0  0  0  0  0  0  0  0  0
    7.6728   -2.3986  -17.5633 C   0  0  0  0  0  0  0  0  0  0  0  0
    6.1868    5.6153  -18.0981 C   0  0  0  0  0  0  0  0  0  0  0  0
    7.7649   -0.9157  -17.8843 C   0  0  0  0  0  0  0  0  0  0  0  0
    4.7820    7.0715  -16.7943 C   0  0  0  0  0  0  0  0  0  0  0  0
    6.2956   -2.5160  -16.9015 C   0  0  2  0  0  0  0  0  0  0  0  0
    5.9377    7.0901  -17.7810 C   0  0  2  0  0  0  0  0  0  0  0  0
    4.9158    4.8781  -17.6005 C   0  0  2  0  0  0  0  0  0  0  0  0
    4.9716    9.5224  -21.3093 C   0  0  0  0  0  0  0  0  0  0  0  0
    5.2090   -4.3712  -18.2805 C   0  0  0  0  0  0  0  0  0  0  0  0
    3.7845   -2.4174  -17.6230 C   0  0  0  0  0  0  0  0  0  0  0  0
    8.8386    0.7316  -14.4109 C   0  0  0  0  0  0  0  0  0  0  0  0
    4.5455    1.9627  -20.1760 C   0  0  0  0  0  0  0  0  0  0  0  0
    6.3027    8.7932  -21.0689 C   0  0  0  0  0  0  0  0  0  0  0  0
    8.7095    1.3926  -15.7863 C   0  0  0  0  0  0  0  0  0  0  0  0
    6.5707    8.5828  -19.5721 C   0  0  0  0  0  0  0  0  0  0  0  0
    7.2956    1.1486  -16.3500 C   0  0  2  0  0  0  0  0  0  0  0  0
    5.2161   -2.8516  -17.9881 C   0  0  0  0  0  0  0  0  0  0  0  0
    4.2546    3.9441  -18.6369 C   0  0  2  0  0  0  0  0  0  0  0  0
    5.2357    2.8762  -19.1462 C   0  0  1  0  0  0  0  0  0  0  0  0
    7.1116   -0.2715  -16.7395 N   0  0  0  0  0  0  0  0  0  0  0  0
    5.6919    2.0632  -18.0147 N   0  0  0  0  0  0  0  0  0  0  0  0
    3.9590    5.9355  -17.2171 N   0  0  0  0  0  0  0  0  0  0  0  0
    5.3803   -0.8849  -15.2869 O   0  0  0  0  0  0  0  0  0  0  0  0
    7.8737    2.7268  -18.0680 O   0  0  0  0  0  0  0  0  0  0  0  0
    3.7729    4.7116  -19.7394 O   0  0  0  0  0  0  0  0  0  0  0  0
    5.5297    7.7784  -18.9807 O   0  0  0  0  0  0  0  0  0  0  0  0
    8.8782    0.3708  -21.9269 F   0  0  0  0  0  0  0  0  0  0  0  0
    5.2865   -2.7388  -21.3783 F   0  0  0  0  0  0  0  0  0  0  0  0
   13.9642    1.0648  -12.7442 H   0  0  0  0  0  0  0  0  0  0  0  0
   13.2283   -0.8570  -14.1440 H   0  0  0  0  0  0  0  0  0  0  0  0
   12.3548    2.8721  -12.1613 H   0  0  0  0  0  0  0  0  0  0  0  0
   10.8708   -0.9943  -14.9255 H   0  0  0  0  0  0  0  0  0  0  0  0
    9.9929    2.7340  -12.9386 H   0  0  0  0  0  0  0  0  0  0  0  0
    7.1614    2.1486  -21.0268 H   0  0  0  0  0  0  0  0  0  0  0  0
    3.9469   -0.6712  -20.4587 H   0  0  0  0  0  0  0  0  0  0  0  0
    7.7350   -2.0032  -22.0216 H   0  0  0  0  0  0  0  0  0  0  0  0
    7.7260   -3.0065  -18.4785 H   0  0  0  0  0  0  0  0  0  0  0  0
    8.4721   -2.7051  -16.8726 H   0  0  0  0  0  0  0  0  0  0  0  0
    6.3196    5.4695  -19.1803 H   0  0  0  0  0  0  0  0  0  0  0  0
    7.0783    5.2507  -17.5669 H   0  0  0  0  0  0  0  0  0  0  0  0
    8.8144   -0.5967  -17.9678 H   0  0  0  0  0  0  0  0  0  0  0  0
    7.2355   -0.6832  -18.8201 H   0  0  0  0  0  0  0  0  0  0  0  0
    5.1491    6.9252  -15.7677 H   0  0  0  0  0  0  0  0  0  0  0  0
    4.2088    8.0088  -16.8486 H   0  0  0  0  0  0  0  0  0  0  0  0
    6.3090   -3.3061  -16.1363 H   0  0  0  0  0  0  0  0  0  0  0  0
    6.8305    7.5460  -17.3283 H   0  0  0  0  0  0  0  0  0  0  0  0
    5.1815    4.2849  -16.7131 H   0  0  0  0  0  0  0  0  0  0  0  0
    4.8152    9.6544  -22.3901 H   0  0  0  0  0  0  0  0  0  0  0  0
    4.1469    8.9279  -20.8895 H   0  0  0  0  0  0  0  0  0  0  0  0
    4.9997   10.5073  -20.8201 H   0  0  0  0  0  0  0  0  0  0  0  0
    4.4488   -4.5949  -19.0434 H   0  0  0  0  0  0  0  0  0  0  0  0
    6.1991   -4.6783  -18.6486 H   0  0  0  0  0  0  0  0  0  0  0  0
    4.9744   -4.9210  -17.3570 H   0  0  0  0  0  0  0  0  0  0  0  0
    3.0985   -2.6914  -18.4381 H   0  0  0  0  0  0  0  0  0  0  0  0
    3.4733   -2.9226  -16.6967 H   0  0  0  0  0  0  0  0  0  0  0  0
    3.7589   -1.3280  -17.4729 H   0  0  0  0  0  0  0  0  0  0  0  0
    8.5513   -0.3278  -14.4838 H   0  0  0  0  0  0  0  0  0  0  0  0
    8.1783    1.2421  -13.6944 H   0  0  0  0  0  0  0  0  0  0  0  0
    4.2389    2.5698  -21.0406 H   0  0  0  0  0  0  0  0  0  0  0  0
    3.6566    1.5112  -19.7113 H   0  0  0  0  0  0  0  0  0  0  0  0
    6.2673    7.8127  -21.5663 H   0  0  0  0  0  0  0  0  0  0  0  0
    7.1201    9.3921  -21.4969 H   0  0  0  0  0  0  0  0  0  0  0  0
    8.8828    2.4745  -15.6896 H   0  0  0  0  0  0  0  0  0  0  0  0
    9.4552    0.9615  -16.4705 H   0  0  0  0  0  0  0  0  0  0  0  0
    7.5375    8.0736  -19.4455 H   0  0  0  0  0  0  0  0  0  0  0  0
    6.6025    9.5605  -19.0691 H   0  0  0  0  0  0  0  0  0  0  0  0
    6.5731    1.3874  -15.5557 H   0  0  0  0  0  0  0  0  0  0  0  0
    5.5025   -2.3312  -18.9139 H   0  0  0  0  0  0  0  0  0  0  0  0
    3.4133    3.4317  -18.1474 H   0  0  0  0  0  0  0  0  0  0  0  0
    6.0929    3.3732  -19.6240 H   0  0  0  0  0  0  0  0  0  0  0  0
    5.0209    1.4824  -17.5538 H   0  0  0  0  0  0  0  0  0  0  0  0
    3.3779    5.6253  -16.4647 H   0  0  0  0  0  0  0  0  0  0  0  0
    3.3870    6.1892  -17.9972 H   0  0  0  0  0  0  0  0  0  0  0  0
    3.3669    4.1337  -20.3748 H   0  0  0  0  0  0  0  0  0  0  0  0
  1  2  2  0
  1  3  1  0
  2  4  1  0
  3  5  2  0
  4  9  2  0
  5  9  1  0
  6 10  2  0
  6 11  1  0
  7 10  1  0
  7 12  2  0
  8 11  2  0
  8 12  1  0
  9 25  1  0
 10 26  1  0
 11 41  1  0
 12 42  1  0
 13 19  1  0
 13 34  1  0
 13 37  2  0
 14 30  1  0
 14 35  1  0
 14 38  2  0
 15 17  1  0
 15 19  1  0
 16 20  1  0
 16 21  1  0
 17 34  1  0
 18 20  1  0
 18 36  1  0
 19 31  1  0
 20 40  1  0
 21 32  1  0
 21 36  1  0
 22 27  1  0
 23 31  1  0
 24 31  1  0
 25 28  1  0
 26 33  1  0
 27 29  1  0
 28 30  1  0
 29 40  1  0
 30 34  1  0
 32 33  1  0
 32 39  1  0
 33 35  1  0
  1 43  1  0
  2 44  1  0
  3 45  1  0
  4 46  1  0
  5 47  1  0
  6 48  1  0
  7 49  1  0
  8 50  1  0
 15 51  1  0
 15 52  1  0
 16 53  1  0
 16 54  1  0
 17 55  1  0
 17 56  1  0
 18 57  1  0
 18 58  1  0
 19 59  1  1
 20 60  1  1
 21 61  1  1
 22 62  1  0
 22 63  1  0
 22 64  1  0
 23 65  1  0
 23 66  1  0
 23 67  1  0
 24 68  1  0
 24 69  1  0
 24 70  1  0
 25 71  1  0
 25 72  1  0
 26 73  1  0
 26 74  1  0
 27 75  1  0
 27 76  1  0
 28 77  1  0
 28 78  1  0
 29 79  1  0
 29 80  1  0
 30 81  1  1
 31 82  1  0
 32 83  1  1
 33 84  1  6
 35 85  1  0
 36 86  1  0
 36 87  1  0
 39 88  1  0
M  CHG  1  36   1
M  END
>  <OMEGA_C>  (219) 
nBNPQfYfgT+QbFHBcGJIQZAdq71xAV7BdXVAQYjVAUAUB0zBNwQzQUmbKb7L9WTBHg0rQcpB+T9P
9VLB+hXZQLulkT96mKjB4bGeQMB26L7nIKbBmUvjQM2gmr+6PK3BPzwkQdGlVT96EV/BrsquQFti
Wz+HPaXB8GzzQBCo0j1ebazBLMi4QK+ivb+dN6rBmh3EQI2RkL8QzoHBoszfQG8qA0BjW4zBrof1
QC+CGcCvgYzBMvrFQJyws0D6yJDBRHr4QBhrar8lE4/BDgaZQMZJ4kCsWobBQnXJQHgFIcBANofB
zgG+QDLi4kCFP47BJ06dQL0ZnEDCzYzBnhefQPFbGEGDearBQLCmQDThi8BePpLB+jRyQGG3GsDd
+4zB/GoNQcxHOz/nkmbB6HSRQG46+z98aKHB/K/JQNywDEEWjajBMFoLQVA/sj+1lHzBFEPSQPNS
CUGlk5zB8nXpQNMDkz/YzILBR+qmQDeANsCp54/B6CWIQEhsfEBNGJXBrYqnQL0TOEBuK5nBaJLj
QNgEi76Z6oXBZiS2QN0KBEAHHpDBil99QKTvvUC1vInBYyusQGCGYr8yl3TBPPX7QCaELkBCi5DB
WHdxQDnFlkBH6p3BXfOwQPLo+EB32JfBAA0OQTzYvT43aq/BryqpQLtHL8DFBqvBdW1fQTNMiD8j
6EvB/aZTQeJlW78ATmLBIq1FQSDRN0CxlELBou4tQdOHfr+9zm7BAuMfQcT5LkCeBE/BGCrlQEuD
CUDNNqjB5Jl8QIvQK79yq6PBb4X3QLkzAMBPLLDBnjv3QMZpQMAS1JPBu40HQawgLcD8+obBkjrK
QDYGr0BDcZnBf4HiQMMFqEDpiIzBmwcNQRnEGL8Evo/Bc4nnQLjlLr+ej5bBucWkQGWb3UCZSHzB
2K6GQBwkAEH5yYbBDuPJQLuXU8A+F4HB3ZPaQDR58UBLoIrBfs6lQBEeiUBUtIXBZRaaQEp4GkH/
HrPBSbOEQHrYDkG6HafBVv2fQNQdKEGjj6bBR1yOQB0Jk8DIWJjBxF7GQKe0lcBDMJXBqC6fQDN5
ncA324rBmE5GQKE/LMBDgZPBP0peQMULO8DdkoXBJZFwQN/8qb+CyIvBS9IIQT3Pp76cvWfBSdoC
Qef7nj8nHFvBIqWHQI93JEAVU6jB7gVqQLluwT++sJ3BpI3IQKIB+kDBh6zBsdfjQCtGFkGr+avB
7x8OQWpeHkCzCHvBp0gXQbcjdj+Fw4PBYTPxQJEtAUFnkJvB+EfTQMn3GEGDjZjB2VbSQDSVsT9H
5HjBsRSwQDEyFcDBT5fB0HJaQKShW0DgLZHBuPjCQCPiV0Di/ZzBDKugQBC/vT82bozBcy9YQKQC
tEC5t4PBHsVYQL8NxkBY+o/BiXtXQP5GhECC/6LBbwNPQZ3qfz+etFHBiHxIQU7s3r32AV7BnzxA
QYb6AEA3jEzB5iIzQadYV76482TBLdgqQaAO9T99d1PBoL/aQFIpkD9aiqjBLbyfQKS55b6jgqbB
13XkQKafm7+Oaq3BgzMkQUtZST8cUl/BskCwQHRXWj88VaXBU9b0QMxfuT3HeqzBoL+5QFK+vb8r
i6rBtXXGQHO1l7+UaYHBLDfgQLGEA0CqWYzBabfkQAX/DcB9JpHBA1vEQF5ctkBFxpHBU2b+QK2Z
gL/3z43BHqaYQJq34UB+DobBF3HKQEDyIsC7PofBnTm9QP2k5EAiEI7BycWdQIwnnUDTPY3BaVKh
QIt+GEHgxqrBF8F9QMf6F8AJT5DBgKSlQKsWksD3+I/Bj28NQffeKj/F82bBnNWSQPgP+z8fjaHB
QZXIQJZBCkE4wKjBvGsLQe+dqz+B1nzBPi7TQDDZCEE5yJzBFHPpQLz9jz8D84LBo3GeQOueT8CL
xonBXnuIQFoXfEB2NpXBUGaoQMiUOECIRZnB0RziQAhkjb75c4bBo8G2QCB6BEDPN5DBIDx9QCPT
vUD52YnBfnSvQMKYc79MZnPBsEj8QG64MEAoQpDBFiFvQIFVlUDUE57BhAWwQOq9/kB3+ZbBl8EO
QQpBtT4LfK/BqD2qQMF2L8AWRqvBBFxfQTYiiT9WOEzBn95TQatLYb8LGmLBXlFFQVezN0BXS0PB
Uy8uQd6Uhr8LmG7BoI4fQZaqLEDLtk/B9zLnQE1lCEBk96fB0/J9QHfEJ7+eT6TBdqb4QLDQAMAV
VrDBi9PPQInr/b+q+pfB4+v5QPKSQ8CTRJPBauzEQH6QtEDXj5rB7pPiQMi5qUCtjY7B+QUOQUVl
p78YvInBMiwDQWycxL4CzZTBZO6kQOVd20CM7XvBWuCFQCx+/0BbAYbBBSjdQDhoTsBzJILB80Da
QGw78UDwNIrBhI+oQG3VikBkOobBfauaQHojGUGLabPBEnOFQPPMEUFVkqbB9LunQES9KEFey6fB
+VJCQHEJPMCAs5HBJSRvQCtQur8Q1YvB1XeNQDEtB8BpCZjB8ZGGQCkvocBuqZHBBTK2QAU/i8BP
jJfBY0q5QEfip8C7HIvB0RMJQXInyr5TUmjB9K8CQcqvlD+ueVvBsDiJQGMxJEBygKjB/JVsQHcq
wT/d4p3BDfXBQOsn9EBVy6vB7z3kQEcEEUFeBK3BX3QOQWHSGkAjJHvBXTkXQdSjZz/k74PBUPbv
QNzn/UBssZvBIDPZQOwHGUGiqpnBPXvSQJsHrj/ZGXnB7yOPQGBeX8BgGYLB5ctcQA22WkBMB5HB
sc/DQAz4WEBjBp3B0iuhQN5Pvj+qmIzBLiRYQD6dskAh94PBj5dYQF7UxkATA5DBFwFVQLsHgkDj
9KLB

>  <OMEGA_E>  (219) 
SBCqPkDsoz4=

>  <OMEGA_NBR>  (219) 
     12536

$$$$
50197338
     RDKit          3D

 91 94  0  0  1  0  0  0  0  0999 V2000
   12.9055    0.8610  -13.0406 C   0  0  0  0  0  0  0  0  0  0  0  0
   12.4634   -0.2288  -13.8177 C   0  0  0  0  0  0  0  0  0  0  0  0
   12.0252    1.9198  -12.7365 C   0  0  0  0  0  0  0  0  0  0  0  0
   11.1361   -0.2668  -14.2792 C   0  0  0  0  0  0  0  0  0  0  0  0
   10.6960    1.8818  -13.1943 C   0  0  0  0  0  0  0  0  0  0  0  0
    6.7658    1.1245  -21.0491 C   0  0  0  0  0  0  0  0  0  0  0  0
    4.8723   -0.4017  -20.8477 C   0  0  0  0  0  0  0  0  0  0  0  0
    7.0013   -1.2090  -21.7182 C   0  0  0  0  0  0  0  0  0  0  0  0
   10.2484    0.7765  -13.9443 C   0  0  0  0  0  0  0  0  0  0  0  0
    5.4269    0.8792  -20.6620 C   0  0  0  0  0  0  0  0  0  0  0  0
    7.5562    0.0744  -21.5534 C   0  0  0  0  0  0  0  0  0  0  0  0
    5.6507   -1.4366  -21.3953 C   0  0  0  0  0  0  0  0  0  0  0  0
    6.4416   -1.1156  -15.9621 C   0  0  0  0  0  0  0  0  0  0  0  0
    6.9989    2.1364  -17.5355 C   0  0  0  0  0  0  0  0  0  0  0  0
    7.4707   -2.2574  -17.7901 C   0  0  0  0  0  0  0  0  0  0  0  0
    6.1045    5.7045  -18.1821 C   0  0  0  0  0  0  0  0  0  0  0  0
    7.5919   -0.7640  -17.9976 C   0  0  0  0  0  0  0  0  0  0  0  0
    4.7378    7.0817  -16.7396 C   0  0  0  0  0  0  0  0  0  0  0  0
    6.2989   -2.3640  -16.8150 C   0  0  2  0  0  0  0  0  0  0  0  0
    5.9098    7.1529  -17.7105 C   0  0  2  0  0  0  0  0  0  0  0  0
    4.8821    4.9369  -17.6358 C   0  0  2  0  0  0  0  0  0  0  0  0
    5.0785    9.1886  -21.4683 C   0  0  0  0  0  0  0  0  0  0  0  0
    3.1235   -3.1904  -18.9467 C   0  0  0  0  0  0  0  0  0  0  0  0
    4.8286   -4.7622  -17.9651 C   0  0  0  0  0  0  0  0  0  0  0  0
    8.8373    0.7264  -14.4316 C   0  0  0  0  0  0  0  0  0  0  0  0
    4.5313    1.9983  -20.1774 C   0  0  0  0  0  0  0  0  0  0  0  0
    4.8976   -2.2595  -17.4675 C   0  0  0  0  0  0  0  0  0  0  0  0
    6.3038    9.5120  -20.5992 C   0  0  0  0  0  0  0  0  0  0  0  0
    8.7368    1.4332  -15.7912 C   0  0  0  0  0  0  0  0  0  0  0  0
    6.6641    8.3401  -19.6791 C   0  0  0  0  0  0  0  0  0  0  0  0
    7.3193    1.2360  -16.3440 C   0  0  2  0  0  0  0  0  0  0  0  0
    4.2287    3.9762  -18.6491 C   0  0  2  0  0  0  0  0  0  0  0  0
    4.5938   -3.3444  -18.5108 C   0  0  0  0  0  0  0  0  0  0  0  0
    5.2263    2.9186  -19.1548 C   0  0  1  0  0  0  0  0  0  0  0  0
    7.1370   -0.1729  -16.7259 N   0  0  0  0  0  0  0  0  0  0  0  0
    5.6998    2.1122  -18.0224 N   0  0  0  0  0  0  0  0  0  0  0  0
    3.9164    5.9731  -17.2331 N   0  0  0  0  0  0  0  0  0  0  0  0
    5.8360   -0.9035  -14.9181 O   0  0  0  0  0  0  0  0  0  0  0  0
    7.8626    2.8465  -18.0398 O   0  0  0  0  0  0  0  0  0  0  0  0
    3.7220    4.7175  -19.7603 O   0  0  0  0  0  0  0  0  0  0  0  0
    5.5569    8.0217  -18.8060 O   0  0  0  0  0  0  0  0  0  0  0  0
    8.8383    0.3065  -21.9119 F   0  0  0  0  0  0  0  0  0  0  0  0
    5.0842   -2.6327  -21.6687 F   0  0  0  0  0  0  0  0  0  0  0  0
   13.9222    0.8852  -12.6769 H   0  0  0  0  0  0  0  0  0  0  0  0
   13.1431   -1.0329  -14.0581 H   0  0  0  0  0  0  0  0  0  0  0  0
   12.3716    2.7594  -12.1521 H   0  0  0  0  0  0  0  0  0  0  0  0
   10.7975   -1.0922  -14.8879 H   0  0  0  0  0  0  0  0  0  0  0  0
   10.0220    2.6958  -12.9721 H   0  0  0  0  0  0  0  0  0  0  0  0
    7.1812    2.1172  -20.9576 H   0  0  0  0  0  0  0  0  0  0  0  0
    3.8460   -0.5896  -20.5688 H   0  0  0  0  0  0  0  0  0  0  0  0
    7.6116   -2.0179  -22.0920 H   0  0  0  0  0  0  0  0  0  0  0  0
    7.2484   -2.7731  -18.7360 H   0  0  0  0  0  0  0  0  0  0  0  0
    8.3903   -2.6736  -17.3529 H   0  0  0  0  0  0  0  0  0  0  0  0
    6.1315    5.6563  -19.2808 H   0  0  0  0  0  0  0  0  0  0  0  0
    7.0368    5.2873  -17.7738 H   0  0  0  0  0  0  0  0  0  0  0  0
    8.6355   -0.4843  -18.2044 H   0  0  0  0  0  0  0  0  0  0  0  0
    6.9523   -0.4345  -18.8296 H   0  0  0  0  0  0  0  0  0  0  0  0
    5.0915    6.8782  -15.7181 H   0  0  0  0  0  0  0  0  0  0  0  0
    4.1674    8.0222  -16.7496 H   0  0  0  0  0  0  0  0  0  0  0  0
    6.3764   -3.2745  -16.2027 H   0  0  0  0  0  0  0  0  0  0  0  0
    6.8132    7.5061  -17.1918 H   0  0  0  0  0  0  0  0  0  0  0  0
    5.1942    4.3597  -16.7530 H   0  0  0  0  0  0  0  0  0  0  0  0
    4.8490   10.0491  -22.1141 H   0  0  0  0  0  0  0  0  0  0  0  0
    5.2938    8.3089  -22.0926 H   0  0  0  0  0  0  0  0  0  0  0  0
    4.2153    8.9761  -20.8204 H   0  0  0  0  0  0  0  0  0  0  0  0
    2.9604   -2.1747  -19.3364 H   0  0  0  0  0  0  0  0  0  0  0  0
    2.8953   -3.9255  -19.7326 H   0  0  0  0  0  0  0  0  0  0  0  0
    2.4651   -3.3615  -18.0823 H   0  0  0  0  0  0  0  0  0  0  0  0
    5.8789   -4.8671  -17.6554 H   0  0  0  0  0  0  0  0  0  0  0  0
    4.1723   -4.9351  -17.0995 H   0  0  0  0  0  0  0  0  0  0  0  0
    4.6025   -5.4991  -18.7498 H   0  0  0  0  0  0  0  0  0  0  0  0
    8.5246   -0.3226  -14.5403 H   0  0  0  0  0  0  0  0  0  0  0  0
    8.1816    1.2314  -13.7071 H   0  0  0  0  0  0  0  0  0  0  0  0
    4.2249    2.6033  -21.0434 H   0  0  0  0  0  0  0  0  0  0  0  0
    3.6413    1.5568  -19.7051 H   0  0  0  0  0  0  0  0  0  0  0  0
    4.1424   -2.3292  -16.6707 H   0  0  0  0  0  0  0  0  0  0  0  0
    4.8212   -1.2790  -17.9603 H   0  0  0  0  0  0  0  0  0  0  0  0
    7.1602    9.7283  -21.2547 H   0  0  0  0  0  0  0  0  0  0  0  0
    6.0817   10.3954  -19.9826 H   0  0  0  0  0  0  0  0  0  0  0  0
    8.9392    2.5071  -15.6660 H   0  0  0  0  0  0  0  0  0  0  0  0
    9.4696    1.0008  -16.4883 H   0  0  0  0  0  0  0  0  0  0  0  0
    6.9059    7.4596  -20.2926 H   0  0  0  0  0  0  0  0  0  0  0  0
    7.5381    8.6138  -19.0699 H   0  0  0  0  0  0  0  0  0  0  0  0
    6.6086    1.4756  -15.5394 H   0  0  0  0  0  0  0  0  0  0  0  0
    3.4021    3.4551  -18.1439 H   0  0  0  0  0  0  0  0  0  0  0  0
    5.2416   -3.1882  -19.3860 H   0  0  0  0  0  0  0  0  0  0  0  0
    6.0738    3.4239  -19.6410 H   0  0  0  0  0  0  0  0  0  0  0  0
    5.0433    1.5063  -17.5730 H   0  0  0  0  0  0  0  0  0  0  0  0
    3.3149    5.6319  -16.5107 H   0  0  0  0  0  0  0  0  0  0  0  0
    3.3658    6.2641  -18.0155 H   0  0  0  0  0  0  0  0  0  0  0  0
    3.3203    4.1220  -20.3821 H   0  0  0  0  0  0  0  0  0  0  0  0
  1  2  2  0
  1  3  1  0
  2  4  1  0
  3  5  2  0
  4  9  2  0
  5  9  1  0
  6 10  2  0
  6 11  1  0
  7 10  1  0
  7 12  2  0
  8 11  2  0
  8 12  1  0
  9 25  1  0
 10 26  1  0
 11 42  1  0
 12 43  1  0
 13 19  1  0
 13 35  1  0
 13 38  2  0
 14 31  1  0
 14 36  1  0
 14 39  2  0
 15 17  1  0
 15 19  1  0
 16 20  1  0
 16 21  1  0
 17 35  1  0
 18 20  1  0
 18 37  1  0
 19 27  1  0
 20 41  1  0
 21 32  1  0
 21 37  1  0
 22 28  1  0
 23 33  1  0
 24 33  1  0
 25 29  1  0
 26 34  1  0
 27 33  1  0
 28 30  1  0
 29 31  1  0
 30 41  1  0
 31 35  1  0
 32 34  1  0
 32 40  1  0
 34 36  1  0
  1 44  1  0
  2 45  1  0
  3 46  1  0
  4 47  1  0
  5 48  1  0
  6 49  1  0
  7 50  1  0
  8 51  1  0
 15 52  1  0
 15 53  1  0
 16 54  1  0
 16 55  1  0
 17 56  1  0
 17 57  1  0
 18 58  1  0
 18 59  1  0
 19 60  1  1
 20 61  1  1
 21 62  1  1
 22 63  1  0
 22 64  1  0
 22 65  1  0
 23 66  1  0
 23 67  1  0
 23 68  1  0
 24 69  1  0
 24 70  1  0
 24 71  1  0
 25 72  1  0
 25 73  1  0
 26 74  1  0
 26 75  1  0
 27 76  1  0
 27 77  1  0
 28 78  1  0
 28 79  1  0
 29 80  1  0
 29 81  1  0
 30 82  1  0
 30 83  1  0
 31 84  1  1
 32 85  1  1
 33 86  1  0
 34 87  1  6
 36 88  1  0
 37 89  1  0
 37 90  1  0
 40 91  1  0
M  CHG  1  37   1
M  END
>  <OMEGA_C>  (220) 
Dn1OQSVqXD94plDBKGpHQVtIar50FV3BRWdAQXK69T+LyEvBqy0yQYagiL6Ad2TB/yIrQRbe8D8L
HFPByYHYQP7tjz+PZKjBwOmbQIKnzb4oyKbB+ArgQKjAmr/evq3BcvkjQfLJRj8GHF/BUamtQLYT
YT/CS6XBX8zxQOdomD1TbazBSNK0QLTit7+AKavBYiHOQNvLjr+4ZH/BQ/ffQB27CEDHSIzBDRDv
QIx5EMAsUo7B6FfDQDaLtkAGdZHBI/HyQAWWQ78g+4/B5ZuXQOmc4kCs6oXByJDJQLdLF8AihYbB
Hh29QJDk5EAtr43BizqcQP76nUAlFo3BHIOiQLQEE0Efv6vBXedHQOovTMDrkpfBP4SaQMxjmMB8
uI/Bx2UNQcL1OT/152bBogCRQEfI/z9Wa6HBzLicQNKbEMBqvYvBnLjJQAoxGEESy6TB48kLQV5z
tz+vqHzBPEDVQN9wBUHkbp3B3TfqQCU0nj+awILBR1GHQFp6fkBUMZXBZACTQEgKVsA4FpTBCD6n
QKPJOkABPZnBgGLkQKUGMb6yzoXBumS2QPMtB0DgLZDBF6Z6QF4jv0Bw3YnBfcC6QAxKZ7++sG7B
0Jr7QLItNkCWUZDBrjVuQLH1lkAwFZ7BvtGxQLNYAEHFcpbB22kNQQLsnD6jS6/B5bGiQGt9KMCC
Wa3BIsFeQZ2ZYj+h1ErBFEpSQXk3hL8h7mDB5fFFQQ+aMEApb0LBf8IsQanLi7/1NG7B7FkgQeSH
LEDZjU/Bw8zlQJJ/B0A8qafB1SR2QMzyFr/njKTB3pHzQBAlAcB1vLDBHvPnQOp5McBY45XBuz4G
QSUcK8DU0orBJzXEQBYAtUD6PprBLC3hQD0xqUCwMI7B9CoKQWPy976RopHB7XjeQDF43r4Xo5bB
bu2iQEca3EAyfXvBIVuFQLxaAEEz/4XB1QvMQFiRUcAHn4HB7wXaQNYx8EDKiInB7jamQFqCi0AQ
BobBQCubQAjJIEGg6bDB7mapQGzxBEGyvbDB/+OGQA2eD0FCkKbB9Hc9QP4uC8DesJrBUkw5QEI7
e8Bi3J3BAsQdQI0iV8CRqJDBLSC8QJ2/m8BQPo3BO4OFQIHsncC8y4jBY0eTQNz4r8CN/5XBkWQI
Qfsnpb4EpWjB6OcCQRSenT8XUFvBBTKHQPacJkD5WKjBpQtpQM5Gxz8ipJ3Bo46EQGQSFcCRXYXB
5EaaQJ63o7+mro/BLyDlQAinG0G5CarBQJ3CQKpTJkFK3J/BDQcPQR91IEDkp3rBZYMXQcoZgD8g
6IPBaP3cQPy07kAyV6LBXDjxQBLSCUE+j5jBs3nTQH/fvD9SoXjBDLxZQAggXUC8JpHBNLunQJIL
TMCcFpvBe1zCQJshW0DEIJ3B5GKhQBzOwD+NlYzBrSdUQJY4tED7FYTBSWlXQMRzyEDHH5DBiYBU
QLrng0CODqPBbEBOQYkkZT/TzFDBXDlHQZFwQL7saF3B1A5AQbOE+D+YlEvBN+4xQcs5bb4KnmTB
q7sqQQPr8j9uu1LBG5fYQIHgkD9S8ajB+USeQNhV6r79V6bB26PiQK7Nm79Bia3B/50jQaVXTD+D
5F7BlYWuQG3vWT8rb6XBWanyQGLMxD224qzB8k64QC7Avr/pYarBHjjOQAOAkb/NGIDB0BfgQO8R
B0BZbIzB8jD1QEDEEsBolI3B/sXDQHp0tkALuZHB10L5QBvSS79FbI/BobCXQETZ4UDoGobBODDM
QN+jGMCvAYfB3uS8QOG25EAA743BqJecQP2NnUD4aY3B4s6hQHboGEEmdqrBgbufQAxYl8BlvZLB
HD9AQAI3TcBgQpXBJQENQUChPj+3mWbBlluRQHCR+j+fjaHB4eijQOBvEMAGLI7BednIQIltCkEw
kqjBq2ILQQ8Wuz8IQHzBNdXTQCnECEGpoJzBoAPqQLnunD/vyILB3LOHQOwqfUADfJXBXpSHQK1n
YMApQY7BuomnQIL9OEAYbZnBf5XlQL03Pr5t24XB2H62QIUMBkDiSZDB4P96QAOFvkABKorBbAi5
QHmLcb8o/W/BIh78QDV2MkAgpZDBSENvQGX7lUBub57B1VmwQLRP/0BwzpbB8XMNQbS8uz7eMbDB
x8GoQHPWL8DuJKvBW5BeQYVqbD/YHUvBsy1SQaGKe7+WhmHBWI9FQfKtMUBlGELB6IwsQW2Khr8o
gW7BRN4fQcn/LECi607BubjkQL0ZCUBrmKjBjY17QH14K79f8KPB6dL2QNjsAMAOdLDB/RjyQN6H
NcBYMZXBfmIIQU/aK8B8GYnBTO/EQJ72tECXgprBq57hQHlbqUBXZo7BJYsNQYQTAb8iHJDB3gbo
QFnA/b6jtZbB4kSjQIjc2kAG9nvB+U+FQHfe/0AeCIbBrDPLQGNSU8C7JoLBvcXZQPXi8EAr7YnB
7KOmQKsji0D1WIbBqOOaQCy5GUGJFLPBMO+FQEZLEkG2OabBg6ioQDQSKUHTbafBjda7QKUJnsCG
to3BZl+KQI5Ss8DQvJLBIzSqQEKWkMBJ+JrBDBIeQH1eFcBxBpLBhwJVQFCQP8Atfp3BDlkVQHWE
gsC0QpXB/w0IQSbxm75bdGjBnYECQUb4nj+r7VrBixKHQA+II0C1eqjBC2RqQNGbwD+Ctp3B8bSQ
QJaItL/IP4vBd2SuQHOYA8D7apbBEcjBQHer9EA1qqvBZIHkQKkcEUFS3qzBVwYOQRKRIkABAnrB
hYcXQR7Nhz8coYPB2SXwQOMC/UA6n5vBCb7aQOXUGEHeeZnBA3bSQHPWuT/T/3jBblJaQDRAXEC3
bJHB+f55QAxzbsAXDIbBAcHCQMjVWEB3Vp3BhE6hQDRPwD8wnYzBZkpUQINds0CZb4TBIAFYQI8H
yEASbZDBVqBVQKXCgkDyX6PB

>  <OMEGA_E>  (220) 
eIJ1PtAmWj4=

>  <OMEGA_NBR>  (220) 
     15686

$$$$
50197340
     RDKit          3D

 75 77  0  0  1  0  0  0  0  0999 V2000
    6.7528    1.1131  -21.1374 C   0  0  0  0  0  0  0  0  0  0  0  0
    4.9085   -0.4389  -20.7499 C   0  0  0  0  0  0  0  0  0  0  0  0
    6.9831   -1.2351  -21.7546 C   0  0  0  0  0  0  0  0  0  0  0  0
    5.4520    0.8575  -20.6505 C   0  0  0  0  0  0  0  0  0  0  0  0
    7.5205    0.0646  -21.6752 C   0  0  0  0  0  0  0  0  0  0  0  0
    5.6704   -1.4815  -21.3101 C   0  0  0  0  0  0  0  0  0  0  0  0
    6.1193   -1.1969  -16.2628 C   0  0  0  0  0  0  0  0  0  0  0  0
    7.0400    2.0315  -17.4396 C   0  0  0  0  0  0  0  0  0  0  0  0
    7.6463   -2.4265  -17.6636 C   0  0  0  0  0  0  0  0  0  0  0  0
    6.1587    5.7422  -18.2381 C   0  0  0  0  0  0  0  0  0  0  0  0
    7.7375   -0.9336  -17.9313 C   0  0  0  0  0  0  0  0  0  0  0  0
    4.7763    7.1067  -16.7960 C   0  0  0  0  0  0  0  0  0  0  0  0
    6.2854   -2.5659  -16.9686 C   0  0  2  0  0  0  0  0  0  0  0  0
    5.8990    7.1975  -17.8199 C   0  0  2  0  0  0  0  0  0  0  0  0
    4.9780    4.9417  -17.6399 C   0  0  2  0  0  0  0  0  0  0  0  0
    4.9228    9.5285  -21.4397 C   0  0  0  0  0  0  0  0  0  0  0  0
    8.7605    1.1934  -15.7037 C   0  0  0  0  0  0  0  0  0  0  0  0
    5.1759   -4.4168  -18.3201 C   0  0  0  0  0  0  0  0  0  0  0  0
    3.7566   -2.4682  -17.6373 C   0  0  0  0  0  0  0  0  0  0  0  0
    4.5869    1.9826  -20.1394 C   0  0  0  0  0  0  0  0  0  0  0  0
    6.1473    8.6319  -21.2010 C   0  0  0  0  0  0  0  0  0  0  0  0
    6.5161    8.5666  -19.7124 C   0  0  0  0  0  0  0  0  0  0  0  0
    7.3344    1.0520  -16.2856 C   0  0  2  0  0  0  0  0  0  0  0  0
    5.1828   -2.8978  -18.0302 C   0  0  0  0  0  0  0  0  0  0  0  0
    4.3170    3.9525  -18.6139 C   0  0  2  0  0  0  0  0  0  0  0  0
    5.3085    2.8774  -19.1047 C   0  0  1  0  0  0  0  0  0  0  0  0
    7.1104   -0.3346  -16.7487 N   0  0  0  0  0  0  0  0  0  0  0  0
    5.7498    2.0481  -17.9648 N   0  0  0  0  0  0  0  0  0  0  0  0
    3.9862    5.9484  -17.2177 N   0  0  0  0  0  0  0  0  0  0  0  0
    5.3720   -0.9753  -15.3176 O   0  0  0  0  0  0  0  0  0  0  0  0
    7.9245    2.7493  -17.8959 O   0  0  0  0  0  0  0  0  0  0  0  0
    3.7804    4.6701  -19.7292 O   0  0  0  0  0  0  0  0  0  0  0  0
    5.4451    7.9663  -18.9520 O   0  0  0  0  0  0  0  0  0  0  0  0
    8.7667    0.3111  -22.1355 F   0  0  0  0  0  0  0  0  0  0  0  0
    5.1448   -2.7245  -21.4041 F   0  0  0  0  0  0  0  0  0  0  0  0
    7.1579    2.1134  -21.0968 H   0  0  0  0  0  0  0  0  0  0  0  0
    3.9067   -0.6327  -20.3959 H   0  0  0  0  0  0  0  0  0  0  0  0
    7.5779   -2.0420  -22.1563 H   0  0  0  0  0  0  0  0  0  0  0  0
    7.6721   -2.9994  -18.6023 H   0  0  0  0  0  0  0  0  0  0  0  0
    8.4625   -2.7617  -17.0069 H   0  0  0  0  0  0  0  0  0  0  0  0
    6.1728    5.6508  -19.3342 H   0  0  0  0  0  0  0  0  0  0  0  0
    7.1153    5.3862  -17.8281 H   0  0  0  0  0  0  0  0  0  0  0  0
    8.7860   -0.6143  -18.0245 H   0  0  0  0  0  0  0  0  0  0  0  0
    7.1894   -0.6640  -18.8461 H   0  0  0  0  0  0  0  0  0  0  0  0
    5.1833    6.9524  -15.7858 H   0  0  0  0  0  0  0  0  0  0  0  0
    4.1638    8.0203  -16.8090 H   0  0  0  0  0  0  0  0  0  0  0  0
    6.3273   -3.3689  -16.2180 H   0  0  0  0  0  0  0  0  0  0  0  0
    6.8017    7.6327  -17.3664 H   0  0  0  0  0  0  0  0  0  0  0  0
    5.3381    4.3866  -16.7611 H   0  0  0  0  0  0  0  0  0  0  0  0
    4.6884    9.5514  -22.5142 H   0  0  0  0  0  0  0  0  0  0  0  0
    4.0615    9.1280  -20.8851 H   0  0  0  0  0  0  0  0  0  0  0  0
    5.1417   10.5484  -21.0905 H   0  0  0  0  0  0  0  0  0  0  0  0
    8.8984    0.4671  -14.8890 H   0  0  0  0  0  0  0  0  0  0  0  0
    9.5000    1.0013  -16.4950 H   0  0  0  0  0  0  0  0  0  0  0  0
    8.8977    2.2126  -15.3132 H   0  0  0  0  0  0  0  0  0  0  0  0
    4.4002   -4.6448  -19.0659 H   0  0  0  0  0  0  0  0  0  0  0  0
    6.1590   -4.7202  -18.7092 H   0  0  0  0  0  0  0  0  0  0  0  0
    4.9638   -4.9663  -17.3910 H   0  0  0  0  0  0  0  0  0  0  0  0
    3.0564   -2.7417  -18.4404 H   0  0  0  0  0  0  0  0  0  0  0  0
    3.4638   -2.9768  -16.7069 H   0  0  0  0  0  0  0  0  0  0  0  0
    3.7309   -1.3793  -17.4838 H   0  0  0  0  0  0  0  0  0  0  0  0
    4.2842    2.6074  -20.9927 H   0  0  0  0  0  0  0  0  0  0  0  0
    3.6930    1.5503  -19.6662 H   0  0  0  0  0  0  0  0  0  0  0  0
    5.9214    7.6162  -21.5579 H   0  0  0  0  0  0  0  0  0  0  0  0
    7.0016    9.0366  -21.7633 H   0  0  0  0  0  0  0  0  0  0  0  0
    7.4281    7.9636  -19.5915 H   0  0  0  0  0  0  0  0  0  0  0  0
    6.6980    9.5854  -19.3395 H   0  0  0  0  0  0  0  0  0  0  0  0
    6.6220    1.2673  -15.4756 H   0  0  0  0  0  0  0  0  0  0  0  0
    5.4493   -2.3772  -18.9619 H   0  0  0  0  0  0  0  0  0  0  0  0
    3.5012    3.4431  -18.0801 H   0  0  0  0  0  0  0  0  0  0  0  0
    6.1720    3.3646  -19.5812 H   0  0  0  0  0  0  0  0  0  0  0  0
    5.0698    1.4526  -17.5370 H   0  0  0  0  0  0  0  0  0  0  0  0
    3.4364    5.6025  -16.4574 H   0  0  0  0  0  0  0  0  0  0  0  0
    3.3859    6.1912  -17.9798 H   0  0  0  0  0  0  0  0  0  0  0  0
    3.3716    4.0600  -20.3318 H   0  0  0  0  0  0  0  0  0  0  0  0
  1  4  2  0
  1  5  1  0
  2  4  1  0
  2  6  2  0
  3  5  2  0
  3  6  1  0
  4 20  1  0
  5 34  1  0
  6 35  1  0
  7 13  1  0
  7 27  1  0
  7 30  2  0
  8 23  1  0
  8 28  1  0
  8 31  2  0
  9 11  1  0
  9 13  1  0
 10 14  1  0
 10 15  1  0
 11 27  1  0
 12 14  1  0
 12 29  1  0
 13 24  1  0
 14 33  1  0
 15 25  1  0
 15 29  1  0
 16 21  1  0
 17 23  1  0
 18 24  1  0
 19 24  1  0
 20 26  1  0
 21 22  1  0
 22 33  1  0
 23 27  1  0
 25 26  1  0
 25 32  1  0
 26 28  1  0
  1 36  1  0
  2 37  1  0
  3 38  1  0
  9 39  1  0
  9 40  1  0
 10 41  1  0
 10 42  1  0
 11 43  1  0
 11 44  1  0
 12 45  1  0
 12 46  1  0
 13 47  1  1
 14 48  1  1
 15 49  1  1
 16 50  1  0
 16 51  1  0
 16 52  1  0
 17 53  1  0
 17 54  1  0
 17 55  1  0
 18 56  1  0
 18 57  1  0
 18 58  1  0
 19 59  1  0
 19 60  1  0
 19 61  1  0
 20 62  1  0
 20 63  1  0
 21 64  1  0
 21 65  1  0
 22 66  1  0
 22 67  1  0
 23 68  1  1
 24 69  1  0
 25 70  1  1
 26 71  1  6
 28 72  1  0
 29 73  1  0
 29 74  1  0
 32 75  1  0
M  CHG  1  29   1
M  END
>  <OMEGA_C>  (221) 
vRbYQAl5jj9sGanBoRKdQKS84L67/6XBv3XfQDYWnr9hCa7BknauQHiFWz8oNKXB7KfwQC44hD3S
Zq3B63O1QKWgvb8De6rBDdHDQKozmb8jGoLB8UfhQOIEAkBbhIvBNq70QFRLG8AUT43BBxTFQB/A
t0Cw55HBzpn3QJj/br9Mc4/BddeYQERq40BGXobBwCHJQAo3JMCmv4fBRsS8QPRR5kAwj47Bl0uf
QB4inkB8Ho3BzYedQNV0GEGPhKvBHisMQZLAmD8qQnvB8qClQGBWjcCDj5LBhmtwQLL3HcBFGY3B
58eSQNPF/T+VHaHBp7bEQBUcCkGVm6nB0YPQQOcQCUELs53BeLPqQLOnhj/gSILBitmlQHZ1OcDm
PZDBpiSKQJj1fEBS6ZTBLd+pQK4mOECD1pjBLYjjQERNq75e/YXBHf63QPQTA0Dst4/Bxx1/QARZ
vkDyvYnBQOerQPKueb/SFHXBg5X9QKb0L0DgKo/BXPFxQDFxlUBZ1Z3BUT6uQP7r/kC8nZfBlEQM
QVFJnz5xFbHBNqKkQLhdLsCGO6vBUQ3lQNFBB0BNxqjBzAd6QGb4Ib/nKqPBf37yQNewAsAMQLHB
woH1QIn2P8Bu0ZTBk2YHQUW/MMAJDojBwofFQCLTtECBrJrBxbDjQI9brEADoI7BiJMMQVhAHb9A
MpDBbQ/mQBn6Kb/MxJbBu92lQGR63kC0knzB9z2FQExTAEHOeIbBVHnKQAucV8B3voHBTafZQCw/
9EBU7orBT9GqQBFfjEC+FobBbgeWQKzSGEEcHbTBg/eBQCUMEkGxFKfBooikQDnGKEFSuajBt18O
QRku7z6EOW7BGwAYQWIpgD/E9YPBAV0OQZaaDUDnAnXBbM6MQNuhlMAOh5jBrBbFQJALl8CArJXB
uteeQJjrnsDWIIvBr5tDQFZ4L8D/hZPBVK9dQCuDPsC6p4XBqcduQIONsL+93ovBYRiJQPDfJkD7
8KfBaVlsQEhwxj9VVJ3BYXy9QOi380CodqzBgA3gQAiWEEFJG67BGLPtQCDW/kBju5zBwFXWQMBd
GUFet5rBj+fTQDY4oj/um3fBj2CuQM4kGMD4sZfBpBNgQAJbXEADpJDB1IDFQAVWV0A1ppzBGzyi
QCvtuT/FS4zBku1bQPpHs0DKqIPBz7JYQEMexkCZ1o/BZchXQEfrgUCbp6LBtoTZQDjykT9qD6nB
zfidQNM7z762j6bBmdvgQBw4mb9sU67BoaevQK5+YT8qXKXB8RvyQFTwyz0Mea3BA5S2QMYGub9U
/arBNfPEQDt7nL/IzIHBWW7hQHjcAkB0P4vBFyPjQH7aDcCpvpHB6MvFQE98t0AQspHB4Jf7QJjs
dr/jrI7Bms6YQKiL40Abe4bBCRvJQJH8I8Dg1YfBpA+9QF4m5kA7lI7BNW6fQIsnnkA4GI3BLMib
QChgGEESFqvBVy4MQd0nlD9/AXvBfu95QIooGMDxnJDBGxWkQBX4kcDTxpDBjdGTQAgw/z9OJ6HB
ZcTFQDoRDEHGT6nBQXbQQPf0CUEiX53B1pDqQK7EhT8eJILB2Q2dQIuNUMBIV4rBXrSKQGMvfUDY
9ZTBaqaqQCCFOEAAy5jB+D7iQAEIo77WOYbBx2a4QPd1A0BeoY/BXCh/QJqSvkD46YnBGN+sQD8n
gL8YinTBVOj9QGXPMECAzo7BLvZzQMmllUDz653BAKOuQPG7/UC6zZfBKBANQUpVsz70CLHBHiCm
QPxZLMB+t6vBEqbmQCzBCEDAgKjBRdl6QN3dF7/2E6TBcw70QK8EAMC/ibHBa/rNQFtUAcDcmZjB
/k75QI4hQsCTv5PB5EnHQGIPtEAjcprB5QHkQAFMrEBbJo7B98kNQYIDnb9zqIvBIsX+QD9bl76s
nZXBSXOlQJWh3kCauHzBeVeFQMFuAEESqIbBAQHcQJQGUMCi2oLBBbDZQJOg9EDZ9IrBRzyqQNto
jECp/YXB0TqVQDSNGUFgtrPBmF2BQLrYD0GnIafBx7GeQEKKKEGkrqfBYEIOQbKz1T7gJm7BpO0X
QU5qdz8M4IPBN6EOQf3LCkDUhnTBgIs+QHVNPMAj/5HBe4VrQCZjvL+L9IvBwxKLQErhBcBYWJjB
DvuEQF0KocAbcpLBaDi0QMBtisDjXZjBlQ64QDEXqMBNGIzBZPmJQN0TKEBT66fBPKRuQAxWxj9/
Z53BuZvCQLbw90Dxx6zB6O/fQOOpFEHuVK3BKnjuQA/vAEECeZzBPVnUQJ8DGkH05pnB5ufTQF2E
oD9RPHfBKDaOQP69YcAAqILB7sVgQO19XEB3yJDBlm7GQDPHV0CXhpzBb4+iQEjnuT/FT4zBm/Za
QI67s0D+5YPBj7pZQI1LxkD/G5DB6kpaQGcsgkDby6LBX93aQGf9jz+476jBdTKhQJQZ6r6FTaXB
AV7kQAbdnr9L+6zBloCxQLDGWj+T9aTBxkz0QI5ynj015azBd5+6QLCewL8oRKnB1mbvQK09bL8L
hI7BGH3iQAAIBkBeQYvBJnOrQAtE+L8CRovBsmjGQAiYt0AhWpHBwtWzQNQXVr+/CoPBmviXQJ6I
4kBWTIbBs+/XQNFiEcDFbo/BgSa8QAoN5kDpYo7B6dufQBKInUDbG43BDN2YQDZNF0GhGqvBBPgM
QSDXjz+P/3vBSJkPQamZWMAuC4vBIQvmQPtzYMBUEnrBkTOVQILZ/D+2IKHBLYnDQMCsC0EzOKnB
9hfOQFj4CUE+Qp3BRCXrQHdwjD8IGILB7mruQN1aXMDoQInBqtaLQJizfUDRSZXBmOqrQIE5OUBQ
+JjBjCzeQArCgr6hrIXBRqa5QDz8BUDHtI/B2fJ+QA8yvUAHz4nBP3wGQQgeC79HNpTB2wb/QEQf
NEARwo7B4kJ5QCJvlkAmUp7BZAOtQMCv/EAKsJfBxfkNQTrfrj6Ip7DBqEirQLBDMcBROqnBUPfm
QDS9CED376jBHh+BQDuNKL+JhKLBXyH4QLUhA8CH5K/B2pycQMRTNMCQfIfB7bqWQBKyyb/Hw5HB
VmbJQMQNtEBSE5rBYkDkQFcgrUDvfI3BA92aQEeWgr27j4PBwkK0QC47ob8/13XBTbKkQOec3UBL
X3zBp/ODQH57/0CFa4bB5q7VQLETI8CC7pfBhT/YQKSl9UCgy4rB20+qQIj3ikCQGobB2GmSQA81
GEFAvrPBoMx9QPtzDkEzI6fBq7maQLiRJ0EVx6fBQ9wOQY8yyD4xAm/Bs+AXQeKwXj92mYTBZsgQ
QZJJCEDe+XXBHVQXQVeuhsAkr4bBrhATQcOfXsBto5PBh84VQbsdG8BwFojB9lj3QK6fi8CbMnPB
tUvxQMz1JMBfh3LB/InDQDgKaMD4JnfBlnSLQDsaJUC3EKjBdFNxQARmxT8CUZ3Br23BQOrv9kBq
nKzBCkHdQLGVFEFNQK3BB77sQO6JAUGBR5zB0a3QQOUlGkGv2pnBiH7WQEY5sT9ysnbBksviQB5T
jMDavozBM55hQA37XEC5aJHBk5XHQAYnWEAnzJzBismjQJvLvz8dUozBxGJbQNy9sUAwzoPBYAVZ
QCrPxEAM94/Beo5gQENNg0D5WqPB

>  <OMEGA_E>  (221) 
yvwIP4x1CT8yaTg/

>  <OMEGA_NBR>  (221) 
     19535

$$$$
50197341
     RDKit          3D

 78 80  0  0  1  0  0  0  0  0999 V2000
    6.7218    1.1260  -21.1662 C   0  0  0  0  0  0  0  0  0  0  0  0
    4.8765   -0.4314  -20.8136 C   0  0  0  0  0  0  0  0  0  0  0  0
    6.9631   -1.2151  -21.8015 C   0  0  0  0  0  0  0  0  0  0  0  0
    5.4226    0.8606  -20.6817 C   0  0  0  0  0  0  0  0  0  0  0  0
    7.4939    0.0858  -21.7116 C   0  0  0  0  0  0  0  0  0  0  0  0
    5.6487   -1.4693  -21.3692 C   0  0  0  0  0  0  0  0  0  0  0  0
    6.4289   -1.1546  -16.0246 C   0  0  0  0  0  0  0  0  0  0  0  0
    7.0571    2.1129  -17.4284 C   0  0  0  0  0  0  0  0  0  0  0  0
    7.6542   -2.2708  -17.7435 C   0  0  0  0  0  0  0  0  0  0  0  0
    6.1563    5.7237  -18.1264 C   0  0  0  0  0  0  0  0  0  0  0  0
    7.8024   -0.7692  -17.9071 C   0  0  0  0  0  0  0  0  0  0  0  0
    4.6736    7.0884  -16.7982 C   0  0  0  0  0  0  0  0  0  0  0  0
    6.3637   -2.3771  -16.9372 C   0  0  2  0  0  0  0  0  0  0  0  0
    5.8358    7.1821  -17.7739 C   0  0  2  0  0  0  0  0  0  0  0  0
    4.9316    4.9193  -17.6283 C   0  0  2  0  0  0  0  0  0  0  0  0
    4.9380    9.5649  -21.3800 C   0  0  0  0  0  0  0  0  0  0  0  0
    8.8022    1.3971  -15.6496 C   0  0  0  0  0  0  0  0  0  0  0  0
    4.8718   -4.7016  -18.3715 C   0  0  0  0  0  0  0  0  0  0  0  0
    2.9398   -3.1105  -18.6792 C   0  0  0  0  0  0  0  0  0  0  0  0
    4.5627    1.9702  -20.1357 C   0  0  0  0  0  0  0  0  0  0  0  0
    5.1195   -2.2266  -17.8515 C   0  0  0  0  0  0  0  0  0  0  0  0
    6.1835    8.6995  -21.1349 C   0  0  0  0  0  0  0  0  0  0  0  0
    6.4915    8.5650  -19.6378 C   0  0  0  0  0  0  0  0  0  0  0  0
    7.3896    1.1863  -16.2346 C   0  0  2  0  0  0  0  0  0  0  0  0
    4.3185    3.9687  -18.6672 C   0  0  2  0  0  0  0  0  0  0  0  0
    4.1773   -3.4377  -17.8193 C   0  0  0  0  0  0  0  0  0  0  0  0
    5.3067    2.8776  -19.1238 C   0  0  1  0  0  0  0  0  0  0  0  0
    7.2559   -0.2162  -16.6518 N   0  0  0  0  0  0  0  0  0  0  0  0
    5.7671    2.0726  -17.9661 N   0  0  0  0  0  0  0  0  0  0  0  0
    3.9158    5.9202  -17.2464 N   0  0  0  0  0  0  0  0  0  0  0  0
    5.7235   -0.9704  -15.0399 O   0  0  0  0  0  0  0  0  0  0  0  0
    7.9256    2.8274  -17.9179 O   0  0  0  0  0  0  0  0  0  0  0  0
    3.8790    4.7247  -19.8006 O   0  0  0  0  0  0  0  0  0  0  0  0
    5.4121    7.8945  -18.9533 O   0  0  0  0  0  0  0  0  0  0  0  0
    8.7406    0.3409  -22.1647 F   0  0  0  0  0  0  0  0  0  0  0  0
    5.1342   -2.7147  -21.4719 F   0  0  0  0  0  0  0  0  0  0  0  0
    7.1223    2.1278  -21.1179 H   0  0  0  0  0  0  0  0  0  0  0  0
    3.8651   -0.6257  -20.4885 H   0  0  0  0  0  0  0  0  0  0  0  0
    7.5648   -2.0175  -22.2022 H   0  0  0  0  0  0  0  0  0  0  0  0
    7.5587   -2.7714  -18.7183 H   0  0  0  0  0  0  0  0  0  0  0  0
    8.5053   -2.6987  -17.1934 H   0  0  0  0  0  0  0  0  0  0  0  0
    6.2815    5.6060  -19.2129 H   0  0  0  0  0  0  0  0  0  0  0  0
    7.0717    5.3932  -17.6138 H   0  0  0  0  0  0  0  0  0  0  0  0
    8.8600   -0.4918  -18.0285 H   0  0  0  0  0  0  0  0  0  0  0  0
    7.2278   -0.4119  -18.7743 H   0  0  0  0  0  0  0  0  0  0  0  0
    5.0387    6.9448  -15.7706 H   0  0  0  0  0  0  0  0  0  0  0  0
    4.0532    7.9956  -16.8434 H   0  0  0  0  0  0  0  0  0  0  0  0
    6.3228   -3.3121  -16.3592 H   0  0  0  0  0  0  0  0  0  0  0  0
    6.7037    7.6612  -17.2973 H   0  0  0  0  0  0  0  0  0  0  0  0
    5.2279    4.3365  -16.7437 H   0  0  0  0  0  0  0  0  0  0  0  0
    4.7490    9.6385  -22.4611 H   0  0  0  0  0  0  0  0  0  0  0  0
    4.0692    9.1050  -20.8864 H   0  0  0  0  0  0  0  0  0  0  0  0
    5.1039   10.5711  -20.9676 H   0  0  0  0  0  0  0  0  0  0  0  0
    8.9590    0.7043  -14.8097 H   0  0  0  0  0  0  0  0  0  0  0  0
    9.5542    1.2045  -16.4289 H   0  0  0  0  0  0  0  0  0  0  0  0
    8.9006    2.4332  -15.2933 H   0  0  0  0  0  0  0  0  0  0  0  0
    5.7542   -4.9337  -17.7572 H   0  0  0  0  0  0  0  0  0  0  0  0
    4.1704   -5.5484  -18.3403 H   0  0  0  0  0  0  0  0  0  0  0  0
    5.1852   -4.5231  -19.4107 H   0  0  0  0  0  0  0  0  0  0  0  0
    2.4462   -2.2101  -18.2847 H   0  0  0  0  0  0  0  0  0  0  0  0
    3.2525   -2.9315  -19.7185 H   0  0  0  0  0  0  0  0  0  0  0  0
    2.2377   -3.9568  -18.6481 H   0  0  0  0  0  0  0  0  0  0  0  0
    4.2191    2.5918  -20.9757 H   0  0  0  0  0  0  0  0  0  0  0  0
    3.6936    1.5230  -19.6310 H   0  0  0  0  0  0  0  0  0  0  0  0
    4.5556   -1.3398  -17.5266 H   0  0  0  0  0  0  0  0  0  0  0  0
    5.4646   -2.0831  -18.8860 H   0  0  0  0  0  0  0  0  0  0  0  0
    6.0106    7.6978  -21.5553 H   0  0  0  0  0  0  0  0  0  0  0  0
    7.0453    9.1640  -21.6364 H   0  0  0  0  0  0  0  0  0  0  0  0
    7.4165    7.9834  -19.5102 H   0  0  0  0  0  0  0  0  0  0  0  0
    6.6261    9.5674  -19.2052 H   0  0  0  0  0  0  0  0  0  0  0  0
    6.6600    1.3900  -15.4369 H   0  0  0  0  0  0  0  0  0  0  0  0
    3.4542    3.4704  -18.2038 H   0  0  0  0  0  0  0  0  0  0  0  0
    3.8591   -3.6236  -16.7828 H   0  0  0  0  0  0  0  0  0  0  0  0
    6.1659    3.3494  -19.6231 H   0  0  0  0  0  0  0  0  0  0  0  0
    5.1062    1.4557  -17.5388 H   0  0  0  0  0  0  0  0  0  0  0  0
    3.3408    5.5708  -16.5066 H   0  0  0  0  0  0  0  0  0  0  0  0
    3.3427    6.1547  -18.0317 H   0  0  0  0  0  0  0  0  0  0  0  0
    3.4993    4.1387  -20.4448 H   0  0  0  0  0  0  0  0  0  0  0  0
  1  4  2  0
  1  5  1  0
  2  4  1  0
  2  6  2  0
  3  5  2  0
  3  6  1  0
  4 20  1  0
  5 35  1  0
  6 36  1  0
  7 13  1  0
  7 28  1  0
  7 31  2  0
  8 24  1  0
  8 29  1  0
  8 32  2  0
  9 11  1  0
  9 13  1  0
 10 14  1  0
 10 15  1  0
 11 28  1  0
 12 14  1  0
 12 30  1  0
 13 21  1  0
 14 34  1  0
 15 25  1  0
 15 30  1  0
 16 22  1  0
 17 24  1  0
 18 26  1  0
 19 26  1  0
 20 27  1  0
 21 26  1  0
 22 23  1  0
 23 34  1  0
 24 28  1  0
 25 27  1  0
 25 33  1  0
 27 29  1  0
  1 37  1  0
  2 38  1  0
  3 39  1  0
  9 40  1  0
  9 41  1  0
 10 42  1  0
 10 43  1  0
 11 44  1  0
 11 45  1  0
 12 46  1  0
 12 47  1  0
 13 48  1  1
 14 49  1  1
 15 50  1  1
 16 51  1  0
 16 52  1  0
 16 53  1  0
 17 54  1  0
 17 55  1  0
 17 56  1  0
 18 57  1  0
 18 58  1  0
 18 59  1  0
 19 60  1  0
 19 61  1  0
 19 62  1  0
 20 63  1  0
 20 64  1  0
 21 65  1  0
 21 66  1  0
 22 67  1  0
 22 68  1  0
 23 69  1  0
 23 70  1  0
 24 71  1  1
 25 72  1  1
 26 73  1  0
 27 74  1  6
 29 75  1  0
 30 76  1  0
 30 77  1  0
 33 78  1  0
M  CHG  1  30   1
M  END
>  <OMEGA_C>  (222) 
ZRnXQJkgkD93VKnBVQycQCXe3L5agqbBD9LeQPeHm795aa7BxYWtQNRNXD8adKXB1M3vQMCxrz1Y
sa3BwsG0QOQRvL8K9KrB17nNQN3Kk79vMoDB59PhQD45B0BPbYvBjO/0QGVUEcCW8o3BLgDFQHko
t0DmApHBq635QBboRL+pQY/B2I2VQE/U4kC4YobBfKPLQA0iGMBhf4fBgr66QPLT5UAMMY7BnM+d
QDdrnUC1Bo3BJwSeQNMJGUE0CqvB+dUMQSjVsj+sZHrBheWbQD1zlsDT+JLBIiU8QEUSR8D4bpXB
ggGSQLYv/D/3FaHBltKjQDCBDsDNz47B5t7FQDwxC0FEFKnBgbrPQAsKCUEmGp3BNXfsQFjZlz+C
4IHBdzGKQH3+fUBhVpXBjayFQMsCXMDdjY7BcNCpQAAqOECg/ZjBdDDoQFppXb7jNoXBGIy4QNml
BECquo/B8Jt6QAtyvUCs+InB0ya3QKxteL9qo3DBiZ79QMjzNEDwV4/B7EF4QIIwl0CpZ57B6y+t
QA6g/EBToJfBYtkLQb2Prj5SUbHBakukQCy+LcBfxqvB4+njQJUuCEBo8ajBzV13QFksIL986KPB
phLyQBIfAcAKnrHBt+DxQA5eMcAGv5XB4RUIQcm2LMAZjInBRwLJQCFks0AGtJnBdEviQOeUrEAm
6YzBXcINQY/K+75cOpDBz0nnQHTq0r7KMZbB1jyhQHY73kAzVHzBnrOBQFvc/0Bfv4bBVFTKQEH5
U8Cj34LBloTWQI0o9UDlYIrBE0unQJDEikAV84XBiveXQEE3GkFdsLPBtDaCQOGtEUFuF6fBwlKj
QCUjKUGPvafBIFgPQb1JND+r9GzBHN4YQUwtmj97boPBqWgOQQm5G0A3sXTBtCK4QAnhncDBDo7B
7nOFQG+MscD6uJLBNe2lQIW9kMAWSZvB640cQPRxDcASR5LBQSlQQJKdO8B1v53BszYPQGY7fcBZ
L5XBnAKHQGjfJUBIzqfBpGRsQInwwj9MDJ3BL8eRQNl9q7+PNozBod2uQC9RBcCRFpfB+VbAQKhU
9kBIcazBBnPhQJifEkFpF63BolPtQOZ3/0D5FJzB5gjUQOATGUFTpJnB6B7VQBfssT+3/XbBXRJd
QHAbXkBJoZHBA/x2QBbpZ8BAQ4bBtU7FQDlcVkAL/JzB32WjQDxVuj9zT4zB4c5VQC5EskCNDYTB
7e5VQAzzxEDcQJDBRPVfQAVwhEDqjqPBp5HYQAWSjD/vyajBP8SbQDCi0L5kmqbBqbveQMVLn7+i
/K3BlTauQH+oXT9XUKXBsebwQOxxHT2B/6zBptezQD2iur+nA6vBrq/NQPeMkr8i/H7BxHThQIBD
B0D7e4vBJDvuQGdzEMBdao7BTcDDQKLDt0CYBpLB0CLzQFVoQr9nmo/BFViXQPXk4kBrYIbBrtLI
QHMSGMBKl4bBc0+8QFr65UCwRo7BUsWdQFFInkCYVo3BJjChQDrdF0HfeqvBF1QMQX2EsT/HUnrB
ooBGQDY3TMBb0ZfBxbOWQDAKmcA+D4/ByKmSQN0U/z/ASKHBAgmcQKHvEMB924vBk57HQBA8CUEc
LKnB0JHSQPbhCEFYNJ3B9oLrQIOGmD+y4oHBUDKJQLqzfEArHpXBrrWRQFJRWMDQ8ZPBXIqpQEMF
OUASApnB4mzmQMf0W777GIXBKUq4QMbkBEDp04/BUuB7QHCivkBULYrBkuS4QMPYbb+xuW7BdXf9
QCmpNEBoXI/BTFJvQNQAlUDZDJ7BKVCvQAgnAEFkJ5fBNKoMQag7hj5jYbDBvyuhQBzTKcA55qzB
aD7mQBeZBUAVN6jBgwx2QA7iE787MqTBiLPxQDQSBMANBrHBA5XmQE6vLsAQIZbB87YFQUV7LcDH
GYvBA8bDQJ72tUBx0JrBNE7iQDJyq0AN7Y7BGEEKQeMg/r6qcpHB6A/eQPKTwb4b9ZXBCEijQFTw
3EBad3zBvT2EQLQ6AEHqcYbBJUXLQFwwU8AS2oHBGiHZQIaR8kDJUorBH92oQA3VjEB3N4bBHj+a
QHu8F0FfG7TBKxOFQPMMEkGzDafB97moQP5HKEHG7ajBHZ4OQel9Mj/WzWzBxmEYQfXwlj/uWoPB
ahgOQe8dG0Cwt3TB3Ts/QLEGDMDNUJvBYHg3QNHYfMCe5Z3Bg4AaQDUpU8DgAJHB6dO3QJZqncCn
SozBjq2AQBR9nMDQP4jBfCmPQOJUscCOJJXBJCaJQIJgJ0CNI6jBA+prQDQtyD9fhZ3BZcuDQB7T
EsAge4XBwzeaQFpOpr8wDZDBQN+/QOPC8UDtyKvBDYbjQH0cD0EBqa3BcibvQPfb/UBn7pvBoQnZ
QDlMGUEPeZrBiC/UQP0atT9jFXfBqLJeQAY9W0Bv2pDB2GWnQHdsUsAm1prB5trEQDMiWUB315zB
PiujQFXmuT+Qe4zByz5WQNlys0BvV4TBX+BXQMwpx0A5cJDBStZVQN8/gUCM3qLB

>  <OMEGA_E>  (222) 
rMPdPiQG3T4=

>  <OMEGA_NBR>  (222) 
     22318

$$$$
50197343
     RDKit          3D

 89 92  0  0  1  0  0  0  0  0999 V2000
   12.9222    0.9200  -13.0514 C   0  0  0  0  0  0  0  0  0  0  0  0
   12.0153    1.9357  -12.6852 C   0  0  0  0  0  0  0  0  0  0  0  0
   12.4941   -0.1550  -13.8565 C   0  0  0  0  0  0  0  0  0  0  0  0
   10.6758    1.8704  -13.1128 C   0  0  0  0  0  0  0  0  0  0  0  0
   11.1550   -0.2236  -14.2819 C   0  0  0  0  0  0  0  0  0  0  0  0
    6.7851    1.1421  -21.0349 C   0  0  0  0  0  0  0  0  0  0  0  0
    4.9847   -0.4762  -20.7402 C   0  0  0  0  0  0  0  0  0  0  0  0
    7.1326   -1.1920  -21.6512 C   0  0  0  0  0  0  0  0  0  0  0  0
   10.2407    0.7762  -13.8891 C   0  0  0  0  0  0  0  0  0  0  0  0
    5.4723    0.8385  -20.6037 C   0  0  0  0  0  0  0  0  0  0  0  0
    7.6166    0.1251  -21.5398 C   0  0  0  0  0  0  0  0  0  0  0  0
    5.8107   -1.4880  -21.2707 C   0  0  0  0  0  0  0  0  0  0  0  0
    6.3333   -1.2193  -16.2304 C   0  0  0  0  0  0  0  0  0  0  0  0
    7.6839   -3.8203  -15.0241 C   0  0  0  0  0  0  0  0  0  0  0  0
    6.9901    2.0810  -17.4710 C   0  0  0  0  0  0  0  0  0  0  0  0
    7.8974   -2.2986  -17.7480 C   0  0  0  0  0  0  0  0  0  0  0  0
    6.1352    5.7255  -18.2767 C   0  0  0  0  0  0  0  0  0  0  0  0
    7.8314   -0.8019  -17.9888 C   0  0  0  0  0  0  0  0  0  0  0  0
    4.7996    7.1622  -16.8598 C   0  0  0  0  0  0  0  0  0  0  0  0
    5.9343    7.1955  -17.8827 C   0  0  2  0  0  0  0  0  0  0  0  0
    4.9406    4.9638  -17.6459 C   0  0  2  0  0  0  0  0  0  0  0  0
    6.5938   -2.5654  -16.9645 C   0  0  2  0  0  0  0  0  0  0  0  0
    7.7310   -5.1262  -14.2405 C   0  0  0  0  0  0  0  0  0  0  0  0
    2.9813   -2.9967  -18.5882 C   0  0  0  0  0  0  0  0  0  0  0  0
    5.5565   -4.4436  -18.4191 C   0  0  0  0  0  0  0  0  0  0  0  0
    8.8186    0.7073  -14.3643 C   0  0  0  0  0  0  0  0  0  0  0  0
    4.5421    1.9285  -20.1032 C   0  0  0  0  0  0  0  0  0  0  0  0
    4.0431   -2.5759  -17.5497 C   0  0  0  0  0  0  0  0  0  0  0  0
    8.7142    1.3867  -15.7315 C   0  0  0  0  0  0  0  0  0  0  0  0
    7.3149    1.1361  -16.3197 C   0  0  2  0  0  0  0  0  0  0  0  0
    4.2500    3.9462  -18.5861 C   0  0  2  0  0  0  0  0  0  0  0  0
    5.4753   -2.9362  -18.0112 C   0  0  1  0  0  0  0  0  0  0  0  0
    5.2310    2.8692  -19.0892 C   0  0  1  0  0  0  0  0  0  0  0  0
    7.1895   -0.2624  -16.7838 N   0  0  0  0  0  0  0  0  0  0  0  0
    6.7144   -3.6836  -16.0086 N   0  0  0  0  0  0  0  0  0  0  0  0
    5.6947    2.0646  -17.9561 N   0  0  0  0  0  0  0  0  0  0  0  0
    3.9775    6.0074  -17.2459 N   0  0  0  0  0  0  0  0  0  0  0  0
    5.6623   -1.0704  -15.2148 O   0  0  0  0  0  0  0  0  0  0  0  0
    8.4245   -2.8979  -14.7041 O   0  0  0  0  0  0  0  0  0  0  0  0
    7.8467    2.8187  -17.9482 O   0  0  0  0  0  0  0  0  0  0  0  0
    5.5443    7.9719  -19.0181 O   0  0  0  0  0  0  0  0  0  0  0  0
    3.6903    4.6338  -19.7045 O   0  0  0  0  0  0  0  0  0  0  0  0
    8.8769    0.4171  -21.9300 F   0  0  0  0  0  0  0  0  0  0  0  0
    5.3425   -2.7510  -21.3915 F   0  0  0  0  0  0  0  0  0  0  0  0
   13.9472    0.9657  -12.7143 H   0  0  0  0  0  0  0  0  0  0  0  0
   12.3484    2.7635  -12.0767 H   0  0  0  0  0  0  0  0  0  0  0  0
   13.1936   -0.9251  -14.1465 H   0  0  0  0  0  0  0  0  0  0  0  0
    9.9835    2.6556  -12.8472 H   0  0  0  0  0  0  0  0  0  0  0  0
   10.8275   -1.0404  -14.9080 H   0  0  0  0  0  0  0  0  0  0  0  0
    7.1502    2.1568  -20.9764 H   0  0  0  0  0  0  0  0  0  0  0  0
    3.9746   -0.7097  -20.4374 H   0  0  0  0  0  0  0  0  0  0  0  0
    7.7749   -1.9742  -22.0281 H   0  0  0  0  0  0  0  0  0  0  0  0
    7.9121   -2.8543  -18.6972 H   0  0  0  0  0  0  0  0  0  0  0  0
    8.7821   -2.5673  -17.1521 H   0  0  0  0  0  0  0  0  0  0  0  0
    6.1270    5.6158  -19.3712 H   0  0  0  0  0  0  0  0  0  0  0  0
    7.0875    5.3466  -17.8773 H   0  0  0  0  0  0  0  0  0  0  0  0
    8.8411   -0.3831  -18.1119 H   0  0  0  0  0  0  0  0  0  0  0  0
    7.2303   -0.5782  -18.8825 H   0  0  0  0  0  0  0  0  0  0  0  0
    5.1986    7.0308  -15.8432 H   0  0  0  0  0  0  0  0  0  0  0  0
    4.2100    8.0897  -16.9053 H   0  0  0  0  0  0  0  0  0  0  0  0
    6.8505    7.5896  -17.4188 H   0  0  0  0  0  0  0  0  0  0  0  0
    5.2976    4.4302  -16.7527 H   0  0  0  0  0  0  0  0  0  0  0  0
    8.4804   -5.0468  -13.4392 H   0  0  0  0  0  0  0  0  0  0  0  0
    6.7429   -5.3251  -13.7999 H   0  0  0  0  0  0  0  0  0  0  0  0
    8.0034   -5.9498  -14.9168 H   0  0  0  0  0  0  0  0  0  0  0  0
    1.9808   -2.7231  -18.2218 H   0  0  0  0  0  0  0  0  0  0  0  0
    3.1762   -2.4822  -19.5407 H   0  0  0  0  0  0  0  0  0  0  0  0
    3.0303   -4.0847  -18.7423 H   0  0  0  0  0  0  0  0  0  0  0  0
    4.7648   -4.6698  -19.1486 H   0  0  0  0  0  0  0  0  0  0  0  0
    6.5390   -4.6493  -18.8690 H   0  0  0  0  0  0  0  0  0  0  0  0
    5.4230   -5.0725  -17.5266 H   0  0  0  0  0  0  0  0  0  0  0  0
    8.5099   -0.3449  -14.4513 H   0  0  0  0  0  0  0  0  0  0  0  0
    8.1647    1.2231  -13.6458 H   0  0  0  0  0  0  0  0  0  0  0  0
    4.2008    2.5242  -20.9627 H   0  0  0  0  0  0  0  0  0  0  0  0
    3.6755    1.4575  -19.6162 H   0  0  0  0  0  0  0  0  0  0  0  0
    3.9812   -1.4881  -17.3983 H   0  0  0  0  0  0  0  0  0  0  0  0
    3.8354   -3.0907  -16.6000 H   0  0  0  0  0  0  0  0  0  0  0  0
    8.8762    2.4687  -15.6172 H   0  0  0  0  0  0  0  0  0  0  0  0
    9.4763    0.9712  -16.4072 H   0  0  0  0  0  0  0  0  0  0  0  0
    6.5782    1.3077  -15.5210 H   0  0  0  0  0  0  0  0  0  0  0  0
    3.4506    3.4455  -18.0203 H   0  0  0  0  0  0  0  0  0  0  0  0
    5.6808   -2.3477  -18.9176 H   0  0  0  0  0  0  0  0  0  0  0  0
    6.0847    3.3608  -19.5787 H   0  0  0  0  0  0  0  0  0  0  0  0
    6.0329   -4.4123  -16.0766 H   0  0  0  0  0  0  0  0  0  0  0  0
    5.0330    1.4658  -17.5049 H   0  0  0  0  0  0  0  0  0  0  0  0
    3.4245    5.6966  -16.4729 H   0  0  0  0  0  0  0  0  0  0  0  0
    3.3784    6.2435  -18.0109 H   0  0  0  0  0  0  0  0  0  0  0  0
    5.4245    8.8774  -18.7570 H   0  0  0  0  0  0  0  0  0  0  0  0
    3.2666    4.0090  -20.2812 H   0  0  0  0  0  0  0  0  0  0  0  0
  1  2  2  0
  1  3  1  0
  2  4  1  0
  3  5  2  0
  4  9  2  0
  5  9  1  0
  6 10  2  0
  6 11  1  0
  7 10  1  0
  7 12  2  0
  8 11  2  0
  8 12  1  0
  9 26  1  0
 10 27  1  0
 11 43  1  0
 12 44  1  0
 13 22  1  0
 13 34  1  0
 13 38  2  0
 14 23  1  0
 14 35  1  0
 14 39  2  0
 15 30  1  0
 15 36  1  0
 15 40  2  0
 16 18  1  0
 16 22  1  0
 17 20  1  0
 17 21  1  0
 18 34  1  0
 19 20  1  0
 19 37  1  0
 20 41  1  0
 21 31  1  0
 21 37  1  0
 22 32  1  0
 22 35  1  1
 24 28  1  0
 25 32  1  0
 26 29  1  0
 27 33  1  0
 28 32  1  0
 29 30  1  0
 30 34  1  0
 31 33  1  0
 31 42  1  0
 33 36  1  0
  1 45  1  0
  2 46  1  0
  3 47  1  0
  4 48  1  0
  5 49  1  0
  6 50  1  0
  7 51  1  0
  8 52  1  0
 16 53  1  0
 16 54  1  0
 17 55  1  0
 17 56  1  0
 18 57  1  0
 18 58  1  0
 19 59  1  0
 19 60  1  0
 20 61  1  1
 21 62  1  1
 23 63  1  0
 23 64  1  0
 23 65  1  0
 24 66  1  0
 24 67  1  0
 24 68  1  0
 25 69  1  0
 25 70  1  0
 25 71  1  0
 26 72  1  0
 26 73  1  0
 27 74  1  0
 27 75  1  0
 28 76  1  0
 28 77  1  0
 29 78  1  0
 29 79  1  0
 30 80  1  1
 31 81  1  1
 32 82  1  6
 33 83  1  6
 35 84  1  0
 36 85  1  0
 37 86  1  0
 37 87  1  0
 41 88  1  0
 42 89  1  0
M  CHG  1  37   1
M  END
>  <OMEGA_C>  (223) 
RsFOQWWEaz+J0lDBxj5AQbLD9z9x9krB9OdHQXSxHr5XtF3BMNAqQexo7z/tzVHB0HoyQVoBZb6w
gmTB8R/ZQCQvkj95R6jBQYKfQGfV877u66XBTj7kQPaTmL+SNa3ByNkjQS24Rj/sOV7Bch2vQF+q
Vj9o1KTBZLvzQKolAD6LUazBUvG5QIx2vr9WKqrBi6rKQLYRnL/R14HBauL1QAyAdMCVYnDBOq/f
QGQvBUCNxIvBjbf8QGAcE8Dm+43BY1PEQLQ3t0CtNpLBepr6QK9HTb8p6Y/BW5aZQIsw5UDm4IbB
J+a9QFBB5kDbD4/B/hieQA/XnkDDKo3B0ADTQGkvJMBCt4fBNGT3QNsJpMAl2WPBOc0+QI7JP8CM
tJTBgM6xQCEyjsBVWpPBDhkNQfsQNT9Z1GXBzFiRQJ7Y9j9Z06DB7mCBQOHbJMC2ZYzBZm0LQSJ/
sT8ZtHvBYxPqQFRtkT+ojoLBNgCIQL2OfEA8sJTBADavQIvqO8AGF5DBXGSnQNGgN0C8tpjBLRDm
QFtWhr4fRYbBptzWQJbAa8CZEYDB2jq2QFIiBEAcpo/BJZB+QKE8wECF94nBKTG1QD4Cib/Db3PB
tsoGQUp3OcAnRGvB9Rf7QNxkNEDslY/B92qxQG8Z/0D8JJjBZS1sQPtHlEDbop3B6gcOQbqT1T6i
cK/BIvaqQCERMMDXIavBtSdfQcY6dz+YbUvB5pJFQdHcMEBCOkHB1hhTQSTTbL8yWGLBfbwfQbD1
KUA2jk3BUj0tQWwrhb9fh27BJ87kQHAJCkCyz6fB319+QOOxNb/Wf6PBHsz4QA6y/L9zObDBRjD9
QJmsNsDjk5XBi4MMQehNJMB1N4nBdhDEQG+0s0Ar+JrBrMziQI4Xq0CtBI/BC3UNQTgsxL4n5ZDB
UF7nQL8HFL9uD5fBolqmQKn84ECWfX3BJLiGQFdvAUEiPofBfDfbQPzd8kCdWYvB5IWpQA/EjUB4
BYbBi68HQUV/ocDlBlfB0cXXQIRnqsCCzFzBEw4AQQ1lvsBSq27BPIr9PwxILsBSxpHBJ0ZLQGHc
HsBaU5zBQPFBQPO1gsBT8JXBB3mYQKRulcA/MJnBRz/RQLvGlMCl85bBG4mtQChSosBgNozBkygI
QSuYsL65OGfBhKICQS6NnD8UVVrBy2yGQNWLIUCIs6fBHztrQLaPuj/17ZzBkct+QGJ7vr/HL4vB
qnZ1QDfNRcDAzITBxAQOQeb+HUDf33nBEp8XQbSieD/cQYPBRIDSQHZipz8RVnjBJ9ZcQIeCXEB8
KZDBf8m1QHFBFsBDV5fB0bXCQPMWV0AcoZzBmA3BQEAxjcDHnIDBkg6hQMeduz8CCozBeSpbQCZK
tkB9yIPBUjdYQN7Kx0BEFpDBS5WtQL8JDkFJDpbB7A9RQJFJgED/P6LBo3NOQfJFfT8R/k/B8fJH
QRRJ7b1sZFzB3a4/QUlNAEAazkrBLaIyQbGyWL7Nd2PBCVUqQZY19D9bzVHB1TefQNb58r60uqXB
6yLZQLEGkT+LG6jBq9TjQBdOmr/e/KzBDrsjQfCAST9bz13BJBGvQE5/Vj9ap6TBOH65QKgiv79J
7anB8Y3zQKAT4D0nIazB0cPJQFx6nL+mtoHBhij1QDLfcsBK+m/Byn/fQFqSBECYnovBk+36QDUE
E8AYLY7BG3HEQLRJt0DAAZLBpC/5QCcKTL8C2o/B/R2ZQE7P5UCc+IbBkpq9QNyE5kBiG4/Bx8+d
QJIon0CTFI3BQ9bRQJNdJMBDo4fBkFf4QL7Bo8C/9WPBekE7QLRRQsD8MJTBr0SxQNYWjsAuZJPB
7Q0NQTDrLz9cl2XBBHGRQBRk9z/1q6DBeTF/QI/wKcBUwIvBmj8LQU4QsD9fYnvBmaTpQGFkkD/Q
XYLBpP+HQH1vfUDMrJTBEW6tQCaOPMDdz4/BbmunQLMVOEBvkJjB0Y/lQMOxir5QD4bBFGzWQOm2
a8DW83/BVdy1QGRSBUAFY4/BJNl9QD6swEB//InByfyzQB/1iL8ASXPBByEIQZqMO8Cv4GzBM337
QMHoMEAntY/Box2xQMR0/kCeV5jBK5RtQNjLlEBTsp3BuEyqQIlIMMC61qrBTfwNQQ6CyD4kPa/B
U8heQbJ8hz8ddErBw1FTQQtvY78FdWDBNsBEQdHPNkBwd0HBh7AtQYwshr+nNm3BJwkfQVsiLEC0
/E3B5aJ9QP9oM78eVKPBQQLlQKNTCUBhqKfBTjz4QO3//r+6/a/Bi076QBZXNcCZ25XBA9gLQdiW
JcAYqonBaAXFQPAls0CcvprBXKLiQMh7q0D1k47BMckMQYJIxr6a65DBloblQCLfDL8K4ZbBGbWl
QK4D4kDUnX3BODmGQEW5AUFpc4fBj73aQCSt80CmbIvBSsOoQBwJjkBL5YXB9U0KQQ5Do8B+eVnB
YGHbQLNmqMDeOlrBP1P7QEMpvsC3gG/Bcwv2P6NGNMDfC5HBRB1GQGEKHcAqiJvB7D5AQDKCg8C+
ApbBSYKXQOujlcB3FZnBX3jQQBU8k8CbQZfB9oiuQOsFo8CJWYzBzIsIQTxAvr4YKWfB9E8CQYAS
lz+zGFrBpp+GQKm7IUCqkKfBn0drQLyQuz9+x5zBGoZ5QDKHyr8t84nBwqdzQJw9T8DBbYTBR9QN
QSs9HUC9cnnB5mUXQTQwdz9FJoPBZhTSQKcQpz8I+HfBbhBcQI3AXUAJP5DBAYCyQFAKFcDe+5bB
j+rCQM0dV0CHdJzBL1bBQNvMjcBwmIDBR0egQC7wwT8CnYvBoFRaQEn0tkBqyoPBl6BXQB7zx0DH
I5DBMQOtQDnKDUF7a5bBg8tSQKjegEDNW6LB9cNOQRREdj9Vb1DB3gZIQVTuFb6solzBHzFAQfnC
/j+tWkvBR6syQacEbr5DnmPBX88qQUXR8z/dS1LBxx/ZQII3kT9OWqjBsjyfQHH08r6e+6XBqfDj
QEcdmr/XMq3Bt/kjQd4cSD/6HV7BBwyvQAyMVj+86aTB95nzQNQE5T1jW6zBE5a5QJIQv78BJ6rB
Xq/KQCgbnL+RxYHBSuj1QO3MdMDLkHDB1pjfQB2GBUCVr4vBsFb8QFgiEsCAGI7BAljEQP1bt0Dc
VZLBrwb6QNCASb9J8I/B8aOZQDkb5UCW7obBzcq9QAlY5kDCKY/B22OeQP7EnkA1OY3BOuLSQIHq
I8CTvYfBq5v3QOsypMBrBWTBGJs9QFx/Q8AsMpTBqXKzQMLBjMDjAZTBUkYNQQTNMT/m22XBKXeR
QGdD9z/b5qDBAuCAQE+dK8DBxIvBsXwLQQAJsT+QpnvBQArqQK+7kT/Qe4LBzjyIQLtkfEDPuJTB
MMCuQDIQO8BxA5DB6ZanQCZpN0DywJjBg+DlQO3qg74VOYbBkQnXQMI8bMDMNIDBjVa2QMiQA0CM
s4/B5vN+QKH6v0A494nBeIC1QKvRib8pL3PBrNQGQULIOcD6gWvBZNH6QErONUCpX4/BVx6xQDIp
/0DQO5jBHpBsQHc5lECuqZ3BMgAOQUfWyj7kd6/BWWuqQBE9MMD/D6vBxyBfQfEDgz+o90rB/j9T
QSHQbb+anmDBhG5FQQz4NUDZI0LB04gtQeZfib/KK23B+qofQdKbLEAIlU7B5vPkQHp0CUCp56fB
gKN9QPOEM7+emaPBzGb4QDnP/r9/LbDBBpX8QItINcBbuJXBym0MQchjI8AEaYnBEtbDQC7gs0Bd
F5vBtPjiQB5fq0A9M4/BGiENQVDgur4P/ZDBCHfmQOQvD78rBpfB3ZmmQM4J4UCYoH3BApeGQAJW
AUHqSIfBjCHbQGYK80DXeovBuxiqQHW0jUDXGobBfd8HQfOgocCQRlfBcxXYQFmWqsA231zBVRsA
QfyNvsB13W7BzsH6P/W2N8BG6JDBwuVGQNA3HMDsZ5vBW/xDQHrLg8CYSJbBxdWZQM73k8CyxJnB
6r3SQNjNkMBD6JfBNBSxQFu0osAoJ43B3J0IQa88ub51aWfBOaECQeTGmD/6VlrBp7mGQDYKIkBF
xafBwjZrQKpyuz/ECJ3Bmqh6QI0dz7/rsonBM793QOvtUsCXk4TBmh0OQfmyHUDJuHnBYpsXQXeT
eD/qSYPBPpbSQMPIpz+9InjBulhdQMpnXEC3LpDBvkKzQBI8EcBYAJfBYPfCQOXVVkDupZzBc53B
QLW9jcDw3oDBW0ShQBaouD+QNYzBTxJcQF/utUAXv4PBqCBYQIJnx0BtDJDBWTOtQD0PDkFzI5bB
OlhRQPg+gEB0RaLB

>  <OMEGA_E>  (223) 
KKirPrAirD7YSKs+

>  <OMEGA_NBR>  (223) 
     26734

$$$$
50197361
     RDKit          3D

 98102  0  0  1  0  0  0  0  0999 V2000
   12.9620    0.9081  -13.1297 C   0  0  0  0  0  0  0  0  0  0  0  0
   12.4948   -0.2013  -13.8635 C   0  0  0  0  0  0  0  0  0  0  0  0
   12.0940    1.9800  -12.8373 C   0  0  0  0  0  0  0  0  0  0  0  0
    7.3984    8.8407  -21.4436 C   0  0  0  0  0  0  0  0  0  0  0  0
   11.1566   -0.2443  -14.2960 C   0  0  0  0  0  0  0  0  0  0  0  0
   10.7540    1.9372  -13.2663 C   0  0  0  0  0  0  0  0  0  0  0  0
    6.9545    8.4213  -20.1830 C   0  0  0  0  0  0  0  0  0  0  0  0
    6.8049    1.0267  -21.1337 C   0  0  0  0  0  0  0  0  0  0  0  0
    4.9247   -0.4870  -20.7794 C   0  0  0  0  0  0  0  0  0  0  0  0
    7.0388   -1.3476  -21.6410 C   0  0  0  0  0  0  0  0  0  0  0  0
    6.4677    9.3538  -22.3693 C   0  0  0  0  0  0  0  0  0  0  0  0
    4.7068    9.0619  -20.8547 C   0  0  0  0  0  0  0  0  0  0  0  0
   10.2801    0.8137  -13.9754 C   0  0  0  0  0  0  0  0  0  0  0  0
    5.4755    0.8075  -20.7057 C   0  0  0  0  0  0  0  0  0  0  0  0
    5.5726    8.4986  -19.8935 C   0  0  0  0  0  0  0  0  0  0  0  0
    7.5874   -0.0520  -21.5851 C   0  0  0  0  0  0  0  0  0  0  0  0
    5.7025   -1.5615  -21.2549 C   0  0  0  0  0  0  0  0  0  0  0  0
    6.2581   -1.0997  -16.2262 C   0  0  0  0  0  0  0  0  0  0  0  0
    7.4495   -3.6829  -14.8832 C   0  0  0  0  0  0  0  0  0  0  0  0
    7.0627    2.1078  -17.6033 C   0  0  0  0  0  0  0  0  0  0  0  0
    7.7502   -2.3167  -17.7144 C   0  0  0  0  0  0  0  0  0  0  0  0
    6.1513    5.8258  -18.4038 C   0  0  0  0  0  0  0  0  0  0  0  0
    7.7635   -0.8274  -18.0051 C   0  0  0  0  0  0  0  0  0  0  0  0
    4.9430    6.9309  -16.6501 C   0  0  0  0  0  0  0  0  0  0  0  0
    5.8301    7.2293  -17.8413 C   0  0  2  0  0  0  0  0  0  0  0  0
    5.0885    4.9035  -17.7577 C   0  0  2  0  0  0  0  0  0  0  0  0
    6.4440   -2.4860  -16.9090 C   0  0  2  0  0  0  0  0  0  0  0  0
    7.5178   -5.0027  -14.1233 C   0  0  0  0  0  0  0  0  0  0  0  0
    2.7964   -2.7878  -18.4859 C   0  0  0  0  0  0  0  0  0  0  0  0
    5.2879   -4.3660  -18.2699 C   0  0  0  0  0  0  0  0  0  0  0  0
    8.8573    0.7700  -14.4532 C   0  0  0  0  0  0  0  0  0  0  0  0
    4.6021    1.9626  -20.2597 C   0  0  0  0  0  0  0  0  0  0  0  0
    3.8888   -2.3810  -17.4741 C   0  0  0  0  0  0  0  0  0  0  0  0
    8.7712    1.4092  -15.8419 C   0  0  0  0  0  0  0  0  0  0  0  0
    7.3576    1.1985  -16.4131 C   0  0  2  0  0  0  0  0  0  0  0  0
    4.3613    3.9587  -18.7325 C   0  0  2  0  0  0  0  0  0  0  0  0
    5.2948   -2.8397  -17.9292 C   0  0  1  0  0  0  0  0  0  0  0  0
    5.3236    2.8832  -19.2550 C   0  0  1  0  0  0  0  0  0  0  0  0
    5.1552    9.4740  -22.0619 N   0  0  0  0  0  0  0  0  0  0  0  0
    7.1655   -0.2126  -16.8139 N   0  0  0  0  0  0  0  0  0  0  0  0
    6.5211   -3.5713  -15.9104 N   0  0  0  0  0  0  0  0  0  0  0  0
    5.7818    2.0677  -18.1247 N   0  0  0  0  0  0  0  0  0  0  0  0
    4.1249    5.8063  -17.1121 N   0  0  0  0  0  0  0  0  0  0  0  0
    5.5872   -0.8729  -15.2249 O   0  0  0  0  0  0  0  0  0  0  0  0
    8.2965   -2.8232  -14.6710 O   0  0  0  0  0  0  0  0  0  0  0  0
    7.9193    2.8574  -18.0619 O   0  0  0  0  0  0  0  0  0  0  0  0
    3.8111    4.6958  -19.8246 O   0  0  0  0  0  0  0  0  0  0  0  0
    5.0041    8.0215  -18.7300 O   0  0  0  0  0  0  0  0  0  0  0  0
    8.8639    0.1588  -21.9747 F   0  0  0  0  0  0  0  0  0  0  0  0
    5.1732   -2.8045  -21.3175 F   0  0  0  0  0  0  0  0  0  0  0  0
   13.9870    0.9369  -12.7907 H   0  0  0  0  0  0  0  0  0  0  0  0
   13.1636   -1.0175  -14.0936 H   0  0  0  0  0  0  0  0  0  0  0  0
   12.4571    2.8337  -12.2843 H   0  0  0  0  0  0  0  0  0  0  0  0
    8.4443    8.7714  -21.7039 H   0  0  0  0  0  0  0  0  0  0  0  0
   10.8010   -1.0856  -14.8723 H   0  0  0  0  0  0  0  0  0  0  0  0
   10.0905    2.7622  -13.0530 H   0  0  0  0  0  0  0  0  0  0  0  0
    7.6523    8.0473  -19.4485 H   0  0  0  0  0  0  0  0  0  0  0  0
    7.2203    2.0234  -21.1142 H   0  0  0  0  0  0  0  0  0  0  0  0
    3.9037   -0.6563  -20.4707 H   0  0  0  0  0  0  0  0  0  0  0  0
    7.6428   -2.1763  -21.9797 H   0  0  0  0  0  0  0  0  0  0  0  0
    6.8101    9.6583  -23.3473 H   0  0  0  0  0  0  0  0  0  0  0  0
    3.6578    9.1667  -20.6199 H   0  0  0  0  0  0  0  0  0  0  0  0
    7.7230   -2.9035  -18.6445 H   0  0  0  0  0  0  0  0  0  0  0  0
    8.6261   -2.6138  -17.1189 H   0  0  0  0  0  0  0  0  0  0  0  0
    6.0619    5.8154  -19.5001 H   0  0  0  0  0  0  0  0  0  0  0  0
    7.1658    5.5131  -18.1157 H   0  0  0  0  0  0  0  0  0  0  0  0
    8.7933   -0.4694  -18.1515 H   0  0  0  0  0  0  0  0  0  0  0  0
    7.1659   -0.6010  -18.9005 H   0  0  0  0  0  0  0  0  0  0  0  0
    5.5432    6.6474  -15.7730 H   0  0  0  0  0  0  0  0  0  0  0  0
    4.3147    7.7984  -16.3996 H   0  0  0  0  0  0  0  0  0  0  0  0
    6.7485    7.7539  -17.5391 H   0  0  0  0  0  0  0  0  0  0  0  0
    5.5844    4.2928  -16.9890 H   0  0  0  0  0  0  0  0  0  0  0  0
    8.3827   -4.9908  -13.4437 H   0  0  0  0  0  0  0  0  0  0  0  0
    6.5951   -5.1380  -13.5400 H   0  0  0  0  0  0  0  0  0  0  0  0
    7.6247   -5.8320  -14.8381 H   0  0  0  0  0  0  0  0  0  0  0  0
    1.8157   -2.4438  -18.1255 H   0  0  0  0  0  0  0  0  0  0  0  0
    3.0106   -2.3271  -19.4616 H   0  0  0  0  0  0  0  0  0  0  0  0
    2.7845   -3.8826  -18.5921 H   0  0  0  0  0  0  0  0  0  0  0  0
    4.4771   -4.5797  -18.9819 H   0  0  0  0  0  0  0  0  0  0  0  0
    6.2526   -4.6459  -18.7182 H   0  0  0  0  0  0  0  0  0  0  0  0
    5.1294   -4.9464  -17.3490 H   0  0  0  0  0  0  0  0  0  0  0  0
    8.5198   -0.2755  -14.5081 H   0  0  0  0  0  0  0  0  0  0  0  0
    8.2169    1.3257  -13.7523 H   0  0  0  0  0  0  0  0  0  0  0  0
    4.3191    2.5545  -21.1427 H   0  0  0  0  0  0  0  0  0  0  0  0
    3.6966    1.5589  -19.7833 H   0  0  0  0  0  0  0  0  0  0  0  0
    3.8880   -1.2858  -17.3707 H   0  0  0  0  0  0  0  0  0  0  0  0
    3.6619   -2.8413  -16.5012 H   0  0  0  0  0  0  0  0  0  0  0  0
    8.9790    2.4866  -15.7638 H   0  0  0  0  0  0  0  0  0  0  0  0
    9.5102    0.9406  -16.5083 H   0  0  0  0  0  0  0  0  0  0  0  0
    6.6355    1.4370  -15.6182 H   0  0  0  0  0  0  0  0  0  0  0  0
    3.5521    3.4565  -18.1819 H   0  0  0  0  0  0  0  0  0  0  0  0
    5.5232   -2.3045  -18.8627 H   0  0  0  0  0  0  0  0  0  0  0  0
    6.1785    3.3659  -19.7511 H   0  0  0  0  0  0  0  0  0  0  0  0
    5.8374   -4.2977  -15.9808 H   0  0  0  0  0  0  0  0  0  0  0  0
    5.1252    1.4419  -17.7036 H   0  0  0  0  0  0  0  0  0  0  0  0
    3.6759    5.3538  -16.3416 H   0  0  0  0  0  0  0  0  0  0  0  0
    3.4343    6.1148  -17.7661 H   0  0  0  0  0  0  0  0  0  0  0  0
    3.3663    4.1007  -20.4167 H   0  0  0  0  0  0  0  0  0  0  0  0
  1  2  2  0
  1  3  1  0
  2  5  1  0
  3  6  2  0
  4  7  2  0
  4 11  1  0
  5 13  2  0
  6 13  1  0
  7 15  1  0
  8 14  2  0
  8 16  1  0
  9 14  1  0
  9 17  2  0
 10 16  2  0
 10 17  1  0
 11 39  2  0
 12 15  2  0
 12 39  1  0
 13 31  1  0
 14 32  1  0
 15 48  1  0
 16 49  1  0
 17 50  1  0
 18 27  1  0
 18 40  1  0
 18 44  2  0
 19 28  1  0
 19 41  1  0
 19 45  2  0
 20 35  1  0
 20 42  1  0
 20 46  2  0
 21 23  1  0
 21 27  1  0
 22 25  1  0
 22 26  1  0
 23 40  1  0
 24 25  1  0
 24 43  1  0
 25 48  1  0
 26 36  1  0
 26 43  1  0
 27 37  1  0
 27 41  1  1
 29 33  1  0
 30 37  1  0
 31 34  1  0
 32 38  1  0
 33 37  1  0
 34 35  1  0
 35 40  1  0
 36 38  1  0
 36 47  1  0
 38 42  1  0
  1 51  1  0
  2 52  1  0
  3 53  1  0
  4 54  1  0
  5 55  1  0
  6 56  1  0
  7 57  1  0
  8 58  1  0
  9 59  1  0
 10 60  1  0
 11 61  1  0
 12 62  1  0
 21 63  1  0
 21 64  1  0
 22 65  1  0
 22 66  1  0
 23 67  1  0
 23 68  1  0
 24 69  1  0
 24 70  1  0
 25 71  1  1
 26 72  1  1
 28 73  1  0
 28 74  1  0
 28 75  1  0
 29 76  1  0
 29 77  1  0
 29 78  1  0
 30 79  1  0
 30 80  1  0
 30 81  1  0
 31 82  1  0
 31 83  1  0
 32 84  1  0
 32 85  1  0
 33 86  1  0
 33 87  1  0
 34 88  1  0
 34 89  1  0
 35 90  1  1
 36 91  1  1
 37 92  1  6
 38 93  1  6
 41 94  1  0
 42 95  1  0
 43 96  1  0
 43 97  1  0
 47 98  1  0
M  CHG  1  43   1
M  END
>  <OMEGA_C>  (224) 
VmRPQcB4aD8qE1LBxupHQTgaTr7y0F3B+4BBQfhw/T9+ZU3B/r/sQFFzDUGVjKvBa4EyQegder5E
vGTBRhAsQdj09z+oQlTBpoveQNO9BkHgdqHBY8HZQGhqgz/cEanB3padQOhb+b5APKbBmT3hQJt+
rL+4IK3BnffOQP6oFUFP9LLB852WQIX9EEFp1qbBc3skQUxOUD8pm1/BJTevQCG1Tj9VpaXBJFOy
QBX6B0HoJZ/BWszyQJAZVb1PrqzBf3q2QE/ex78MCqrBt0LIQJ/DjL8sz4HB+GHuQCi1a8BrIW7B
8gHiQODlBkCW04zBfQH4QHxFFMAQt43BQdfEQB5tukAJO5PBfm74QDjNU79xCpDB7SyeQPDJ3UBb
M4XBHpC6QAdW50Dquo7BvNSiQNjpnEDcD47B7DTOQNgZH8CURYfBxZHwQF4WoMA8+WHBkfgyQLZq
MsAi45PBczapQEO2i8C2KJLBVbcNQfkhRT8sQGfBq0STQIs2+z/ZE6LBxOJ4QKxhGMDxyovBtlYM
QcZgtD8+eH3BIXHrQIxpmT/5TYPBi4+LQJhbfUAW3JXB+W6pQG6+NcAYb4/BLFuqQDqGOEBJCprB
LPekQIqVF0HYfrDB8EvlQJi/Wb7kgobBt6zQQPKQZMAykX7BLAS5QFBVBEB7/5DBlv+DQOHMuUCU
5YjBTMqyQPB1X787mXPBXL4EQVavNMA/vGrBAmv9QEDfNkCxfpDBGOlzQJtDlkDUmJ7B4CGgQCxY
AEEj15XBXdINQRCbIj4qzK/B/IqlQKh8M8BCiqrB28pfQYPbbz/ZpkzBDJ5SQV09gr8+f2HBRlBH
QXpbNUCejETB7BsHQahXDEGboa3BC9EsQfX0ir/E9G3BtnIhQWnIMEBH2VDB4t/0QOTBAEFxlpvB
pAznQE5/AUDh6ajB09V5QEAGKL/8w6PB7JH0QPhIC8CE1q/BZuzZQEyIGkE2x7rBJhpqQN+qEkF3
9aTB1yL3QEvSOcDWJ5XBfgQKQfVHJ8Ca84jBrfrBQOIXukBHAJzBA07lQG5rsED57JDBNLEMQbVS
8L4xNpHB9k7lQIzdGb8gNJfBImKxQGi31EAPXnzBPhKKQG2M+UBTMoPBfPPXQE4g+EAsUIzBk7Oy
QE5eiUB26YfBVh8GQbW0n8CFGVfB2ArTQNpqpMDno1jBXP3zQP6fusDDaG3BH2noP7JmHMAXAZHB
8a1AQOjuFMBEsZvBlDUyQO97eMCKvJTBNESPQIqMksDa2pfBUxXIQNOqlMDyvpXBaCSkQKpInsC0
yorB/VAIQfAIjb4WIWjBZHgDQW+xqT+aCVzBcDaKQCF8I0ArJKnBnpRsQOKIxz8vRJ7BqtV4QEKW
pL8c94rBTF1qQCjYNcBiAoTB4akPQQkkH0CiOHzB2SkYQVTIcD8MEYTBK1bUQFrutz8v5HnBMFZj
QLc3XUCQdJHBab6wQEp9E8DR5pbBabbFQF1rV0BWAp7BKMy6QCOHicBjsX/BxQGkQOqQuD8FoY3B
hUFrQJFSq0Cju4LB6MpbQFesw0AJIY7B/nBXQPg4g0BiVaPB

>  <OMEGA_E>  (224) 
kI/SPg==

>  <OMEGA_NBR>  (224) 
     28661

$$$$
50197381
     RDKit          3D

 78 80  0  0  1  0  0  0  0  0999 V2000
    6.7117    1.1142  -21.1324 C   0  0  0  0  0  0  0  0  0  0  0  0
    4.8246   -0.4054  -20.8474 C   0  0  0  0  0  0  0  0  0  0  0  0
    6.9112   -1.2203  -21.8072 C   0  0  0  0  0  0  0  0  0  0  0  0
    5.4002    0.8686  -20.6717 C   0  0  0  0  0  0  0  0  0  0  0  0
    7.4680    0.0671  -21.6874 C   0  0  0  0  0  0  0  0  0  0  0  0
    5.5834   -1.4513  -21.4050 C   0  0  0  0  0  0  0  0  0  0  0  0
    6.3585   -1.1398  -16.0434 C   0  0  0  0  0  0  0  0  0  0  0  0
    7.0440    2.1214  -17.3752 C   0  0  0  0  0  0  0  0  0  0  0  0
    7.5869   -2.2359  -17.7615 C   0  0  0  0  0  0  0  0  0  0  0  0
    6.1423    5.7666  -18.2789 C   0  0  0  0  0  0  0  0  0  0  0  0
    7.8480   -0.7462  -17.8405 C   0  0  0  0  0  0  0  0  0  0  0  0
    4.7754    7.1310  -16.8178 C   0  0  0  0  0  0  0  0  0  0  0  0
    6.2416   -2.2830  -17.0493 C   0  0  2  0  0  0  0  0  0  0  0  0
    5.9096    7.2178  -17.8298 C   0  0  2  0  0  0  0  0  0  0  0  0
    4.9702    4.9724  -17.6597 C   0  0  2  0  0  0  0  0  0  0  0  0
    4.5247   -4.8612  -18.4943 C   0  0  0  0  0  0  0  0  0  0  0  0
    4.9903    9.5708  -21.4405 C   0  0  0  0  0  0  0  0  0  0  0  0
    8.7626    1.4196  -15.5618 C   0  0  0  0  0  0  0  0  0  0  0  0
    4.5550    1.9838  -20.1142 C   0  0  0  0  0  0  0  0  0  0  0  0
    5.0985   -1.9327  -18.0316 C   0  0  0  0  0  0  0  0  0  0  0  0
    3.4360   -3.7713  -18.5744 C   0  0  0  0  0  0  0  0  0  0  0  0
    6.1946    8.6478  -21.1980 C   0  0  0  0  0  0  0  0  0  0  0  0
    3.7466   -2.5615  -17.6672 C   0  0  0  0  0  0  0  0  0  0  0  0
    6.5642    8.5858  -19.7097 C   0  0  0  0  0  0  0  0  0  0  0  0
    7.3643    1.1929  -16.1743 C   0  0  2  0  0  0  0  0  0  0  0  0
    4.3091    3.9609  -18.6069 C   0  0  2  0  0  0  0  0  0  0  0  0
    5.3016    2.8807  -19.0919 C   0  0  1  0  0  0  0  0  0  0  0  0
    7.2552   -0.2116  -16.5954 N   0  0  0  0  0  0  0  0  0  0  0  0
    5.7665    2.0631  -17.9428 N   0  0  0  0  0  0  0  0  0  0  0  0
    3.9786    5.9859  -17.2585 N   0  0  0  0  0  0  0  0  0  0  0  0
    5.6363   -0.9731  -15.0679 O   0  0  0  0  0  0  0  0  0  0  0  0
    7.9108    2.8542  -17.8399 O   0  0  0  0  0  0  0  0  0  0  0  0
    3.7523    4.6605  -19.7253 O   0  0  0  0  0  0  0  0  0  0  0  0
    5.4782    8.0196  -18.9459 O   0  0  0  0  0  0  0  0  0  0  0  0
    8.7269    0.3018  -22.1170 F   0  0  0  0  0  0  0  0  0  0  0  0
    5.0478   -2.6876  -21.5187 F   0  0  0  0  0  0  0  0  0  0  0  0
    7.1337    2.1056  -21.0585 H   0  0  0  0  0  0  0  0  0  0  0  0
    3.7999   -0.5795  -20.5539 H   0  0  0  0  0  0  0  0  0  0  0  0
    7.5032   -2.0300  -22.2076 H   0  0  0  0  0  0  0  0  0  0  0  0
    7.5246   -2.6846  -18.7639 H   0  0  0  0  0  0  0  0  0  0  0  0
    8.3663   -2.7481  -17.1783 H   0  0  0  0  0  0  0  0  0  0  0  0
    6.1245    5.6924  -19.3763 H   0  0  0  0  0  0  0  0  0  0  0  0
    7.1059    5.3935  -17.9018 H   0  0  0  0  0  0  0  0  0  0  0  0
    8.9279   -0.5402  -17.8791 H   0  0  0  0  0  0  0  0  0  0  0  0
    7.3598   -0.3101  -18.7245 H   0  0  0  0  0  0  0  0  0  0  0  0
    5.1700    6.9634  -15.8048 H   0  0  0  0  0  0  0  0  0  0  0  0
    4.1730    8.0513  -16.8290 H   0  0  0  0  0  0  0  0  0  0  0  0
    6.0700   -3.2505  -16.5547 H   0  0  0  0  0  0  0  0  0  0  0  0
    6.8174    7.6244  -17.3602 H   0  0  0  0  0  0  0  0  0  0  0  0
    5.3359    4.4394  -16.7696 H   0  0  0  0  0  0  0  0  0  0  0  0
    4.2564   -5.6975  -19.1565 H   0  0  0  0  0  0  0  0  0  0  0  0
    5.4901   -4.4388  -18.8099 H   0  0  0  0  0  0  0  0  0  0  0  0
    4.6043   -5.2243  -17.4590 H   0  0  0  0  0  0  0  0  0  0  0  0
    4.7538    9.5913  -22.5146 H   0  0  0  0  0  0  0  0  0  0  0  0
    4.1214    9.1941  -20.8810 H   0  0  0  0  0  0  0  0  0  0  0  0
    5.2334   10.5878  -21.0992 H   0  0  0  0  0  0  0  0  0  0  0  0
    8.9117    0.7266  -14.7207 H   0  0  0  0  0  0  0  0  0  0  0  0
    9.5317    1.2381  -16.3271 H   0  0  0  0  0  0  0  0  0  0  0  0
    8.8413    2.4559  -15.2014 H   0  0  0  0  0  0  0  0  0  0  0  0
    4.2184    2.6154  -20.9496 H   0  0  0  0  0  0  0  0  0  0  0  0
    3.6811    1.5407  -19.6143 H   0  0  0  0  0  0  0  0  0  0  0  0
    4.9784   -0.8394  -18.0466 H   0  0  0  0  0  0  0  0  0  0  0  0
    5.3843   -2.2841  -19.0340 H   0  0  0  0  0  0  0  0  0  0  0  0
    3.3611   -3.4226  -19.6150 H   0  0  0  0  0  0  0  0  0  0  0  0
    2.4753   -4.2081  -18.2640 H   0  0  0  0  0  0  0  0  0  0  0  0
    5.9448    7.6349  -21.5468 H   0  0  0  0  0  0  0  0  0  0  0  0
    7.0569    9.0286  -21.7650 H   0  0  0  0  0  0  0  0  0  0  0  0
    3.7762   -2.8958  -16.6197 H   0  0  0  0  0  0  0  0  0  0  0  0
    2.9549   -1.8077  -17.7894 H   0  0  0  0  0  0  0  0  0  0  0  0
    7.4605    7.9605  -19.5843 H   0  0  0  0  0  0  0  0  0  0  0  0
    6.7726    9.6025  -19.3451 H   0  0  0  0  0  0  0  0  0  0  0  0
    6.6169    1.3871  -15.3909 H   0  0  0  0  0  0  0  0  0  0  0  0
    3.5028    3.4554  -18.0552 H   0  0  0  0  0  0  0  0  0  0  0  0
    6.1567    3.3643  -19.5867 H   0  0  0  0  0  0  0  0  0  0  0  0
    5.1143    1.4192  -17.5427 H   0  0  0  0  0  0  0  0  0  0  0  0
    3.4081    5.6448  -16.5113 H   0  0  0  0  0  0  0  0  0  0  0  0
    3.3981    6.2373  -18.0330 H   0  0  0  0  0  0  0  0  0  0  0  0
    3.3416    4.0395  -20.3153 H   0  0  0  0  0  0  0  0  0  0  0  0
  1  4  2  0
  1  5  1  0
  2  4  1  0
  2  6  2  0
  3  5  2  0
  3  6  1  0
  4 19  1  0
  5 35  1  0
  6 36  1  0
  7 13  1  0
  7 28  1  0
  7 31  2  0
  8 25  1  0
  8 29  1  0
  8 32  2  0
  9 11  1  0
  9 13  1  0
 10 14  1  0
 10 15  1  0
 11 28  1  0
 12 14  1  0
 12 30  1  0
 13 20  1  0
 14 34  1  0
 15 26  1  0
 15 30  1  0
 16 21  1  0
 17 22  1  0
 18 25  1  0
 19 27  1  0
 20 23  1  0
 21 23  1  0
 22 24  1  0
 24 34  1  0
 25 28  1  0
 26 27  1  0
 26 33  1  0
 27 29  1  0
  1 37  1  0
  2 38  1  0
  3 39  1  0
  9 40  1  0
  9 41  1  0
 10 42  1  0
 10 43  1  0
 11 44  1  0
 11 45  1  0
 12 46  1  0
 12 47  1  0
 13 48  1  1
 14 49  1  1
 15 50  1  1
 16 51  1  0
 16 52  1  0
 16 53  1  0
 17 54  1  0
 17 55  1  0
 17 56  1  0
 18 57  1  0
 18 58  1  0
 18 59  1  0
 19 60  1  0
 19 61  1  0
 20 62  1  0
 20 63  1  0
 21 64  1  0
 21 65  1  0
 22 66  1  0
 22 67  1  0
 23 68  1  0
 23 69  1  0
 24 70  1  0
 24 71  1  0
 25 72  1  1
 26 73  1  1
 27 74  1  6
 29 75  1  0
 30 76  1  0
 30 77  1  0
 33 78  1  0
M  CHG  1  30   1
M  END
>  <OMEGA_C>  (225) 
PMbWQESejj8TD6nBHGOaQIGUz76Fx6bB4yjdQBg0nL8Rda7BIM6sQI5ZXj+8X6XBCPruQEBqiT20
f63BOauyQKfDub9uPavBM3nLQNzkkb/ZWIDBP2jhQIjEB0BaAIvBucfyQMsYD8CeF47B2o3EQNyH
uEA4O5LBHCP7QPoFP79euY7B5M+YQAox5EDeiobB8rrHQJEcEsD4ZIjBnBu9QNX35kB+o47Bnguf
QOkdn0AFR43BQsqQQLWOm8A79JPByLCfQNEhGUEahqvBmDMMQeq0tT9T/XjBmcKRQNXt/T/l6aDB
xiajQFZk97+lQJDBH+dbQEBdccBamJTBSTrGQDFdCkGElanBu8hvQNjvI8CEVo3BRg7SQHlfCUGC
rZ3BDajrQB2ymD/+ZIHBX+SJQGF/fUDt2pTBT6apQB5eOEAvvJjBxCroQDqxWL5ww4TBGIe4QHwJ
BEDzio/BJKF+QJyMv0BbEYrBw1y0QMofeb/zFXHBeyX9QNGqNkAtuI7BvSVwQOsilUB0zZ3ByE2v
QBtQAEE7kZfBMqELQax/mj6Y77DB5YehQOABLMBfJqzBaUfkQPvBBkDKd6jBYDJzQNVcFL9NbqTB
gBrwQDnsAcAZqbHBYsnwQPLQK8B6HJbBONwFQSDhL8AebYnBnvvDQPIntkCXApvB2mPjQEGXrEDm
No/BoNgOQcpJCr9eCI/BLIPrQDjGnr7Dy5XB13ClQOrT3kCC4HzBBImFQCXSAEHJoYbBzj3CQHoH
UMAZcITBdSjaQMv680C74YrBsb+qQNMPjkA0KIbBwDSIQERStsBwQJnBra6vQKkKjsCzepbBUlaT
QKUtp8D/q4vBdB+YQAB2GUHSHbTBJ+KDQDEbE0E9DKfBYHinQKxnKUEXy6jBhpYOQWwDOj/wh2vB
34EYQX56nj/NnYLB9nUNQfssHUD4OHPBSv2GQNRiJ0CxmKfBCZdrQIY1xT8P6pzBRE+fQIbkVr97
X5DBzkusQF0uEsCoRZjBVhxXQBMMW8B065zBn2seQAaphsDAHJLBmju+QP1Q9EDtX6zB0tHhQPl0
EEHHHq7BhKxxQCBUOcAW9YTBYBw9QCpk57/GUI7BZLzuQG+8/kC8rJzB2bjYQOWjGUHdwprB7r3T
QAWNsT/6QHbBii5gQD4lXUANcZDB9APFQA5RV0CEsZzBd6ijQIeotT+DV4zBHB9aQAKitEAzF4TB
FHtZQECYx0COQ5DB49xVQEdDgUDRhaLB

>  <OMEGA_E>  (225) 
gh4IPw==

>  <OMEGA_NBR>  (225) 
     30258

$$$$
50197388
     RDKit          3D

 79 81  0  0  1  0  0  0  0  0999 V2000
    6.0303    0.5540  -21.2250 C   0  0  0  0  0  0  0  0  0  0  0  0
    4.9753   -0.6263  -19.3647 C   0  0  0  0  0  0  0  0  0  0  0  0
    6.6137   -1.7731  -20.7655 C   0  0  0  0  0  0  0  0  0  0  0  0
    5.1206    0.5407  -20.1442 C   0  0  0  0  0  0  0  0  0  0  0  0
    6.7752   -0.6027  -21.5365 C   0  0  0  0  0  0  0  0  0  0  0  0
    5.7000   -1.7867  -19.6907 C   0  0  0  0  0  0  0  0  0  0  0  0
    7.0925   -0.9287  -15.8697 C   0  0  0  0  0  0  0  0  0  0  0  0
    6.5648    2.3642  -16.9276 C   0  0  0  0  0  0  0  0  0  0  0  0
    9.2115   -0.9711  -17.0128 C   0  0  0  0  0  0  0  0  0  0  0  0
    6.0748    5.7016  -18.3966 C   0  0  0  0  0  0  0  0  0  0  0  0
    8.9848    0.3885  -16.3853 C   0  0  0  0  0  0  0  0  0  0  0  0
    4.8738    7.4082  -17.3014 C   0  0  0  0  0  0  0  0  0  0  0  0
    8.2742   -1.8666  -16.2033 C   0  0  2  0  0  0  0  0  0  0  0  0
    6.3013    6.8710  -17.4819 C   0  0  2  0  0  0  0  0  0  0  0  0
    4.8539    5.0518  -17.7393 C   0  0  2  0  0  0  0  0  0  0  0  0
    9.7961   -6.1614  -18.4856 C   0  0  0  0  0  0  0  0  0  0  0  0
    9.2998   10.7595  -17.0688 C   0  0  0  0  0  0  0  0  0  0  0  0
    7.5130    2.4166  -14.5581 C   0  0  0  0  0  0  0  0  0  0  0  0
    4.2875    1.7702  -19.8293 C   0  0  0  0  0  0  0  0  0  0  0  0
    8.5979   -5.2587  -18.1543 C   0  0  0  0  0  0  0  0  0  0  0  0
    8.7255    9.6638  -17.9790 C   0  0  0  0  0  0  0  0  0  0  0  0
    9.0462   -4.0639  -17.2793 C   0  0  0  0  0  0  0  0  0  0  0  0
    7.7176    8.7999  -17.2075 C   0  0  0  0  0  0  0  0  0  0  0  0
    6.7881    1.5822  -15.6394 C   0  0  2  0  0  0  0  0  0  0  0  0
    7.8543   -3.1264  -16.9952 C   0  0  1  0  0  0  0  0  0  0  0  0
    4.1381    4.0080  -18.6285 C   0  0  2  0  0  0  0  0  0  0  0  0
    5.0459    2.7793  -18.9255 C   0  0  1  0  0  0  0  0  0  0  0  0
    7.5626    0.3823  -15.9882 N   0  0  0  0  0  0  0  0  0  0  0  0
    5.4060    2.1123  -17.6581 N   0  0  0  0  0  0  0  0  0  0  0  0
    3.9785    6.2143  -17.4194 N   0  0  0  0  0  0  0  0  0  0  0  0
    5.9519   -1.2560  -15.5586 O   0  0  0  0  0  0  0  0  0  0  0  0
    7.4527    3.0950  -17.3476 O   0  0  0  0  0  0  0  0  0  0  0  0
    6.8396   -3.8468  -16.2854 O   0  0  0  0  0  0  0  0  0  0  0  0
    3.7381    4.6289  -19.8534 O   0  0  0  0  0  0  0  0  0  0  0  0
    7.2004    7.8007  -18.0996 O   0  0  0  0  0  0  0  0  0  0  0  0
    7.6217   -0.5978  -22.5927 F   0  0  0  0  0  0  0  0  0  0  0  0
    5.4685   -2.9287  -19.0056 F   0  0  0  0  0  0  0  0  0  0  0  0
    6.1556    1.4509  -21.8134 H   0  0  0  0  0  0  0  0  0  0  0  0
    4.3068   -0.6285  -18.5166 H   0  0  0  0  0  0  0  0  0  0  0  0
    7.1886   -2.6574  -20.9978 H   0  0  0  0  0  0  0  0  0  0  0  0
    8.9376   -0.9683  -18.0782 H   0  0  0  0  0  0  0  0  0  0  0  0
   10.2587   -1.2898  -16.9043 H   0  0  0  0  0  0  0  0  0  0  0  0
    5.8552    6.0283  -19.4238 H   0  0  0  0  0  0  0  0  0  0  0  0
    6.9394    5.0215  -18.4051 H   0  0  0  0  0  0  0  0  0  0  0  0
    9.6328    0.5238  -15.5068 H   0  0  0  0  0  0  0  0  0  0  0  0
    9.1814    1.1898  -17.1128 H   0  0  0  0  0  0  0  0  0  0  0  0
    4.7615    7.8765  -16.3124 H   0  0  0  0  0  0  0  0  0  0  0  0
    4.6382    8.1441  -18.0844 H   0  0  0  0  0  0  0  0  0  0  0  0
    8.7713   -2.1719  -15.2707 H   0  0  0  0  0  0  0  0  0  0  0  0
    6.6919    6.5245  -16.5137 H   0  0  0  0  0  0  0  0  0  0  0  0
    5.1695    4.5630  -16.8058 H   0  0  0  0  0  0  0  0  0  0  0  0
    9.4600   -7.0043  -19.1072 H   0  0  0  0  0  0  0  0  0  0  0  0
   10.5523   -5.5803  -19.0338 H   0  0  0  0  0  0  0  0  0  0  0  0
   10.2344   -6.5457  -17.5528 H   0  0  0  0  0  0  0  0  0  0  0  0
   10.0191   11.3685  -17.6362 H   0  0  0  0  0  0  0  0  0  0  0  0
    8.4827   11.4004  -16.7062 H   0  0  0  0  0  0  0  0  0  0  0  0
    9.8090   10.2946  -16.2118 H   0  0  0  0  0  0  0  0  0  0  0  0
    7.6481    1.8065  -13.6529 H   0  0  0  0  0  0  0  0  0  0  0  0
    8.4960    2.7329  -14.9370 H   0  0  0  0  0  0  0  0  0  0  0  0
    6.9107    3.3044  -14.3153 H   0  0  0  0  0  0  0  0  0  0  0  0
    4.0232    2.2698  -20.7730 H   0  0  0  0  0  0  0  0  0  0  0  0
    3.3697    1.4530  -19.3127 H   0  0  0  0  0  0  0  0  0  0  0  0
    8.1612   -4.8787  -19.0897 H   0  0  0  0  0  0  0  0  0  0  0  0
    7.8433   -5.8442  -17.6087 H   0  0  0  0  0  0  0  0  0  0  0  0
    8.2196   10.1328  -18.8358 H   0  0  0  0  0  0  0  0  0  0  0  0
    9.5459    9.0269  -18.3413 H   0  0  0  0  0  0  0  0  0  0  0  0
    9.4445   -4.4423  -16.3263 H   0  0  0  0  0  0  0  0  0  0  0  0
    9.8308   -3.5024  -17.8075 H   0  0  0  0  0  0  0  0  0  0  0  0
    8.2186    8.3148  -16.3568 H   0  0  0  0  0  0  0  0  0  0  0  0
    6.8949    9.4296  -16.8380 H   0  0  0  0  0  0  0  0  0  0  0  0
    5.8090    1.2782  -15.2409 H   0  0  0  0  0  0  0  0  0  0  0  0
    7.4511   -2.7941  -17.9632 H   0  0  0  0  0  0  0  0  0  0  0  0
    3.2492    3.6508  -18.0880 H   0  0  0  0  0  0  0  0  0  0  0  0
    5.9531    3.1194  -19.4464 H   0  0  0  0  0  0  0  0  0  0  0  0
    4.7708    1.4292  -17.2977 H   0  0  0  0  0  0  0  0  0  0  0  0
    3.4985    6.0569  -16.5564 H   0  0  0  0  0  0  0  0  0  0  0  0
    3.3114    6.3548  -18.1510 H   0  0  0  0  0  0  0  0  0  0  0  0
    6.2619   -3.2326  -15.8477 H   0  0  0  0  0  0  0  0  0  0  0  0
    3.2978    3.9914  -20.4031 H   0  0  0  0  0  0  0  0  0  0  0  0
  1  4  2  0
  1  5  1  0
  2  4  1  0
  2  6  2  0
  3  5  2  0
  3  6  1  0
  4 19  1  0
  5 36  1  0
  6 37  1  0
  7 13  1  0
  7 28  1  0
  7 31  2  0
  8 24  1  0
  8 29  1  0
  8 32  2  0
  9 11  1  0
  9 13  1  0
 10 14  1  0
 10 15  1  0
 11 28  1  0
 12 14  1  0
 12 30  1  0
 13 25  1  0
 14 35  1  0
 15 26  1  0
 15 30  1  0
 16 20  1  0
 17 21  1  0
 18 24  1  0
 19 27  1  0
 20 22  1  0
 21 23  1  0
 22 25  1  0
 23 35  1  0
 24 28  1  0
 25 33  1  0
 26 27  1  0
 26 34  1  0
 27 29  1  0
  1 38  1  0
  2 39  1  0
  3 40  1  0
  9 41  1  0
  9 42  1  0
 10 43  1  0
 10 44  1  0
 11 45  1  0
 11 46  1  0
 12 47  1  0
 12 48  1  0
 13 49  1  1
 14 50  1  1
 15 51  1  1
 16 52  1  0
 16 53  1  0
 16 54  1  0
 17 55  1  0
 17 56  1  0
 17 57  1  0
 18 58  1  0
 18 59  1  0
 18 60  1  0
 19 61  1  0
 19 62  1  0
 20 63  1  0
 20 64  1  0
 21 65  1  0
 21 66  1  0
 22 67  1  0
 22 68  1  0
 23 69  1  0
 23 70  1  0
 24 71  1  1
 25 72  1  6
 26 73  1  1
 27 74  1  6
 29 75  1  0
 30 76  1  0
 30 77  1  0
 33 78  1  0
 34 79  1  0
M  CHG  1  30   1
M  END
>  <OMEGA_C>  (226) 
YPjAQBjQDT+2zKnB7zWfQN5TIL/96prBF6PTQA/14r/JH6bB29ujQKFoCj9sJ6HBuc7YQOpJGr+u
SqzB/2W2QB+y5L+Qhp3B0fXiQFm/bb9Q6n3B7xLSQI9PF0Cqa4fBUmITQdeWeL9IGojBD2XCQHtz
tkBMLJPBr8EPQdPpxj4eFYPB4PWbQBAQ7UBNaYrBS2MEQaTr7r9zoIHB2KPJQA7f20Di2ovB4lKb
QAyooUAX6o3B17wcQe8pxcB+4pPBI8wUQRUnLEH8jIjBamrwQHOpGkAQ7mjBlDOJQGWX4j9Sop7B
0JAJQQNHqMARPJHBlpsLQbueGkEA1Y/BD70QQa8LgsD1O4rBg/b2QGPMDEH1qInBRTjZQKuGyj8r
O3rB1Vb7QGIXSMAp9ofBCWuEQORBgEBAB5XBEHihQCPgMUBgZ5fBMgHyQEHDwz6Jz3/BEP6sQF8w
B0DYQ43BSZ9+QFbbxkAAW4vB5nW+QCzGoL848HjBHHzuQK0URkDjx4rBqt3aQJQydsCISILBWT1v
QEcglEDL057Be2nmQD6f+UD/y5DBruTzQC0HGb/ivbTBNv6uQJtvO8B9C5jB7vrEQH+1uT/dga7B
FNGJQHPiIL/nIZTB2gjmQC4SKsCB+6fBfwAPQRjhd78hoJDBnyMkQW8Ypb/6O4fBiF27QKznwEDj
Y5vBaQ/eQGKwoEC9PZPBACAaQbkUBj/iG3jBJ+cSQWJKmD8Z54jBcV6YQBIM/EDRf4LBamyUQChO
AkHMrJDBDFcMQR4AC8DtVHTBpyPWQADJ0EADHITBcGylQPMDkkA5cobBJ1wXQXcj4MCi25jBHNYo
QaORssA9RZjBCcAjQbp20cAQbIzBIk4gQUblNUHwFo3BAbkHQTtoNkFmpoXBsPEcQX22JEG/sYHB
Nr30QH865z8cclrBv+8HQcXnLkAf/m7BESTdQFB7U0BGC2XBur2AQC5EEUABL6bB+ahXQOL6uT9U
gJrBE5QCQYwenMC6t5jB//v6QKIDu8CM3ozBWoMDQccfIkGzr5bBCbwYQQluEEELu5LBoBwXQWsn
jsBFnILB5UodQS4nYMDLdY7Bkn8DQZMJBUHC2oLBvKLcQMffFkEmtIbBLuO5QPOaoz/B2nPBJm/u
QCfTMsCLtI/Bi/JPQPylaUAltJDBpn++QGqkR0A5kpvBuaqYQArwtj+7YYrB8eZfQF/SwUB9c4TB
+e1TQNBay0BYNZHByWHIQPriTsBMkH3BVQ9TQChzf0CXOaPB0ffXQJodjz859KjBRMOfQFFw/b7p
uaTBEHPiQDdjn7+p5azBZiWvQEizVD9asKTBY7XxQH4hoT128KzBIWW5QPDOw7/336jBqGLRQHC+
mL/FFoDBClLgQFW5CkABE4vBdfT0QD8xDcAaOY/BB1DEQBUeuEBVtJHB+Gn+QEg4OL/+z47BAc+W
QOFe40CdbYbBgdblQAEoIMBL0oPB0oa7QDCR5kBfYY7B67WdQLWOnkAaUo3B5l1MQBuDUcC8aJXB
7CWdQPKlF0GugKvBOVoLQYdZsD+lpXnB3n+SQGBK+T9g3qDBNa2JQAdQN8Bymo3BKX3FQA9ECkHY
VanBlLmoQAZvgcCdnovBkh7QQN5rCUEWW53B78LpQNbDmT/n3IHBRGrIQJgDcMAYUILBlGyJQOJX
fkAdUZXBqFWpQAAcOUDN55jBtUrkQIpyK752/IXBiJa3QKNSB0B/j4/BeWp7QKjHvkADKYrBODa6
QLmUhr8ig3DBrnn8QEbGOEA4w47BjRjjQEhpnMB/qYDBkwB0QHwRlkCDb57BvpmtQCAL/0Dkf5fB
+XUMQRp3tT4u67DBEKCqQDwJM8CxHanBLGrjQL/BCEBhJ6nBAl6AQPlLN7+rk6HBIUP2QJrGAsA0
9K/B3LnbQDF1G8BPGJXB6vAIQaYSMsDoMZHBZCXGQEtdtUAqd5rBOlviQAuWrEB8I47BvU8QQXUc
Db+API3BYo/1QNnJeb6hbpbBC/eiQIa03UB+lXzBwm2DQG9gAEEpg4bBJ0QBQcO6KsA0zH3BEvvX
QM2l9EBblIrB1iWoQECPjEDuOIbB7fkgQLkQG8DHtpbBQgZpQLPEZMACFJ3BkSgoQLfDg8C/CZLB
o5CWQBTiF0GHJbTB/cWBQJyKEEE/Q6fB2DmiQO0ZKEG5pajBYHMNQelxJj9RnWzBAKsXQWn/mj+G
94LB2+UMQX5zGUBCPXPBXwWIQFw0IkDc1afB5tZsQN8WwT8U5JzB/Z6bQEAtAcBx/5DBSWB2QPvv
I8Av9YXBwy3AQDjB80CdQazBnqHgQOxvEUEXpK3Bsu+VQGAXnsCMm4nB4Si7QORch8Df95LBW5Dt
QF4RAEEnLpzB8/vUQATLGUEZXZrBMuXRQMg1sD/MGHfB3zG1QBgKZcB6I3bB9/dcQB1WXkDETpHB
K9TEQFh2V0Ba4ZzBMFKiQGflvz8RK4zBWCpWQAiPs0B2SoTBkhFXQBYIx0DRaZDBssvRQAQgtcCF
cn/BlPxaQJ6QgkAVW6PBLknWQNdRjD98N6nB+5WbQL215r7Qk6XBpufdQI2Vor+NfK3BrMGsQFzx
WT+mN6XBIu7uQJC/CT0/P63BbBG0QC0Iwb/FwqnBKDLRQLxyf7+/S33BZPvhQLOZDEAgBYzBfV7+
QI2mCcDYkYvBZAvEQFJft0CYvpHB3Zf1QMKEOL+R+Y7BbVuXQNzA4kDpRIbBGWXeQIcPGcB6YYLB
Ol+8QBis5UBSJo7Bcm+dQEcVnkC9S43Bg5p2QLNul8BpXJbBKWyhQNWPGEF8CavB6xwNQfD/vT9Y
xHvBYSmRQBVG/j8gUKHBKDhrQGAMUsDkiZLB96DIQP1WCkFV6ajBDIigQNWzJ8DxuY/B8ezSQFoH
CUGy7JzBZlvsQIF7qT9USILBnky2QHnOTMChiYXBZLyIQBusfUCIQ5XBtLqoQEsdOkBiU5nBb3Dl
QHM5l711NIXBJcO4QNREB0C3O5DBB6B7QEmavkD6FYrBDBy4QD+CP7/4xG7BWYD9QGU+OkBbD5DB
PxDEQEODkcDP3IbBMCtvQGQTlkDwIZ7B/YivQOZd/0DsJ5fBWVcLQbJvij4FD7HBZUijQBMbMMB0
Q6rBlRrjQGlZBkDTLanB5EJ3QCflIr8ipKLBnfDwQOuZBcAlh7DBJ4j4QHVONsDiNpLB98IPQe3R
EMCcwIjBeRrFQBxOtUB8hprBYi3iQD8Oq0B8ZY7BA48JQWuPbr5kwZHB7G7dQPltML+pXpXB8jWj
QPO73EDrPXzBZ2OEQKgzAEHyV4bB/uvuQIk7OsC0nnfBMxXZQPKV8kCCNorBpe6nQJUEjEC3NobB
OKs3QGg5pcB2RpjBUJ+PQKnnl8Cqi53BxoiKQP5hqsBe/4/B9AGbQNkgGUFfr7PBL2+FQCXoEUFZ
3abBYcGnQF7VKEGSFKjBJ00PQfNhUj+s423BXLYYQdvVmz/jJYTBeawPQYHQIUA82XbBWBOHQISM
JUBBPqjBRJJpQPl9yD8DVp3BlVJMQMnoLMCL8JjBgCVCQHPdUcA/ZIvBUhTCQJNF9EBT7qvBg2bk
QAIQEUGNJa3Bm3W2QFBjMMAphpbB9uOaQBf2xb8wcI7B35fvQCsq/kAOxJvBEwHZQGE6GUGR1pnB
hvPVQMzcyz9ysHfBATWfQPrySMCy033BDGBdQFT+W0BwGpHBm2fDQNI7WkAjbp3B7YikQGqhuz+h
1IzBAQFWQHpus0BhP4TBzZVXQJpIx0CZVJDBDVqsQC3YosDS0ojBu6VVQLetgkDVCaPB

>  <OMEGA_E>  (226) 
4qyTP2BjDz9GcRI/

>  <OMEGA_NBR>  (226) 
     34271

$$$$
50197392
     RDKit          3D

 90 93  0  0  1  0  0  0  0  0999 V2000
   12.9265    0.9628  -13.0445 C   0  0  0  0  0  0  0  0  0  0  0  0
   12.5137   -0.1193  -13.8481 C   0  0  0  0  0  0  0  0  0  0  0  0
   12.0059    1.9675  -12.6825 C   0  0  0  0  0  0  0  0  0  0  0  0
   11.1767   -0.2049  -14.2783 C   0  0  0  0  0  0  0  0  0  0  0  0
   10.6681    1.8837  -13.1124 C   0  0  0  0  0  0  0  0  0  0  0  0
    6.7855    1.1555  -21.0239 C   0  0  0  0  0  0  0  0  0  0  0  0
    5.0034   -0.4822  -20.7249 C   0  0  0  0  0  0  0  0  0  0  0  0
    7.1557   -1.1738  -21.6443 C   0  0  0  0  0  0  0  0  0  0  0  0
   10.2484    0.7840  -13.8895 C   0  0  0  0  0  0  0  0  0  0  0  0
    5.4779    0.8372  -20.5866 C   0  0  0  0  0  0  0  0  0  0  0  0
    7.6257    0.1484  -21.5338 C   0  0  0  0  0  0  0  0  0  0  0  0
    5.8386   -1.4845  -21.2590 C   0  0  0  0  0  0  0  0  0  0  0  0
    6.3294   -1.2222  -16.2133 C   0  0  0  0  0  0  0  0  0  0  0  0
    7.6491   -3.8033  -14.9773 C   0  0  0  0  0  0  0  0  0  0  0  0
    6.9792    2.0810  -17.4613 C   0  0  0  0  0  0  0  0  0  0  0  0
    7.8928   -2.2891  -17.7408 C   0  0  0  0  0  0  0  0  0  0  0  0
    6.1151    5.7452  -18.4071 C   0  0  0  0  0  0  0  0  0  0  0  0
    7.8192   -0.7921  -17.9760 C   0  0  0  0  0  0  0  0  0  0  0  0
    4.8332    7.2244  -16.9674 C   0  0  0  0  0  0  0  0  0  0  0  0
    5.9898    7.2127  -17.9726 C   0  0  2  0  0  0  0  0  0  0  0  0
    4.9503    5.0058  -17.7037 C   0  0  2  0  0  0  0  0  0  0  0  0
    6.5940   -2.5655  -16.9540 C   0  0  2  0  0  0  0  0  0  0  0  0
    7.7748   -5.1500  -14.2736 C   0  0  0  0  0  0  0  0  0  0  0  0
    2.9762   -3.0129  -18.5631 C   0  0  0  0  0  0  0  0  0  0  0  0
    5.5601   -4.4404  -18.4143 C   0  0  0  0  0  0  0  0  0  0  0  0
    8.8259    0.6964  -14.3639 C   0  0  0  0  0  0  0  0  0  0  0  0
    4.5360    1.9161  -20.0837 C   0  0  0  0  0  0  0  0  0  0  0  0
    4.0396   -2.5872  -17.5281 C   0  0  0  0  0  0  0  0  0  0  0  0
    8.7023    1.3951  -15.7202 C   0  0  0  0  0  0  0  0  0  0  0  0
    7.3012    1.1402  -16.3043 C   0  0  2  0  0  0  0  0  0  0  0  0
    4.2376    3.9550  -18.5889 C   0  0  2  0  0  0  0  0  0  0  0  0
    5.4722   -2.9356  -17.9978 C   0  0  1  0  0  0  0  0  0  0  0  0
    5.2180    2.8712  -19.0785 C   0  0  1  0  0  0  0  0  0  0  0  0
    7.1788   -0.2588  -16.7677 N   0  0  0  0  0  0  0  0  0  0  0  0
    5.6820    8.0833  -19.1338 N   0  0  0  0  0  0  0  0  0  0  0  0
    6.7231   -3.6910  -16.0063 N   0  0  0  0  0  0  0  0  0  0  0  0
    5.6775    2.0853  -17.9301 N   0  0  0  0  0  0  0  0  0  0  0  0
    4.0003    6.0626  -17.3131 N   0  0  0  0  0  0  0  0  0  0  0  0
    5.6524   -1.0777  -15.2009 O   0  0  0  0  0  0  0  0  0  0  0  0
    8.4463   -2.9107  -14.7144 O   0  0  0  0  0  0  0  0  0  0  0  0
    7.8508    2.7750  -17.9758 O   0  0  0  0  0  0  0  0  0  0  0  0
    3.6454    4.6047  -19.7142 O   0  0  0  0  0  0  0  0  0  0  0  0
    8.8805    0.4551  -21.9303 F   0  0  0  0  0  0  0  0  0  0  0  0
    5.3840   -2.7526  -21.3783 F   0  0  0  0  0  0  0  0  0  0  0  0
   13.9502    1.0224  -12.7054 H   0  0  0  0  0  0  0  0  0  0  0  0
   13.2231   -0.8821  -14.1334 H   0  0  0  0  0  0  0  0  0  0  0  0
   12.3270    2.8010  -12.0755 H   0  0  0  0  0  0  0  0  0  0  0  0
   10.8615   -1.0261  -14.9050 H   0  0  0  0  0  0  0  0  0  0  0  0
    9.9648    2.6595  -12.8479 H   0  0  0  0  0  0  0  0  0  0  0  0
    7.1396    2.1742  -20.9660 H   0  0  0  0  0  0  0  0  0  0  0  0
    3.9964   -0.7266  -20.4208 H   0  0  0  0  0  0  0  0  0  0  0  0
    7.8051   -1.9486  -22.0243 H   0  0  0  0  0  0  0  0  0  0  0  0
    7.9067   -2.8412  -18.6922 H   0  0  0  0  0  0  0  0  0  0  0  0
    8.7809   -2.5558  -17.1491 H   0  0  0  0  0  0  0  0  0  0  0  0
    6.0219    5.6582  -19.4997 H   0  0  0  0  0  0  0  0  0  0  0  0
    7.0826    5.3308  -18.0875 H   0  0  0  0  0  0  0  0  0  0  0  0
    8.8267   -0.3686  -18.1007 H   0  0  0  0  0  0  0  0  0  0  0  0
    7.2144   -0.5682  -18.8671 H   0  0  0  0  0  0  0  0  0  0  0  0
    5.2157    7.1313  -15.9403 H   0  0  0  0  0  0  0  0  0  0  0  0
    4.2531    8.1544  -17.0598 H   0  0  0  0  0  0  0  0  0  0  0  0
    6.9181    7.5378  -17.4801 H   0  0  0  0  0  0  0  0  0  0  0  0
    5.3402    4.5056  -16.8049 H   0  0  0  0  0  0  0  0  0  0  0  0
    8.6275   -5.1232  -13.5792 H   0  0  0  0  0  0  0  0  0  0  0  0
    6.8517   -5.3580  -13.7127 H   0  0  0  0  0  0  0  0  0  0  0  0
    7.9356   -5.9406  -15.0213 H   0  0  0  0  0  0  0  0  0  0  0  0
    1.9754   -2.7479  -18.1915 H   0  0  0  0  0  0  0  0  0  0  0  0
    3.1630   -2.4942  -19.5150 H   0  0  0  0  0  0  0  0  0  0  0  0
    3.0328   -4.1001  -18.7208 H   0  0  0  0  0  0  0  0  0  0  0  0
    4.7664   -4.6672  -19.1413 H   0  0  0  0  0  0  0  0  0  0  0  0
    6.5417   -4.6379  -18.8697 H   0  0  0  0  0  0  0  0  0  0  0  0
    5.4344   -5.0749  -17.5246 H   0  0  0  0  0  0  0  0  0  0  0  0
    8.5371   -0.3600  -14.4669 H   0  0  0  0  0  0  0  0  0  0  0  0
    8.1644    1.1881  -13.6354 H   0  0  0  0  0  0  0  0  0  0  0  0
    4.1801    2.5032  -20.9431 H   0  0  0  0  0  0  0  0  0  0  0  0
    3.6797    1.4348  -19.5885 H   0  0  0  0  0  0  0  0  0  0  0  0
    3.9704   -1.5003  -17.3732 H   0  0  0  0  0  0  0  0  0  0  0  0
    3.8402   -3.1062  -16.5790 H   0  0  0  0  0  0  0  0  0  0  0  0
    8.8540    2.4768  -15.5903 H   0  0  0  0  0  0  0  0  0  0  0  0
    9.4637    0.9980  -16.4076 H   0  0  0  0  0  0  0  0  0  0  0  0
    6.5641    1.3139  -15.5065 H   0  0  0  0  0  0  0  0  0  0  0  0
    3.4572    3.4684  -17.9853 H   0  0  0  0  0  0  0  0  0  0  0  0
    5.6702   -2.3409  -18.9017 H   0  0  0  0  0  0  0  0  0  0  0  0
    6.0737    3.3570  -19.5702 H   0  0  0  0  0  0  0  0  0  0  0  0
    5.6049    9.0324  -18.8283 H   0  0  0  0  0  0  0  0  0  0  0  0
    6.4154    8.0093  -19.8095 H   0  0  0  0  0  0  0  0  0  0  0  0
    6.0791   -4.4481  -16.1166 H   0  0  0  0  0  0  0  0  0  0  0  0
    5.0072    1.5154  -17.4548 H   0  0  0  0  0  0  0  0  0  0  0  0
    3.4588    5.7726  -16.5240 H   0  0  0  0  0  0  0  0  0  0  0  0
    3.3896    6.2832  -18.0736 H   0  0  0  0  0  0  0  0  0  0  0  0
    3.2076    3.9605  -20.2582 H   0  0  0  0  0  0  0  0  0  0  0  0
  1  2  2  0
  1  3  1  0
  2  4  1  0
  3  5  2  0
  4  9  2  0
  5  9  1  0
  6 10  2  0
  6 11  1  0
  7 10  1  0
  7 12  2  0
  8 11  2  0
  8 12  1  0
  9 26  1  0
 10 27  1  0
 11 43  1  0
 12 44  1  0
 13 22  1  0
 13 34  1  0
 13 39  2  0
 14 23  1  0
 14 36  1  0
 14 40  2  0
 15 30  1  0
 15 37  1  0
 15 41  2  0
 16 18  1  0
 16 22  1  0
 17 20  1  0
 17 21  1  0
 18 34  1  0
 19 20  1  0
 19 38  1  0
 20 35  1  0
 21 31  1  0
 21 38  1  0
 22 32  1  0
 22 36  1  1
 24 28  1  0
 25 32  1  0
 26 29  1  0
 27 33  1  0
 28 32  1  0
 29 30  1  0
 30 34  1  0
 31 33  1  0
 31 42  1  0
 33 37  1  0
  1 45  1  0
  2 46  1  0
  3 47  1  0
  4 48  1  0
  5 49  1  0
  6 50  1  0
  7 51  1  0
  8 52  1  0
 16 53  1  0
 16 54  1  0
 17 55  1  0
 17 56  1  0
 18 57  1  0
 18 58  1  0
 19 59  1  0
 19 60  1  0
 20 61  1  1
 21 62  1  1
 23 63  1  0
 23 64  1  0
 23 65  1  0
 24 66  1  0
 24 67  1  0
 24 68  1  0
 25 69  1  0
 25 70  1  0
 25 71  1  0
 26 72  1  0
 26 73  1  0
 27 74  1  0
 27 75  1  0
 28 76  1  0
 28 77  1  0
 29 78  1  0
 29 79  1  0
 30 80  1  1
 31 81  1  1
 32 82  1  6
 33 83  1  6
 35 84  1  0
 35 85  1  0
 36 86  1  0
 37 87  1  0
 38 88  1  0
 38 89  1  0
 42 90  1  0
M  CHG  1  38   1
M  END
>  <OMEGA_C>  (227) 
A9NOQZx6dj8itlDBGzhIQa5g9L3QkV3BDRhAQYvV+z9a60rBm9MyQRLXUb7fc2TBZbAqQfkd8T9l
zFHBkSLZQB3okz/cMKjBAxygQLng9r6wzKXBsfvkQBM/lr+SJ63BlvkjQV62SD9SO17ByUqvQNpV
Vj9ysaTBhQX0QG//Fz4qRazBM9a6QDcEvr9dEqrBEorKQHBynL/htIHBF8X0QEppc8A5o2/B21Xf
QKMvBUDRsIvBa5H8QEWBEsA57Y3BQK/DQNHYt0DIQZPBqTb6QGbHSr/Xzo/B4amaQJEu50BWvYfB
UKy/QMHO5kD7x4/B9mieQDgvoEApoY3BaALTQPIwJMDWoYfB7sr4QLDMpMDVYGTBnno+QPLSQMBO
gZTBX+yxQL0XjsBwUJPB2jYNQeJGMj+w0mXBFSeRQCFD9T9Zq6DBiESBQCWUJcCEOYzBrjwLQTiR
sj/ThXvBV6PpQEbzkT9Ob4LBa5qHQDkffUAAtpTB8RuvQPDgO8B8+4/BCfqmQE3CN0C1oJjBd7jl
QKOEhL5TJIbBkdK1QEBVAUEJEpnBiCPXQMY5bMDnDIDBMa61QDl1BUDmcI/B0QKAQHcAwkAqgYrB
1+C0QM7wib/FNnPB3yMHQbBIOsBDbmvBrzn7QDWaMUCFzo/B+E1pQAFak0DEtp3BuhYOQcAD6T5E
ca/BUkmsQAcqMMDPBqvB3jNfQRvfgj8mSUvBtZFTQT3QYb9VImLBSztFQQpEM0AWNUHB1sgtQVVY
g7+uem7B728fQRA2KkAJkU3BsHfkQJMlC0B3uqfBV8R/QHn/Ob/GXaPBVsP5QIRr+b/YMbDB4gP9
QJnVNcCZiZXBbn4MQTmSI8BcMYnBvrPAQFUQtUBn/5vBEKXiQI6VqkA2s5DBFDoNQXC2vL5EzpDB
eNzmQK92Eb/o75bBC+emQNYz5EBwC3/BCRmIQHt4AkFyeojB1WDdQMU18UA614vBFeOqQLwtkEB6
cIbBGgoKQZXxo8CNRFnB70DbQAR1q8BhZ1vBcfD9QLgZvsBEV3DBKtn8P2DeL8A7iJHB2G1KQDqg
H8C+HpzB7xhCQKAzg8AlxJXBR4aYQFNZlcBwIZnBs1XRQJ1plMA39ZbBYOatQKllosBPMozB2pcI
QfRSuL5feGfBXaECQRMSmD/MKlrBZMOFQPYzIECJi6fB/IBrQGmotz9OtZzBzxp+QLgKwL9V/IrB
5sV1QGPMRsC8oYTB6qkNQZGDHkDNcXnBXGsXQRl8fz/YQoPBJQ3SQFItqD+lGnjBZ0NdQOH6XUDy
4Y/BrHK1QH/QFcCqNpfBDFzCQNLYVkDGj5zBeVuzQKaEEEFhoJbB9krNQOclAEHfeZ7BZYjCQOhW
jsDW7oDBvzqgQLT5wT95o4vBRl1dQBq5uEAZMYTBXO9YQJ0PyUCklpDBCEpNQHh5fUDMEKLBc35O
QXu4gj+YulDB+Vc/QThgAEDsJUvBFWZIQbRrm70WhF3B8QcqQdqG8T8eKVLBOhszQQGmR74clGTB
RPDYQDi2kj+WUKjBE1mfQD798L4O3aXBfQHkQFN3mL//Ka3Bt9cjQVsgRj+Ajl7BzfOuQOo1WD+G
1KTByIHzQCCsAT4XVqzBMry5QH0Yvr9rFKrB7J3KQO7Vnb+krYHB5Ir1QOeHdsAzUXDBAyffQFcU
BUADx4vBqT38QAyPE8A47o3B4m/EQPqYt0BO9JLBa+X5QKwRT79k54/B9ICaQDJ450CP0IfBA7y/
QNDU5kCZxo/BxoOeQMYkoEA0iI3BBrDSQHrXJMAsnofBE1f2QIjxpMAvpmPBmGU9QITXPMC+hJTB
xEqwQEgvjsDxLJPB1jQNQZ+AJz8IWmbBKieRQKzT9z9t3KDBGwSBQAfZIsBTQYzB7BgLQauwsD87
ynvBW1npQATkkD94kYLBy92HQH10fUCnuZTBtJeuQCi7O8Bm9o/BBB6nQMImOEDdvZjBPiHlQB7o
h74UTYbBT8O1QP/RAEGoP5nBOIzWQKn1bMBnCIDB8q+1QODMBEAxpI/BJQeAQDwkwkDujIrB5b+1
QMqMi7+B5XLBe/MGQdBlPMChV2vB+Nr6QH0rM0BnrY/BO9tpQIbbk0ADrZ3BiOQNQUhM1T7eg6/B
pLSqQDjiL8BE/6rBO85eQa/IjT8ZMkvBhRdEQfh3NkDQfkHBJhBUQTQMU78842HB5HEeQW9ZKUAf
D07BfXUuQVRYg7/8lW7BFqHkQLxPCkBS46fBShd+QFzhM7+CaqPBo4b4QEDU/L9kKbDBQa38QIdY
N8AJgpXBv1QMQfxaJMCnLonBuLLCQA0NtEDgspvBjhbjQNO9qkCyDpDB1RMNQWOBxb4E4JDBMrrm
QEmbF78EFJfBY3qmQIXS5EDNIX/B1OmHQGuVAkFnqYjBji/dQFQC8kBW2YvB+kWqQEkCkEDRSIbB
KkEHQRy8osDB5lbBda3WQCuUqsCNflzBoWb+QE6av8BzaW7BFYz7P68IKsA2k5HBjklKQN11HMAY
KpzBdzc/QB1JgcBxtZXB9cSWQLkQlcCR/JjBHZLPQHtilcDUyZbBxb2rQH4cosDaAozBgBsJQa2o
0L7abWjBI0wCQRTxjT9lnFrBiVaGQHz8IUBtwKfBDLdqQCW3uz+s+5zBVWF/QKk9ur92FovBPU90
QDI7Q8DOoYTBwHQNQUhtHUDxWnnBG0QXQYQrgD+ee4PBvNHRQEhCpz8+WXjBZbJdQBb1XUC98o/B
Am61QH2SFsAePZfBpJDCQGZaV0AIopzBr9iyQH8aEEH9/pbB/WXNQLgL/0BDmp7ByrDAQCC7jcCD
oIDB006gQO1Yvj8v/ovBjPZcQO8ZuUDyQITBZmRZQK70yECfsZDBEQ5OQOnKfkD3F6LB

>  <OMEGA_E>  (227) 
cBHWPigH1T4=

>  <OMEGA_NBR>  (227) 
     37397

$$$$
50197395
     RDKit          3D

 76 78  0  0  1  0  0  0  0  0999 V2000
    6.6054    1.2720  -21.1922 C   0  0  0  0  0  0  0  0  0  0  0  0
    4.9972   -0.4802  -20.6486 C   0  0  0  0  0  0  0  0  0  0  0  0
    7.0926   -1.0422  -21.7674 C   0  0  0  0  0  0  0  0  0  0  0  0
    5.3845    0.8741  -20.6039 C   0  0  0  0  0  0  0  0  0  0  0  0
    7.4630    0.3131  -21.7550 C   0  0  0  0  0  0  0  0  0  0  0  0
    5.8533   -1.4349  -21.2344 C   0  0  0  0  0  0  0  0  0  0  0  0
    6.3277   -1.1798  -16.1756 C   0  0  0  0  0  0  0  0  0  0  0  0
    7.5927   -3.7190  -14.9139 C   0  0  0  0  0  0  0  0  0  0  0  0
    7.0039    2.0363  -17.4917 C   0  0  0  0  0  0  0  0  0  0  0  0
    7.7955   -2.3164  -17.7527 C   0  0  0  0  0  0  0  0  0  0  0  0
    6.1432    5.5974  -18.1121 C   0  0  0  0  0  0  0  0  0  0  0  0
    7.8115   -0.8152  -17.9603 C   0  0  0  0  0  0  0  0  0  0  0  0
    4.6739    7.3221  -17.4365 C   0  0  0  0  0  0  0  0  0  0  0  0
    6.1394    6.9233  -17.3835 C   0  0  1  0  0  0  0  0  0  0  0  0
    4.8486    4.9363  -17.6019 C   0  0  2  0  0  0  0  0  0  0  0  0
    6.5171   -2.5287  -16.9130 C   0  0  2  0  0  0  0  0  0  0  0  0
    7.6809   -5.0364  -14.1497 C   0  0  0  0  0  0  0  0  0  0  0  0
    4.1707   -4.7995  -19.1978 C   0  0  0  0  0  0  0  0  0  0  0  0
    8.7663    1.3699  -15.7300 C   0  0  0  0  0  0  0  0  0  0  0  0
    3.9290   -2.5329  -17.2776 C   0  0  0  0  0  0  0  0  0  0  0  0
    4.4479    1.9041  -20.0219 C   0  0  0  0  0  0  0  0  0  0  0  0
    5.3861   -4.3567  -18.3697 C   0  0  0  0  0  0  0  0  0  0  0  0
    7.3517    1.1328  -16.3003 C   0  0  2  0  0  0  0  0  0  0  0  0
    4.1978    3.9633  -18.6020 C   0  0  2  0  0  0  0  0  0  0  0  0
    5.3158   -2.8594  -17.8852 C   0  0  2  0  0  0  0  0  0  0  0  0
    5.1764    2.8653  -19.0520 C   0  0  1  0  0  0  0  0  0  0  0  0
    7.2212   -0.2657  -16.7307 N   0  0  0  0  0  0  0  0  0  0  0  0
    6.6576   -3.6286  -15.9369 N   0  0  0  0  0  0  0  0  0  0  0  0
    5.6683    2.1103  -17.8828 N   0  0  0  0  0  0  0  0  0  0  0  0
    3.9129    6.0550  -17.3025 N   0  0  0  0  0  0  0  0  0  0  0  0
    5.6688   -1.0031  -15.1560 O   0  0  0  0  0  0  0  0  0  0  0  0
    8.4236   -2.8413  -14.7064 O   0  0  0  0  0  0  0  0  0  0  0  0
    7.8941    2.5684  -18.1470 O   0  0  0  0  0  0  0  0  0  0  0  0
    6.5106    6.7390  -16.0195 O   0  0  0  0  0  0  0  0  0  0  0  0
    3.7524    4.6910  -19.7497 O   0  0  0  0  0  0  0  0  0  0  0  0
    8.6355    0.6979  -22.3027 F   0  0  0  0  0  0  0  0  0  0  0  0
    5.4923   -2.7326  -21.2893 F   0  0  0  0  0  0  0  0  0  0  0  0
    6.8800    2.3163  -21.2093 H   0  0  0  0  0  0  0  0  0  0  0  0
    4.0473   -0.7858  -20.2353 H   0  0  0  0  0  0  0  0  0  0  0  0
    7.7596   -1.7812  -22.1861 H   0  0  0  0  0  0  0  0  0  0  0  0
    7.7324   -2.8491  -18.7130 H   0  0  0  0  0  0  0  0  0  0  0  0
    8.6894   -2.6508  -17.2059 H   0  0  0  0  0  0  0  0  0  0  0  0
    6.1133    5.7421  -19.2021 H   0  0  0  0  0  0  0  0  0  0  0  0
    7.0271    4.9993  -17.8458 H   0  0  0  0  0  0  0  0  0  0  0  0
    8.8414   -0.4522  -18.0927 H   0  0  0  0  0  0  0  0  0  0  0  0
    7.2092   -0.5379  -18.8380 H   0  0  0  0  0  0  0  0  0  0  0  0
    4.4314    8.0055  -16.6095 H   0  0  0  0  0  0  0  0  0  0  0  0
    4.4427    7.8098  -18.3950 H   0  0  0  0  0  0  0  0  0  0  0  0
    6.7710    7.6627  -17.8978 H   0  0  0  0  0  0  0  0  0  0  0  0
    5.0735    4.3904  -16.6738 H   0  0  0  0  0  0  0  0  0  0  0  0
    8.5444   -5.0088  -13.4688 H   0  0  0  0  0  0  0  0  0  0  0  0
    6.7595   -5.1847  -13.5674 H   0  0  0  0  0  0  0  0  0  0  0  0
    7.8021   -5.8658  -14.8619 H   0  0  0  0  0  0  0  0  0  0  0  0
    4.2937   -5.8508  -19.4972 H   0  0  0  0  0  0  0  0  0  0  0  0
    3.2576   -4.6949  -18.5933 H   0  0  0  0  0  0  0  0  0  0  0  0
    4.0899   -4.1696  -20.0960 H   0  0  0  0  0  0  0  0  0  0  0  0
    8.9400    0.6888  -14.8839 H   0  0  0  0  0  0  0  0  0  0  0  0
    9.5143    1.1789  -16.5137 H   0  0  0  0  0  0  0  0  0  0  0  0
    8.8532    2.4112  -15.3862 H   0  0  0  0  0  0  0  0  0  0  0  0
    3.1416   -2.7857  -18.0029 H   0  0  0  0  0  0  0  0  0  0  0  0
    3.7837   -3.1205  -16.3591 H   0  0  0  0  0  0  0  0  0  0  0  0
    3.8768   -1.4604  -17.0388 H   0  0  0  0  0  0  0  0  0  0  0  0
    4.0109    2.4914  -20.8430 H   0  0  0  0  0  0  0  0  0  0  0  0
    3.6464    1.3866  -19.4743 H   0  0  0  0  0  0  0  0  0  0  0  0
    5.4564   -5.0047  -17.4837 H   0  0  0  0  0  0  0  0  0  0  0  0
    6.2887   -4.4793  -18.9863 H   0  0  0  0  0  0  0  0  0  0  0  0
    6.6246    1.3292  -15.4986 H   0  0  0  0  0  0  0  0  0  0  0  0
    3.3399    3.4825  -18.1092 H   0  0  0  0  0  0  0  0  0  0  0  0
    5.4403   -2.2264  -18.7761 H   0  0  0  0  0  0  0  0  0  0  0  0
    6.0218    3.3315  -19.5793 H   0  0  0  0  0  0  0  0  0  0  0  0
    6.0118   -4.3875  -16.0216 H   0  0  0  0  0  0  0  0  0  0  0  0
    4.9952    1.6168  -17.3320 H   0  0  0  0  0  0  0  0  0  0  0  0
    3.5608    5.9653  -16.3708 H   0  0  0  0  0  0  0  0  0  0  0  0
    3.1505    6.0447  -17.9494 H   0  0  0  0  0  0  0  0  0  0  0  0
    6.5045    7.5775  -15.5731 H   0  0  0  0  0  0  0  0  0  0  0  0
    3.3503    4.0925  -20.3683 H   0  0  0  0  0  0  0  0  0  0  0  0
  1  4  2  0
  1  5  1  0
  2  4  1  0
  2  6  2  0
  3  5  2  0
  3  6  1  0
  4 21  1  0
  5 36  1  0
  6 37  1  0
  7 16  1  0
  7 27  1  0
  7 31  2  0
  8 17  1  0
  8 28  1  0
  8 32  2  0
  9 23  1  0
  9 29  1  0
  9 33  2  0
 10 12  1  0
 10 16  1  0
 11 14  1  0
 11 15  1  0
 12 27  1  0
 13 14  1  0
 13 30  1  0
 14 34  1  0
 15 24  1  0
 15 30  1  0
 16 25  1  0
 16 28  1  1
 18 22  1  0
 19 23  1  0
 20 25  1  0
 21 26  1  0
 22 25  1  0
 23 27  1  0
 24 26  1  0
 24 35  1  0
 26 29  1  0
  1 38  1  0
  2 39  1  0
  3 40  1  0
 10 41  1  0
 10 42  1  0
 11 43  1  0
 11 44  1  0
 12 45  1  0
 12 46  1  0
 13 47  1  0
 13 48  1  0
 14 49  1  6
 15 50  1  1
 17 51  1  0
 17 52  1  0
 17 53  1  0
 18 54  1  0
 18 55  1  0
 18 56  1  0
 19 57  1  0
 19 58  1  0
 19 59  1  0
 20 60  1  0
 20 61  1  0
 20 62  1  0
 21 63  1  0
 21 64  1  0
 22 65  1  0
 22 66  1  0
 23 67  1  1
 24 68  1  1
 25 69  1  6
 26 70  1  6
 28 71  1  0
 29 72  1  0
 30 73  1  0
 30 74  1  0
 34 75  1  0
 35 76  1  0
M  CHG  1  30   1
M  END
>  <OMEGA_C>  (228) 
I1/TQIzPoj+rianB+uifQDDa9b5JMKXBQvbiQPVmhb+sI67B5U2sQE3GXz+01KTBzdDuQNhRoD5U
Cq7BGU67QFGpt78M4KnBUXzKQFkCl7+mZ4HBDvfyQOcDbsA0n27Bpx/gQH5SAkAA74vBfHT5QFE/
FMB0BY7B2pTEQKEds0Ce5ZDBkvf5QOOwUL+tro/BsZCVQHZO6kAFfovBU3bEQFGL3UBuEYvB6yeb
QEr2nUDD0IzB7ovQQI/WIcC+TYfBzcn1QMkpocAzZWLBKHaFQDOVmcARlZnB+EIMQX9Yrz86rnvB
MHV7QIMaIsCEOIrBF1WOQGW48z/cLKDB3VqsQLVpi8A89ZLBdkHrQJv/kD8cZ4LBoVSGQDKmfUDY
0JTB+RqqQOn/NsDZFI/BCqWlQHZgN0CQapjBwhPnQOIOiL6M2IXBqwrVQJ46aMCn/X7B3mK1QFoP
B0DvD4/B/mx6QNXCwUBta4rBx2a1QE5lgL8Jf3LBRccGQXzXNcB+TWvBopz8QAdgJEAlLZHBgVbQ
QIyl10D1J4DBgyZwQOEclkBq/53BNisKQbKsMj8AbLLBocCvQCPjLsCRUKrBjijcQME+FECQrKnB
3IOBQFQoSb/c4aHBrE74QOX+478vfbHB0W/3QBpXNsA6tJXB4QcLQeymKcCbpYnBDKDDQJG/t0D8
nZnBYN7gQJL6n0AbxI7BRHYNQUCI577qvZDBGbLmQJazCb9ItJbBrc2NQKcWAEEq4ITBfiqOQLPp
+UD8KJPBs6vYQJw09UCdLo/BR1qiQN59jEAGZIXBw7UIQb1HoMA+gFfBBU7YQErppcATFFnBsKr5
QN20u8CDym3B0WWJQFw5u8BP+pvBiXxQQPk8lsAhv5TBjuCCQB5thcCGxKDBVwoPQQVWMD9jJG7B
YjoYQcbnlj8gHITBlqYNQYFQGkD3LXbBYxBJQB5IMsD8BZDBFyhyQJ62R8CK34LBXR14QIntur9x
T4jBWlmAQItyH0BgvqbBTV9pQFJ7sT9Uy5vBIJuuQHEmoMCX3ovBaj3JQJZWj8D845fBFv3TQM0i
qj9b+nfBpsFVQIPgXkCZ35DB/BauQKx8DsCENZbBPrLAQBg3VUBhopzBEGHAQAtmjMA+LIDBjdif
QBfzzj/9p4rBpONjQBnkvkBs94LBBKFJQIBuwUBpmI/BQCXQQDZ78kCYK3nB6mtWQPT1gkBV8qLB

>  <OMEGA_E>  (228) 
dCYnPw==

>  <OMEGA_NBR>  (228) 
     38966

$$$$
50197393
     RDKit          3D

 90 93  0  0  1  0  0  0  0  0999 V2000
   12.8462    1.0954  -12.9832 C   0  0  0  0  0  0  0  0  0  0  0  0
   12.4526   -0.0219  -13.7474 C   0  0  0  0  0  0  0  0  0  0  0  0
   11.9154    2.1107  -12.6815 C   0  0  0  0  0  0  0  0  0  0  0  0
   11.1254   -0.1298  -14.2016 C   0  0  0  0  0  0  0  0  0  0  0  0
   10.5865    2.0029  -13.1326 C   0  0  0  0  0  0  0  0  0  0  0  0
    6.7715    1.1335  -21.0882 C   0  0  0  0  0  0  0  0  0  0  0  0
    4.9913   -0.5020  -20.7682 C   0  0  0  0  0  0  0  0  0  0  0  0
    7.1548   -1.2068  -21.6544 C   0  0  0  0  0  0  0  0  0  0  0  0
   10.1869    0.8706  -13.8725 C   0  0  0  0  0  0  0  0  0  0  0  0
    5.4596    0.8223  -20.6543 C   0  0  0  0  0  0  0  0  0  0  0  0
    7.6204    0.1182  -21.5671 C   0  0  0  0  0  0  0  0  0  0  0  0
    5.8339   -1.5117  -21.2780 C   0  0  0  0  0  0  0  0  0  0  0  0
    6.3095   -1.2030  -16.2489 C   0  0  0  0  0  0  0  0  0  0  0  0
    7.6763   -3.7760  -15.0027 C   0  0  0  0  0  0  0  0  0  0  0  0
    6.9705    2.0790  -17.5148 C   0  0  0  0  0  0  0  0  0  0  0  0
    7.8911   -2.2857  -17.7493 C   0  0  0  0  0  0  0  0  0  0  0  0
    6.1153    5.8028  -18.5598 C   0  0  0  0  0  0  0  0  0  0  0  0
    7.8198   -0.7907  -17.9962 C   0  0  0  0  0  0  0  0  0  0  0  0
    4.7487    7.2961  -17.3539 C   0  0  0  0  0  0  0  0  0  0  0  0
    5.4589    7.1657  -18.6921 C   0  0  1  0  0  0  0  0  0  0  0  0
    5.0835    4.9694  -17.7503 C   0  0  2  0  0  0  0  0  0  0  0  0
    6.5866   -2.5558  -16.9669 C   0  0  2  0  0  0  0  0  0  0  0  0
    7.7111   -5.0574  -14.1780 C   0  0  0  0  0  0  0  0  0  0  0  0
    2.9907   -3.0508  -18.6104 C   0  0  0  0  0  0  0  0  0  0  0  0
    5.5838   -4.4613  -18.4080 C   0  0  0  0  0  0  0  0  0  0  0  0
    8.7768    0.7597  -14.3744 C   0  0  0  0  0  0  0  0  0  0  0  0
    4.5185    1.9096  -20.1532 C   0  0  0  0  0  0  0  0  0  0  0  0
    4.0380   -2.6093  -17.5655 C   0  0  0  0  0  0  0  0  0  0  0  0
    8.6795    1.4246  -15.7487 C   0  0  0  0  0  0  0  0  0  0  0  0
    7.2882    1.1551  -16.3457 C   0  0  2  0  0  0  0  0  0  0  0  0
    4.2829    3.9495  -18.6084 C   0  0  2  0  0  0  0  0  0  0  0  0
    5.4783   -2.9512  -18.0152 C   0  0  1  0  0  0  0  0  0  0  0  0
    5.2181    2.8441  -19.1432 C   0  0  1  0  0  0  0  0  0  0  0  0
    7.1766   -0.2499  -16.7932 N   0  0  0  0  0  0  0  0  0  0  0  0
    6.4368    8.2439  -18.9416 N   0  0  0  0  0  0  0  0  0  0  0  0
    6.7126   -3.6617  -15.9961 N   0  0  0  0  0  0  0  0  0  0  0  0
    5.6826    2.0376  -18.0148 N   0  0  0  0  0  0  0  0  0  0  0  0
    4.1503    5.9592  -17.1413 N   0  0  0  0  0  0  0  0  0  0  0  0
    5.6146   -1.0459  -15.2506 O   0  0  0  0  0  0  0  0  0  0  0  0
    8.4223   -2.8496  -14.7081 O   0  0  0  0  0  0  0  0  0  0  0  0
    7.8264    2.8129  -18.0003 O   0  0  0  0  0  0  0  0  0  0  0  0
    3.6429    4.6120  -19.6981 O   0  0  0  0  0  0  0  0  0  0  0  0
    8.8783    0.4198  -21.9586 F   0  0  0  0  0  0  0  0  0  0  0  0
    5.3820   -2.7819  -21.3842 F   0  0  0  0  0  0  0  0  0  0  0  0
   13.8630    1.1739  -12.6279 H   0  0  0  0  0  0  0  0  0  0  0  0
   13.1693   -0.7944  -13.9841 H   0  0  0  0  0  0  0  0  0  0  0  0
   12.2220    2.9707  -12.1047 H   0  0  0  0  0  0  0  0  0  0  0  0
   10.8257   -0.9768  -14.8009 H   0  0  0  0  0  0  0  0  0  0  0  0
    9.8748    2.7849  -12.9127 H   0  0  0  0  0  0  0  0  0  0  0  0
    7.1219    2.1544  -21.0515 H   0  0  0  0  0  0  0  0  0  0  0  0
    3.9837   -0.7445  -20.4641 H   0  0  0  0  0  0  0  0  0  0  0  0
    7.8102   -1.9882  -22.0097 H   0  0  0  0  0  0  0  0  0  0  0  0
    7.9100   -2.8449  -18.6964 H   0  0  0  0  0  0  0  0  0  0  0  0
    8.7758   -2.5484  -17.1507 H   0  0  0  0  0  0  0  0  0  0  0  0
    6.2907    5.3548  -19.5490 H   0  0  0  0  0  0  0  0  0  0  0  0
    7.0693    5.8786  -18.0174 H   0  0  0  0  0  0  0  0  0  0  0  0
    8.8280   -0.3688  -18.1210 H   0  0  0  0  0  0  0  0  0  0  0  0
    7.2177   -0.5726  -18.8905 H   0  0  0  0  0  0  0  0  0  0  0  0
    5.4629    7.5378  -16.5529 H   0  0  0  0  0  0  0  0  0  0  0  0
    3.9700    8.0718  -17.3972 H   0  0  0  0  0  0  0  0  0  0  0  0
    4.7140    7.1373  -19.5011 H   0  0  0  0  0  0  0  0  0  0  0  0
    5.6138    4.4242  -16.9555 H   0  0  0  0  0  0  0  0  0  0  0  0
    8.4577   -4.9580  -13.3763 H   0  0  0  0  0  0  0  0  0  0  0  0
    6.7198   -5.2356  -13.7356 H   0  0  0  0  0  0  0  0  0  0  0  0
    7.9805   -5.9037  -14.8269 H   0  0  0  0  0  0  0  0  0  0  0  0
    1.9834   -2.7903  -18.2534 H   0  0  0  0  0  0  0  0  0  0  0  0
    3.1856   -2.5382  -19.5639 H   0  0  0  0  0  0  0  0  0  0  0  0
    3.0570   -4.1387  -18.7586 H   0  0  0  0  0  0  0  0  0  0  0  0
    4.7992   -4.7063  -19.1390 H   0  0  0  0  0  0  0  0  0  0  0  0
    6.5715   -4.6566  -18.8511 H   0  0  0  0  0  0  0  0  0  0  0  0
    5.4553   -5.0835  -17.5100 H   0  0  0  0  0  0  0  0  0  0  0  0
    8.4983   -0.3012  -14.4581 H   0  0  0  0  0  0  0  0  0  0  0  0
    8.0956    1.2633  -13.6727 H   0  0  0  0  0  0  0  0  0  0  0  0
    4.1724    2.5054  -21.0106 H   0  0  0  0  0  0  0  0  0  0  0  0
    3.6549    1.4364  -19.6629 H   0  0  0  0  0  0  0  0  0  0  0  0
    3.9592   -1.5218  -17.4201 H   0  0  0  0  0  0  0  0  0  0  0  0
    3.8306   -3.1223  -16.6148 H   0  0  0  0  0  0  0  0  0  0  0  0
    8.8307    2.5091  -15.6438 H   0  0  0  0  0  0  0  0  0  0  0  0
    9.4513    1.0093  -16.4133 H   0  0  0  0  0  0  0  0  0  0  0  0
    6.5418    1.3333  -15.5575 H   0  0  0  0  0  0  0  0  0  0  0  0
    3.5269    3.4785  -17.9628 H   0  0  0  0  0  0  0  0  0  0  0  0
    5.6800   -2.3685  -18.9260 H   0  0  0  0  0  0  0  0  0  0  0  0
    6.0773    3.3191  -19.6394 H   0  0  0  0  0  0  0  0  0  0  0  0
    5.9573    9.1178  -19.0208 H   0  0  0  0  0  0  0  0  0  0  0  0
    7.0857    8.2875  -18.1820 H   0  0  0  0  0  0  0  0  0  0  0  0
    6.0396   -4.3986  -16.0602 H   0  0  0  0  0  0  0  0  0  0  0  0
    5.0289    1.4190  -17.5789 H   0  0  0  0  0  0  0  0  0  0  0  0
    4.0477    5.7794  -16.1630 H   0  0  0  0  0  0  0  0  0  0  0  0
    3.2558    5.9077  -17.5853 H   0  0  0  0  0  0  0  0  0  0  0  0
    3.1579    3.9784  -20.2136 H   0  0  0  0  0  0  0  0  0  0  0  0
  1  2  2  0
  1  3  1  0
  2  4  1  0
  3  5  2  0
  4  9  2  0
  5  9  1  0
  6 10  2  0
  6 11  1  0
  7 10  1  0
  7 12  2  0
  8 11  2  0
  8 12  1  0
  9 26  1  0
 10 27  1  0
 11 43  1  0
 12 44  1  0
 13 22  1  0
 13 34  1  0
 13 39  2  0
 14 23  1  0
 14 36  1  0
 14 40  2  0
 15 30  1  0
 15 37  1  0
 15 41  2  0
 16 18  1  0
 16 22  1  0
 17 20  1  0
 17 21  1  0
 18 34  1  0
 19 20  1  0
 19 38  1  0
 20 35  1  0
 21 31  1  0
 21 38  1  0
 22 32  1  0
 22 36  1  1
 24 28  1  0
 25 32  1  0
 26 29  1  0
 27 33  1  0
 28 32  1  0
 29 30  1  0
 30 34  1  0
 31 33  1  0
 31 42  1  0
 33 37  1  0
  1 45  1  0
  2 46  1  0
  3 47  1  0
  4 48  1  0
  5 49  1  0
  6 50  1  0
  7 51  1  0
  8 52  1  0
 16 53  1  0
 16 54  1  0
 17 55  1  0
 17 56  1  0
 18 57  1  0
 18 58  1  0
 19 59  1  0
 19 60  1  0
 20 61  1  6
 21 62  1  1
 23 63  1  0
 23 64  1  0
 23 65  1  0
 24 66  1  0
 24 67  1  0
 24 68  1  0
 25 69  1  0
 25 70  1  0
 25 71  1  0
 26 72  1  0
 26 73  1  0
 27 74  1  0
 27 75  1  0
 28 76  1  0
 28 77  1  0
 29 78  1  0
 29 79  1  0
 30 80  1  1
 31 81  1  1
 32 82  1  6
 33 83  1  6
 35 84  1  0
 35 85  1  0
 36 86  1  0
 37 87  1  0
 38 88  1  0
 38 89  1  0
 42 90  1  0
M  CHG  1  38   1
M  END
>  <OMEGA_C>  (229) 
2olNQZo2jD8Vu0/Bxz1HQZCos7yC9VvBf6U+QagVB0CL50rBnQEyQbvtBL7OOWPBWmIpQW4vAED7
HlLBBbDYQMYWkT+3tKjBXbifQM9/AL8/JabBWvTkQEh3mr87PK3BrP0iQWTiXj/m9V3Bw7SuQEKB
Uj8CPKXB7NnzQDIZ8j1ZiazBAa+6QOqAwb9POarBGefJQFr9mb+3/YHBdqT1QMupccAaC3DB/w3f
QBAOBUBEHozB5IP8QHFJEsCe/o3B6rDDQCewuUBxepTBFjz6QGxrSr8g+I/BlvWXQGt56UC81IrB
A6+uQIRN5UCEiZXBMKyiQCIFn0CIAI7BDMXSQPuSI8ApvIfB/MD2QBjWocD/2GLBz2c/QHNAQ8AF
4pTB2q6yQDfDjsCDQ5PBwm0MQX15Qj9f/WXB0ZeQQGBs9D+rOaHBFjeBQAX+JsAahozBJN8KQfBX
tj+G+nvBmTjpQMTakz8HxILBTg2JQKXEfEDt3ZTB/k2vQCHhPMALH5DBvfqmQEUFNkBfJZnBbqbl
QGvmf75xWIbBgvrNQNTmA0F9iJfBTs3WQCBZasAT8H/BiNe1QFBoAkBoHpDBd8+EQCiyvkBuIYnB
jKqzQFnfhb+RAnTBz8EGQeRfNsBnVGvBFnL6QPsFNECIAJDBTyVpQDiVk0CdlZ3Bhw0OQcbp1j4k
q6/BZDmsQDgLMsDKEqvB6s5dQeRClj/RC0rBWrVSQbpfS7/Gvl/Be41DQccfPkCorEHBFDYtQakP
er+p0GzBYf8dQUs8MkBFmk7BwObjQOjhCUB5aajBePV+QDiWPr9ztqPBgO35QDZ8/r/pE7DB+R79
QMUSNsBCkpXBf2kMQW4ZI8CYNInBFU3JQNtaq0BzZJzBtjfiQLQdvECUI5DBcD8NQS3OvL7d95DB
UPfmQDWTEr+5H5fBb9CuQFk18UBwbITBEhV+QB4mAUFhLYvB/9iWQIZk5EAvApzBLqSzQDKTjUDn
pIfBn1IHQZCnnsBXBVbBnAjXQLWJp8AtxVvBVGD/QGzrvMDtOm3B4N/9P52TMsDyBpLBd+FLQFdy
IsDmgpzBOqZDQKJwhMC1EZbBVZOZQBCalsCeHJnB9UnSQAIDlcD/zpbBFJKuQAusosBtFIzB5/gH
QSI1mr5fVGfBuIcBQVK0oT9Jw1rBQYSFQBJYIECwFajBkuppQPnatz+4TZ3BS2N9QPXIwr9OXIvB
Dyh1QGjTR8Ad64TBc0oNQW+UIED+THrBuTgXQRIxgT+BToPBzFbRQCSpqj+P63jBErlhQC6gXkDe
s4/BncK1QJiVF8CMaJfBPXnCQHFrVECDHZ3B7KG+QG7iEUGwKpjBNL7iQIuZBEHDdJHBe0TBQETB
jMBYe4DBw+ygQH2itT+KoYzBCYeBQJHwuEDTTYHBtF5QQBMMvUC9rozBXxpKQKKdfkB2taHBlXhN
Qdq+lD+pr0/BY8Y9QXGnCEAcNUvBBjpIQdSw1zwr+1vBYMAoQT98+z/MxlLB5zwzQcA+Eb6RrGPB
garYQPN+jT8ex6jB0LCeQAIu/74hU6bBuLjjQB7xnr+cRq3BKWsjQWDTUD/Vtl7BI1+uQANSUT8G
aqXBEWPzQL0SmD0RiazBfTW5QJP+wr9sVarBRRjKQJuImr+O74HBak31QFFsdMA/QHDBIGXeQOTJ
BkDK74vBIdH8QDQIEsAP6Y3BfwXEQBvBuUDWy5TBllj6QHh6Sb8D+I/BuXOYQDyO6UCJH4vB07Gu
QPAx5UAv45XBdmGjQPQRn0DVMo7B7fPSQDGDI8B+uYfBBdf1QAGvo8DjbGPBHi0/QNjrQMAGwJTB
XFmyQAkmjsBDXpPBuRUNQe8YJT92D2fBFbuQQNvR9T/1d6HBuIKBQKcgJcDIe4zBIMIKQT8EtT9x
EnzBO8zoQNZFlD/Vv4LBg4iJQH+DfEDB9JTBx3OvQG+9O8AuJpDBtk2nQEO7NUBDUZnBX9fkQO7Y
db4Ve4bBJqDNQFvwA0FlC5jB5IPWQKcSa8BqDIDBSQq2QIvRAEChZZDB56CFQN25vkCQSInBkTi0
QPFCh79LwnPB08EGQUUrOsCBOGvBGnP4QLv1O0A0Eo/Bzf5oQDpVk0ChnJ3B5QQOQSMksz4Yf6/B
2CiqQMdgMsBYIqvBNI1dQaK5pD8kr0nBOuNBQVC1QECt+EHB2k5UQdXINr8Cfl/BbrocQauSLUCK
c0/BLkAvQb8tgL+/WG3BaHTkQAusB0BBdajBH4J8QNYQOb/K8aPBE034QLIzAsAuGbDBNMT9QG8v
NsAndZXBVIIMQRpJIsBHDYnBVHPJQKU5q0AlspzBEa7iQHyAvEAMh5DBpEsNQfTUt75W05DB55/n
QDxGFL+sO5fBMJCvQEid8UB9zITB5MB+QPQcAUFFcYvBoo6WQBzo40DWSJzB2a+0QBbJjUDE3ofB
79gGQZJAocBgilbBKQPWQPk/qcAucVzBNzH+QKt+vsCACW7B9yT+P1WlL8Co0pHBUltLQJtYIMC+
ZpzBP7tCQBNNg8Bf7JXBFzaZQFeSlcD3PZnBCuvRQKSjlMAN6JbB+fatQMoyosAEOIzBYecJQexm
2L7g3WnBFpkBQd6JhD/QR1vBKUyGQIKMIUDEWKjBPlFpQNMluz8XoZ3BtZh+QA7xvr+XVYvBovh1
QBO6RcA424TB4MsMQa1hH0CqDHnBbgUXQWVsiT/kuoPBzTHRQIjfqT9buXjBT1RjQClaXkBhs4/B
5wu2QCQdFsDeZpfBW+HCQNwlVECpP53BoQe+QJnZEUEDsZjBp6fiQNHRBEHYB5LBV47AQKOzjMDc
nYDBabqhQMSbqz/DWI3B8syCQO8suUC+b4HBBaVRQOrTvEAhvIzB7alJQLbzfUAtraHB

>  <OMEGA_E>  (229) 
5CrpPhxV6j4=

>  <OMEGA_NBR>  (229) 
     42093

$$$$
50197398
     RDKit          3D

 69 71  0  0  1  0  0  0  0  0999 V2000
    6.8215    1.1589  -21.1918 C   0  0  0  0  0  0  0  0  0  0  0  0
    5.0922   -0.3647  -20.3804 C   0  0  0  0  0  0  0  0  0  0  0  0
    7.2389   -1.2435  -21.1351 C   0  0  0  0  0  0  0  0  0  0  0  0
    5.5263    0.9449  -20.6752 C   0  0  0  0  0  0  0  0  0  0  0  0
    7.6761    0.0663  -21.4218 C   0  0  0  0  0  0  0  0  0  0  0  0
    5.9517   -1.4569  -20.5988 C   0  0  0  0  0  0  0  0  0  0  0  0
    8.7651    0.2456  -15.0042 C   0  0  0  0  0  0  0  0  0  0  0  0
    6.9949    1.7004  -17.9069 C   0  0  0  0  0  0  0  0  0  0  0  0
    8.3084    2.4313  -14.0612 C   0  0  0  0  0  0  0  0  0  0  0  0
    6.0458    5.8923  -18.3497 C   0  0  0  0  0  0  0  0  0  0  0  0
    7.2469    1.9970  -15.0157 C   0  0  0  0  0  0  0  0  0  0  0  0
    4.3570    7.3351  -17.4387 C   0  0  0  0  0  0  0  0  0  0  0  0
    8.9914    1.1140  -13.7390 C   0  0  2  0  0  0  0  0  0  0  0  0
    5.8535    7.2649  -17.7202 C   0  0  1  0  0  0  0  0  0  0  0  0
    4.9416    5.0190  -17.7109 C   0  0  2  0  0  0  0  0  0  0  0  0
   13.4525   -0.7910  -12.5841 C   0  0  0  0  0  0  0  0  0  0  0  0
    6.1047   -0.4247  -16.7147 C   0  0  0  0  0  0  0  0  0  0  0  0
    4.6454    2.1274  -20.3344 C   0  0  0  0  0  0  0  0  0  0  0  0
   10.4570    1.4133  -13.4277 C   0  0  0  0  0  0  0  0  0  0  0  0
   12.6588    0.5038  -12.7505 C   0  0  0  0  0  0  0  0  0  0  0  0
   11.1944    0.1541  -12.9933 C   0  0  0  0  0  0  0  0  0  0  0  0
    7.3280    0.4607  -17.0575 C   0  0  2  0  0  0  0  0  0  0  0  0
    4.2790    4.0330  -18.7005 C   0  0  2  0  0  0  0  0  0  0  0  0
    5.2803    2.9817  -19.2100 C   0  0  1  0  0  0  0  0  0  0  0  0
    7.9239    0.9799  -15.8342 N   0  0  0  0  0  0  0  0  0  0  0  0
    5.6750    2.0846  -18.1091 N   0  0  0  0  0  0  0  0  0  0  0  0
    3.9071    5.9480  -17.1872 N   0  0  0  0  0  0  0  0  0  0  0  0
    9.1739   -0.8902  -15.2214 O   0  0  0  0  0  0  0  0  0  0  0  0
    7.9080    2.4517  -18.2357 O   0  0  0  0  0  0  0  0  0  0  0  0
    6.5656    7.3581  -16.4933 O   0  0  0  0  0  0  0  0  0  0  0  0
    3.7391    4.7547  -19.8115 O   0  0  0  0  0  0  0  0  0  0  0  0
    8.9223    0.2793  -21.9010 F   0  0  0  0  0  0  0  0  0  0  0  0
    5.5561   -2.7027  -20.2492 F   0  0  0  0  0  0  0  0  0  0  0  0
    7.1567    2.1620  -21.4106 H   0  0  0  0  0  0  0  0  0  0  0  0
    4.0999   -0.5288  -19.9869 H   0  0  0  0  0  0  0  0  0  0  0  0
    7.8900   -2.0837  -21.3263 H   0  0  0  0  0  0  0  0  0  0  0  0
    9.0058    3.1396  -14.5324 H   0  0  0  0  0  0  0  0  0  0  0  0
    7.8743    2.8887  -13.1599 H   0  0  0  0  0  0  0  0  0  0  0  0
    5.9191    5.9433  -19.4412 H   0  0  0  0  0  0  0  0  0  0  0  0
    7.0432    5.4924  -18.1146 H   0  0  0  0  0  0  0  0  0  0  0  0
    6.3885    1.5649  -14.4806 H   0  0  0  0  0  0  0  0  0  0  0  0
    6.9061    2.8391  -15.6360 H   0  0  0  0  0  0  0  0  0  0  0  0
    4.1663    7.9618  -16.5551 H   0  0  0  0  0  0  0  0  0  0  0  0
    3.8271    7.7542  -18.3068 H   0  0  0  0  0  0  0  0  0  0  0  0
    8.5105    0.6391  -12.8711 H   0  0  0  0  0  0  0  0  0  0  0  0
    6.1477    8.0551  -18.4266 H   0  0  0  0  0  0  0  0  0  0  0  0
    5.3787    4.4468  -16.8793 H   0  0  0  0  0  0  0  0  0  0  0  0
   14.5118   -0.5523  -12.4081 H   0  0  0  0  0  0  0  0  0  0  0  0
   13.0568   -1.3559  -11.7271 H   0  0  0  0  0  0  0  0  0  0  0  0
   13.3602   -1.3975  -13.4971 H   0  0  0  0  0  0  0  0  0  0  0  0
    6.4309   -1.2832  -16.1092 H   0  0  0  0  0  0  0  0  0  0  0  0
    5.3715    0.1669  -16.1468 H   0  0  0  0  0  0  0  0  0  0  0  0
    5.6422   -0.7868  -17.6448 H   0  0  0  0  0  0  0  0  0  0  0  0
    4.5162    2.7509  -21.2314 H   0  0  0  0  0  0  0  0  0  0  0  0
    3.6643    1.7609  -19.9982 H   0  0  0  0  0  0  0  0  0  0  0  0
   10.9398    1.8194  -14.3288 H   0  0  0  0  0  0  0  0  0  0  0  0
   10.5076    2.1564  -12.6181 H   0  0  0  0  0  0  0  0  0  0  0  0
   12.7475    1.1118  -11.8381 H   0  0  0  0  0  0  0  0  0  0  0  0
   13.0508    1.0703  -13.6081 H   0  0  0  0  0  0  0  0  0  0  0  0
   10.7482   -0.2349  -12.0662 H   0  0  0  0  0  0  0  0  0  0  0  0
   11.1220   -0.6082  -13.7830 H   0  0  0  0  0  0  0  0  0  0  0  0
    8.0633   -0.1516  -17.5999 H   0  0  0  0  0  0  0  0  0  0  0  0
    3.4695    3.5090  -18.1712 H   0  0  0  0  0  0  0  0  0  0  0  0
    6.1668    3.4954  -19.6103 H   0  0  0  0  0  0  0  0  0  0  0  0
    4.9704    1.7415  -17.4879 H   0  0  0  0  0  0  0  0  0  0  0  0
    3.7895    5.8037  -16.2047 H   0  0  0  0  0  0  0  0  0  0  0  0
    3.0383    5.7844  -17.6546 H   0  0  0  0  0  0  0  0  0  0  0  0
    6.4344    8.2197  -16.1152 H   0  0  0  0  0  0  0  0  0  0  0  0
    3.3328    4.1464  -20.4176 H   0  0  0  0  0  0  0  0  0  0  0  0
  1  4  2  0
  1  5  1  0
  2  4  1  0
  2  6  2  0
  3  5  2  0
  3  6  1  0
  4 18  1  0
  5 32  1  0
  6 33  1  0
  7 13  1  0
  7 25  1  0
  7 28  2  0
  8 22  1  0
  8 26  1  0
  8 29  2  0
  9 11  1  0
  9 13  1  0
 10 14  1  0
 10 15  1  0
 11 25  1  0
 12 14  1  0
 12 27  1  0
 13 19  1  0
 14 30  1  0
 15 23  1  0
 15 27  1  0
 16 20  1  0
 17 22  1  0
 18 24  1  0
 19 21  1  0
 20 21  1  0
 22 25  1  0
 23 24  1  0
 23 31  1  0
 24 26  1  0
  1 34  1  0
  2 35  1  0
  3 36  1  0
  9 37  1  0
  9 38  1  0
 10 39  1  0
 10 40  1  0
 11 41  1  0
 11 42  1  0
 12 43  1  0
 12 44  1  0
 13 45  1  1
 14 46  1  6
 15 47  1  1
 16 48  1  0
 16 49  1  0
 16 50  1  0
 17 51  1  0
 17 52  1  0
 17 53  1  0
 18 54  1  0
 18 55  1  0
 19 56  1  0
 19 57  1  0
 20 58  1  0
 20 59  1  0
 21 60  1  0
 21 61  1  0
 22 62  1  6
 23 63  1  1
 24 64  1  6
 26 65  1  0
 27 66  1  0
 27 67  1  0
 30 68  1  0
 31 69  1  0
M  CHG  1  27   1
M  END
>  <OMEGA_C>  (230) 
+UnaQD5WlD/IiKnBN/OiQOK1ur4CC6PB96TnQDUrn7+yFKnBJdewQA3ocT/AZqXB2aL1QCDhhz3q
X6vBs3S+QNp8ur9oyqTBrj0MQRyLez5WEXDBSdbfQPql2T9gQY/BSu8EQVKaG0C5+mDBOXfBQKWN
vEAizJLBTebnQGqe/z9/QHDBkWyLQAu56kCMgovB0NwPQViXjj/T0lvBNVC7QMN56ED+wo3B3SGe
QL+boEDUr43BiD1XQVV/Sr9mWEnBbVnDQNl12b68t4XBZqeUQIknCEDSrKLB6E8nQQTotD+111bB
fopKQfH7AD8pAkzBUBwzQUjRHT6O5E/BuX7qQA7n6z6sdYjBT+2IQJYOgUCOmpXBD/ioQILUPkAc
rpnBt5D9QPXZej8AWX3BUZm1QMlpBUBm35DBWg56QKVVvkByf4nBVMgSQRLkY7/winPBPQ79QDnp
HECy4pHBTRnSQL5160A+8oPBNk5vQNwmmED4fZ7BisEOQWoDjz5CNa/BS8uxQK34LMBk/qHBigPl
QNJdCkDjSKvBSTKDQPlfB7895Z/Bn3r8QKRbBcApnKrBkBcQQbDvSECVhGjBbfr7QA7hOEAWj1LB
YGm9QHkvvkCBh5vB/2HhQK7Br0C26pDBUW7MQBpNyD+GsGfBmv7cQHq0NUAELXrBCFKFQAfH/kDP
cITBj+50QEoi+EBSdJLBACsIQUaaIz8W8E3B07nEQNPhAEGiaZPBeB6sQOBLjkDNCIfBWjBoQc1l
Db+5h0bBzOhQQcONrb9kojvBYMNVQezfsr9S9FfByMnNQPE+pL+g34DBlOOrQLXqKj69LIHB5Iy0
QK5tSb9+KI3B0oSQQHIOMEDa2anBEIRqQIRk4T85/J/BfgkvQU7h6D+1QmXBQR8oQfUBCkDl40nB
qvVLQcBQjj/0aD3BPtBQQZf+iD/julnBlvgrQR19cL7+DkHBmvMxQSSyG782h1zBVwMBQUBEG76h
zIzBUQxeQFqTYECRXpHBd1bFQJ+0X0DY4ZzBRw2fQGHq3j8654vBeoZyQMO3uUBAo4HBinNCQOcZ
uUCKPI3B9+bNQAaEA0H564DBxkxVQGSvhEAzV6PBcOTZQD4AkT+RrKnB8CqhQFCss74LVaPBomLk
QGJppL8e1anB/muwQPXGcj/ceaXBuNDzQGABiDxG36vBv0S7QLyeu795Z6XBUSIRQeg+Hr523XPB
viXgQDZB4z+fHY7B1LATQcCb/D/pt2HBDI/CQHt1ukBwHpLBdtH/QBIf8T8FHG/BbE2MQAA76kD5
HozB/r8ZQSWmAz8MK1/B7LO8QA4D5kAk74zBYG2dQNCpn0D7cY3Bng9OQbyCPsCtt2PBAJ7CQDx3
O75YB4PBjjSVQB0rCUB1qqLBJSIyQfIv5D5unVvBiQxHQfO5xb/e8GjBZOI5QXLWeL+mS1bBDvzq
QKIk9z6r0ofBoCWJQJ6LgECKjJXBFKCpQM9bPkDsjZnBZaUEQWPOTj/ycH7Blty1QPWvBEBltJDB
Eqt4QJahvkAiyonBnvUSQWjdqr9z5XjB0i39QETUIUDi1pDBeFfOQAQO5kDzb4LBAv1wQGoamEDE
b57BWOMNQeSZST7owa/BhlutQCoELcDew6LBs7jlQGlKCEC/MqvB222BQAew+r4aGaDBchD4QI4b
CcCXqavBBlogQRBtIkCT9WnBWlcQQVI2HEBDJFLBWQPAQIHDvEB+4JrBErbhQJODrECB94/BjOLj
QPdN0D98N2XBfdH5QMBNNUA2fHfBLJyDQFMpAEGzn4XBPNh9QKP89UAWtpPBDHoRQbZ+tD3ENVHB
XS3KQF15/0C3/ZHBJGWpQA9HjUA1kIbBGXhXQQJdWMBDHXHB++dXQW1DPsD7IFXBqtY/QVmxZsCO
J2HB3eDLQH7ei7/UT33BXuCyQFquBD9ZBHvBCmKsQCRc5b5vg4nBSL6RQEnqMUAnyqnBuvJqQOOm
5T9IE6DBijc6QdrqSD/bRmrBuF82QQh5jj9WSE7BjElVQZwga7+xg2vBOzg9QSZsxr9EinfB0edD
QZA2cL9N1kfB2/MrQaxEz78GZVPBpwD6QH9Ja761YI3BxuFdQLLtXkCKg5HBrxTGQKCIX0CaqJzB
FZaeQH3p0z85WYzBQuBuQLxPu0Bu7YHBA9JBQBV8uUDLtI3BRHnKQDu5AEGckn7BVQBYQOjfhEAa
baPBbkTZQOLbjj9DH6nBvd2gQESdBL/tvaXBVSTlQFlInr9KP63BqOavQLG1Tj+4Q6XBtvDzQIjG
vD2EAK3B4Gq7QOOUxL/AwqnBmYXTQDOGib8S/37B3gjhQMQqDEDrjIvBHZMAQWkvCcDmdIzBZSi+
QAimu0DojpTBguP9QAkXKL+YvY7BUYOOQMS550APyorBXRjaQLf8GMCZZIXBJFynQH6Y5kBMPJXB
lX2eQOjCnkAhR47BEnFKQBz6ZsB885bBbToMQYqfzT/uqnnB90ySQDy68j+BWKHBKTKyQKAaK8At
M4zB9FCMQOySkcCVMZbBQPCqQATxhcBcBY3BmEPsQJwmqD8WzoHBdBeIQFUweUDaO5XBc2+oQIqk
NUDtQJnBFKvqQMwVx70P8ITB23m4QNRDA0CGFJDBExt7QKrou0BKvInBGP66QPteZ79d8W/Binn7
QL3APUAjUI/BdGLEQFPHBEEHLpbB2CtmQHiwkEDbE57BGL8NQaAXxz6+q7DB4X2sQF/yMsDfiKrB
d2TkQKjeCED8FqnBYfCAQH7RQL98BaPBocj5QImiAcCMG7DBJWr/QPzVLsA24ZPBk3wPQV6QGMAt
MojBxCjEQNyfrkBImJzB4ancQCfAvkCWPJDBZN4OQfd8Zb4kLpDBu0XpQEBF8L7PtpXBBrSjQK2d
70CIC4TB2apoQG0z/0A+MYvB3ArgQKOfTcCne3/BWsuQQH0m5kAN/ZvBpeOvQNG5jkA2w4fBKmoh
QC0Ue8B2pZ3B88wlQBICasBQco/BxGpgQM/3JMA4TJjBPOAOQflIcD9w72vBrsUYQcvvtz8c24LB
sMwMQfbGKUCNRHTBAoGHQCtRH0CZP6jBQPhsQOgRtz8Vc53BIyOWQGoMDcA5cYjB7ci2QIJsEMAj
Q5TBo8WAQI1wssCs7ZTBjBSeQGvrj8CVx53B2ebJQLG2lcDfbI7BIzydQPBzkcB5cYXB2+fTQAYc
vz+lO3fBXYRgQCRUWEAhOpDBfjHDQBBlVkCtPp3BUtWkQO1Orz815IzBeelwQCj2tEDuB4LBfUNE
QBsTuUBFzI3BicO0QGDLEUFRk5bB4bxKQMkXd0DWU6LBh3/WQLZzgz/kyqjBP3ibQMhy976/gKTB
i1jcQAInrb9J2qzBBQ6tQJyXUD86oaTBQT3uQJCma73AzqzBfgOzQNhryL97n6jBMBjRQL51nr/j
goHBcRnaQCbhDUAbeYnBODn3QDCD1L938pHBcvjDQKQxuUCXT5TBhOcDQRJL4b5ueYzB3FKRQCUV
7EBf+43BpqveQMlCF8BbLYnBQQvBQJFM5kDx9I/BVXGgQIz9oEC1Mo7B9PvZQLUyosAHE3DBj84E
Qa64wT8q03LBk/ORQIiY/T/3FqHBYRi4QO5yR8AaAY7BFjHHQAtuqMARZoPBYZelQFXThcA+aYbB
FVXhQHzPnT/LOoDBIF2JQLutfkD0E5XBvZeoQGcrOEC0wZjBJs/kQHiboL07OIXB0Jq0QMlOBEBQ
Y4/BZiCBQAqzwUAelorBt4+3QMpnqb/QMXTBAQT3QJknPUDoeozBqDPXQAZc6UBoC4bBoMRrQCDA
k0DnGJ7B+Q0LQf1WFz55q7DBSKSiQDknNMBwF6jBkffjQCZgAUDn5KjBUcx3QMeOJb9yPaHBc0Lu
QBGWC8AkH7DBLA3iQFJasr80pZjBrs8IQYNbEsAD6JTB2PK9QOuwuEDy+pzBXJPjQDYvq0CYp5LB
kKESQb51Kb+a/ofBXQoHQTX7uj7LQpLBsuqLQGf3AUEOp4fBXTSBQLhz9kDuXJXBQ6TzQK2wRMAl
+ITBqbDMQCil/UBA3ZXB1bGuQNoRkUB6NIfB3nXxQKqVu8B/x2zBFcvpQP/OgsAfGW/BGwrAQO3D
o8CqNGTBpg0GQULXQj/AC2bB8hsTQVVSuz/wDH3BXpgDQZYCIUBBrWvB+CiKQOzrJUBAJKjBmoBo
QK7Tyz8TiZ3B6dGeQDu6GMB62Y/BonbCQBQgZ8BlbJXBaIjhQCYVp8DuOYnBbse3QBQKyMCzx4PB
442aQKL/a8AUGn7BoFWKQPiBlcCGXYrBmyvFQB3woD9t6HXBq/BgQDKFYEDhIJDByRPFQBCiVUCT
YpzBPjegQPYXrT8LFo3BV6l8QFTLwEDFnoLBnS9JQBMivEAH7o3BXCXVQCvjAkGSZIPBdUhPQAve
fUD3VqLBY7XPQNR7eT9inqnBxa6aQBIPJr++haPB63LaQAxvs79DEa3Bk92oQGXyLz95VKTBo6Do
QMeCi729363Bw2mzQLN72L8x6afBusrTQPSWh7/YjYHB6MrZQM++E0Cdm4nBN77+QF99ur/yTpHB
BGTBQDEWuUDnm5PBbmcHQaWXib6JPovBz/6PQByS6EDcnovBvO3jQHJIC8Aj+4jBKn+rQHLG40Cc
l5XBpLqeQG4tnkAN1Y3BwcbcQECdocAqBXLBU+YFQdn/6T/h5nLB8fyMQLIU6D8sOqDBETe/QDQT
PMCmdI7Bq7XLQMmopMBGmITBlDKrQAvLgMBvVofBXvLjQMjltD8X73/BLJ6HQEsRe0CyK5XBd6+l
QAfrMUC4vJjBUX/qQF1vrT0QYYTB+Gi0QN0jAkB9SI/BbVd9QKk7vUBLs4nBw0W2QA1VkL9eOnbB
rgH0QAIASEDq34zByEHJQKP/AkEwwpbB9mdtQHO5kkDIYJ7BxPoGQcx6XD621rLBCOqlQFksPsCU
EKfB6E7aQEq6/z/PZarBIrh5QNQ8X7/2iZ/Bk3jtQPXoDMCeZbDBGynrQG49k795MpjBlKwMQbuh
BcD4FZTBJNLKQNb8qUBdM5vBsMndQD0mvUBXgo7BDYoVQbdrB7+zbobBsWsLQc+XDj9Js5DBcHSj
QJw480C7yYTBX+RrQMuW/0ATAY3B2fr3QAZAOMDrbYTBhcCWQM1B4UB3rJzBNZqtQOjujEAzH4fB
F5fzQIrFu8DYFm/BxvjsQNawgsDOwW/B3OfBQDE0pMCquWbBJikIQYZrkD9Lg2XB+BcUQfQu5z9i
TX3BMaMDQSMgNkDLnGzBhMSAQOiNGEBUGqfBxvRjQFm6sD/hxJvB0x+mQHrnDcCgpJDB4MTLQM+j
WsA7vJXBu/DmQPJPosDkI4rB0d+7QE3Tw8DSn4XBMw6gQDr1Y8Cftn/BbNOPQDoHj8AGk4vBMxXI
QPgEtD8SLnXBc3daQOKKXkCBkJDBQSHBQOELTUCnFJ3BIUaiQOb2oj9gvozB0i50QKukuEDF3YHB
OsxFQAieuUANko3BDjK6QFn5D0HY+pfB+jpRQL/3fEB+0qLB

>  <OMEGA_E>  (230) 
CJWHP6jLhz/krTo/PO9cP7T8Vz8=

>  <OMEGA_NBR>  (230) 
     47859

$$$$
50197413
     RDKit          3D

 89 92  0  0  1  0  0  0  0  0999 V2000
   12.9326    0.9536  -13.0290 C   0  0  0  0  0  0  0  0  0  0  0  0
   12.4984   -0.1527  -13.7875 C   0  0  0  0  0  0  0  0  0  0  0  0
   12.0360    1.9974  -12.7219 C   0  0  0  0  0  0  0  0  0  0  0  0
   11.1644   -0.2212  -14.2294 C   0  0  0  0  0  0  0  0  0  0  0  0
   10.7004    1.9292  -13.1610 C   0  0  0  0  0  0  0  0  0  0  0  0
    6.8097    1.1289  -21.0533 C   0  0  0  0  0  0  0  0  0  0  0  0
    4.9820   -0.4608  -20.7676 C   0  0  0  0  0  0  0  0  0  0  0  0
    7.1284   -1.2152  -21.6474 C   0  0  0  0  0  0  0  0  0  0  0  0
   10.2596    0.8080  -13.8943 C   0  0  0  0  0  0  0  0  0  0  0  0
    5.4883    0.8459  -20.6345 C   0  0  0  0  0  0  0  0  0  0  0  0
    7.6318    0.0955  -21.5398 C   0  0  0  0  0  0  0  0  0  0  0  0
    5.7983   -1.4888  -21.2781 C   0  0  0  0  0  0  0  0  0  0  0  0
    6.3003   -1.1544  -16.2336 C   0  0  0  0  0  0  0  0  0  0  0  0
    7.5601   -3.7374  -14.9663 C   0  0  0  0  0  0  0  0  0  0  0  0
    7.0288    2.0987  -17.5055 C   0  0  0  0  0  0  0  0  0  0  0  0
    7.8306   -2.2820  -17.7553 C   0  0  0  0  0  0  0  0  0  0  0  0
    6.1124    5.7558  -18.4519 C   0  0  0  0  0  0  0  0  0  0  0  0
    7.8097   -0.7847  -17.9908 C   0  0  0  0  0  0  0  0  0  0  0  0
    4.5100    7.3076  -17.6248 C   0  0  0  0  0  0  0  0  0  0  0  0
    6.0028    7.1525  -17.8745 C   0  0  1  0  0  0  0  0  0  0  0  0
    5.0088    4.9661  -17.7098 C   0  0  2  0  0  0  0  0  0  0  0  0
    6.5272   -2.5125  -16.9590 C   0  0  2  0  0  0  0  0  0  0  0  0
    7.6670   -5.0754  -14.2444 C   0  0  0  0  0  0  0  0  0  0  0  0
    2.8946   -2.9118  -18.5444 C   0  0  0  0  0  0  0  0  0  0  0  0
    5.4665   -4.3729  -18.4137 C   0  0  0  0  0  0  0  0  0  0  0  0
    8.8416    0.7387  -14.3818 C   0  0  0  0  0  0  0  0  0  0  0  0
    4.5702    1.9451  -20.1415 C   0  0  0  0  0  0  0  0  0  0  0  0
    3.9652   -2.5198  -17.5031 C   0  0  0  0  0  0  0  0  0  0  0  0
    8.7461    1.4093  -15.7547 C   0  0  0  0  0  0  0  0  0  0  0  0
    7.3420    1.1731  -16.3368 C   0  0  2  0  0  0  0  0  0  0  0  0
    4.2827    3.9346  -18.5993 C   0  0  2  0  0  0  0  0  0  0  0  0
    5.3916   -2.8690  -17.9909 C   0  0  1  0  0  0  0  0  0  0  0  0
    5.2641    2.8760  -19.1259 C   0  0  1  0  0  0  0  0  0  0  0  0
    7.1937   -0.2288  -16.7806 N   0  0  0  0  0  0  0  0  0  0  0  0
    6.6336   -3.6253  -15.9951 N   0  0  0  0  0  0  0  0  0  0  0  0
    5.7350    2.0747  -17.9940 N   0  0  0  0  0  0  0  0  0  0  0  0
    4.0284    5.9686  -17.2171 N   0  0  0  0  0  0  0  0  0  0  0  0
    5.6238   -0.9787  -15.2258 O   0  0  0  0  0  0  0  0  0  0  0  0
    8.3794   -2.8583  -14.7259 O   0  0  0  0  0  0  0  0  0  0  0  0
    7.8982    2.8004  -18.0128 O   0  0  0  0  0  0  0  0  0  0  0  0
    6.6889    7.2252  -16.6307 O   0  0  0  0  0  0  0  0  0  0  0  0
    3.6548    4.5995  -19.6966 O   0  0  0  0  0  0  0  0  0  0  0  0
    8.9049    0.3627  -21.9055 F   0  0  0  0  0  0  0  0  0  0  0  0
    5.3125   -2.7460  -21.3849 F   0  0  0  0  0  0  0  0  0  0  0  0
   13.9544    1.0015  -12.6825 H   0  0  0  0  0  0  0  0  0  0  0  0
   13.1893   -0.9469  -14.0291 H   0  0  0  0  0  0  0  0  0  0  0  0
   12.3738    2.8490  -12.1499 H   0  0  0  0  0  0  0  0  0  0  0  0
   10.8337   -1.0599  -14.8240 H   0  0  0  0  0  0  0  0  0  0  0  0
   10.0151    2.7333  -12.9370 H   0  0  0  0  0  0  0  0  0  0  0  0
    7.1879    2.1391  -20.9996 H   0  0  0  0  0  0  0  0  0  0  0  0
    3.9642   -0.6758  -20.4773 H   0  0  0  0  0  0  0  0  0  0  0  0
    7.7623   -2.0095  -22.0130 H   0  0  0  0  0  0  0  0  0  0  0  0
    7.8184   -2.8344  -18.7065 H   0  0  0  0  0  0  0  0  0  0  0  0
    8.7125   -2.5802  -17.1694 H   0  0  0  0  0  0  0  0  0  0  0  0
    5.9277    5.7637  -19.5362 H   0  0  0  0  0  0  0  0  0  0  0  0
    7.1048    5.3253  -18.2521 H   0  0  0  0  0  0  0  0  0  0  0  0
    8.8312   -0.3975  -18.1197 H   0  0  0  0  0  0  0  0  0  0  0  0
    7.2099   -0.5397  -18.8797 H   0  0  0  0  0  0  0  0  0  0  0  0
    4.3295    8.0398  -16.8240 H   0  0  0  0  0  0  0  0  0  0  0  0
    4.0000    7.6350  -18.5428 H   0  0  0  0  0  0  0  0  0  0  0  0
    6.3594    7.9043  -18.5940 H   0  0  0  0  0  0  0  0  0  0  0  0
    5.4616    4.4420  -16.8552 H   0  0  0  0  0  0  0  0  0  0  0  0
    8.5288   -5.0562  -13.5612 H   0  0  0  0  0  0  0  0  0  0  0  0
    6.7470   -5.2560  -13.6691 H   0  0  0  0  0  0  0  0  0  0  0  0
    7.8020   -5.8801  -14.9822 H   0  0  0  0  0  0  0  0  0  0  0  0
    1.8972   -2.6486  -18.1625 H   0  0  0  0  0  0  0  0  0  0  0  0
    3.0817   -2.3711  -19.4839 H   0  0  0  0  0  0  0  0  0  0  0  0
    2.9423   -3.9951  -18.7291 H   0  0  0  0  0  0  0  0  0  0  0  0
    4.6636   -4.5926  -19.1328 H   0  0  0  0  0  0  0  0  0  0  0  0
    6.4419   -4.5743  -18.8806 H   0  0  0  0  0  0  0  0  0  0  0  0
    5.3469   -5.0100  -17.5250 H   0  0  0  0  0  0  0  0  0  0  0  0
    8.5323   -0.3137  -14.4644 H   0  0  0  0  0  0  0  0  0  0  0  0
    8.1828    1.2598  -13.6715 H   0  0  0  0  0  0  0  0  0  0  0  0
    4.2413    2.5443  -21.0033 H   0  0  0  0  0  0  0  0  0  0  0  0
    3.6950    1.4852  -19.6593 H   0  0  0  0  0  0  0  0  0  0  0  0
    3.9058   -1.4366  -17.3210 H   0  0  0  0  0  0  0  0  0  0  0  0
    3.7663   -3.0607  -16.5662 H   0  0  0  0  0  0  0  0  0  0  0  0
    8.9237    2.4897  -15.6495 H   0  0  0  0  0  0  0  0  0  0  0  0
    9.5009    0.9775  -16.4283 H   0  0  0  0  0  0  0  0  0  0  0  0
    6.6089    1.3692  -15.5405 H   0  0  0  0  0  0  0  0  0  0  0  0
    3.5223    3.4272  -17.9875 H   0  0  0  0  0  0  0  0  0  0  0  0
    5.5818   -2.2710  -18.8943 H   0  0  0  0  0  0  0  0  0  0  0  0
    6.1113    3.3782  -19.6158 H   0  0  0  0  0  0  0  0  0  0  0  0
    5.9745   -4.3711  -16.0921 H   0  0  0  0  0  0  0  0  0  0  0  0
    5.0774    1.4700  -17.5446 H   0  0  0  0  0  0  0  0  0  0  0  0
    3.9626    5.9192  -16.2205 H   0  0  0  0  0  0  0  0  0  0  0  0
    3.1301    5.7927  -17.6196 H   0  0  0  0  0  0  0  0  0  0  0  0
    6.6138    8.1041  -16.2780 H   0  0  0  0  0  0  0  0  0  0  0  0
    3.2093    3.9612  -20.2413 H   0  0  0  0  0  0  0  0  0  0  0  0
  1  2  2  0
  1  3  1  0
  2  4  1  0
  3  5  2  0
  4  9  2  0
  5  9  1  0
  6 10  2  0
  6 11  1  0
  7 10  1  0
  7 12  2  0
  8 11  2  0
  8 12  1  0
  9 26  1  0
 10 27  1  0
 11 43  1  0
 12 44  1  0
 13 22  1  0
 13 34  1  0
 13 38  2  0
 14 23  1  0
 14 35  1  0
 14 39  2  0
 15 30  1  0
 15 36  1  0
 15 40  2  0
 16 18  1  0
 16 22  1  0
 17 20  1  0
 17 21  1  0
 18 34  1  0
 19 20  1  0
 19 37  1  0
 20 41  1  0
 21 31  1  0
 21 37  1  0
 22 32  1  0
 22 35  1  1
 24 28  1  0
 25 32  1  0
 26 29  1  0
 27 33  1  0
 28 32  1  0
 29 30  1  0
 30 34  1  0
 31 33  1  0
 31 42  1  0
 33 36  1  0
  1 45  1  0
  2 46  1  0
  3 47  1  0
  4 48  1  0
  5 49  1  0
  6 50  1  0
  7 51  1  0
  8 52  1  0
 16 53  1  0
 16 54  1  0
 17 55  1  0
 17 56  1  0
 18 57  1  0
 18 58  1  0
 19 59  1  0
 19 60  1  0
 20 61  1  6
 21 62  1  1
 23 63  1  0
 23 64  1  0
 23 65  1  0
 24 66  1  0
 24 67  1  0
 24 68  1  0
 25 69  1  0
 25 70  1  0
 25 71  1  0
 26 72  1  0
 26 73  1  0
 27 74  1  0
 27 75  1  0
 28 76  1  0
 28 77  1  0
 29 78  1  0
 29 79  1  0
 30 80  1  1
 31 81  1  1
 32 82  1  6
 33 83  1  6
 35 84  1  0
 36 85  1  0
 37 86  1  0
 37 87  1  0
 41 88  1  0
 42 89  1  0
M  CHG  1  37   1
M  END
>  <OMEGA_C>  (231) 
/etOQTccdD/jdlDBpPlHQShRHL6JmVzBSZNAQfGq/z/WjEvBYaEyQWJ4Yr6uq2PB5TQrQUjw9j9n
k1LByOjZQDyBkD8mbajBemyfQKTv674MJKbBnhvkQF2Km7/oLa3BgickQdTaTj/rTl7BW6CvQJ2O
WD9qE6XBlTf0QKORwz12UazBRIu5QNSPvr+SOarB+JvJQJHEk79g3oHBh+zxQAsxb8DpdW/Bu+vg
QNlQBkAyC4zB/5P6QM4MEsDXCo7BA5nDQD0vuEBnnZPBXen5QMDjSL897Y/B21GQQPHX6UCX/4zB
kBbAQHHh5EDs/o7BKkigQIbqnkCdrY3BLN/QQNvMIMAgrIfB9lf1QO1posA46WPBI0E5QNpaOsD/
WpTBVO2uQB7vi8BRT5PBJ3cNQXkbPT/FG2bB1z6SQHf5+D/RIaHBQcZ9QCtEIcBvBozB2+8LQTtj
tD9fE3zBDfLqQBkplj+zsYLB5QuJQHrQe0Boy5TBDIisQOScN8BW7Y/BJXOoQCMROEDxAZnB+jLm
QKI9ar6ZPobBLkbUQE8FaMDb63/BzIS3QHbHBEDK84/BsuiAQIr+vkCkvInBT/azQCyJer/qnHPB
6BEGQYfuNsBZnWvB5738QBA5M0BIGpDBawvWQPI050CuC4XBtedpQCovk0C0kp3Bh3oOQaGyuT5+
Pq/Bmf+pQBa/L8A3FKvBHUVfQVUygD9d60rBRAdTQeFlcr88d2DB7PpFQWZVNkAWZkLB+FYtQQKs
h78NL23Bpj0gQcftLkDr/U7B/QLmQJbnCEA//6fBdrV9QCsBLb980aPBoWT4QEObAMCGGrDBaDD6
QApnNcDWppXBb2YLQY8hJcDmWonBqK+9QBtwuEAlSpzBgFrjQNdoqkBRBJLByUwNQVmLy74z9ZDB
KrfmQAonCr+lCZfBlYuKQC+jAEGOl4bBDACAQE9S9ECgV5TBfIDLQM/v/EBpwJTBdcWuQPMkjkB4
14bBDXYIQaDMocB/+ljBkefXQDgxqMCEtFrBxKn5QAgqvMDvtm/BxdbyPyKDKcC+TJHBAztFQN2/
F8AL35vBJk48QDiwf8BA1ZXBDDyVQH72ksAOEJnBECTOQLVgksCBC5fBrRmrQIVRoMAdM4zBW4QI
QfeboL4XbmfBz+wCQX9BoT+UvlrBariHQEXWIkDbBqjBt3psQOgbvj8sRp3BWPh5QL3it79TkYrB
fAtxQLnhQ8CIh4TBc8cOQcZXH0CEZHrBswMYQYo6ej85bYPBZnzTQKNBrz+4pXjBn21hQOtWW0Bg
5o/B6J2yQGZXEcCgJ5fBDZDDQGQ0WEAs7ZzBuC6/QOTfi8CpvIDBOnqiQB8pvD9LW4zBlZp9QG9q
vUCVw4HB3VJIQINduUAE9YzBcKTTQHiqAUFfOYLBqmRNQMmEfUAg7qHB4TVPQeP2cD9eAlHBLcJA
QRIl+z8TPUvB009IQXZICr7W1l3Bf1MrQY4g8z/bFFLBVeMyQVLbTL4lrGTBsmLaQAgLkz/KUajB
UTigQDLW5r7u9aXBhtPkQJq1mL9CIK3BGE4kQfrMTT+Lb17B7DiwQIblWz+Y6qTBubr0QNNP9j3m
SazBkma6QOKtvL/jGKrBtevJQHGCl7+Nw4HBDCPzQIXocMDkXm/BTM7gQLqnBEAz/YvBmlb7QD3Y
EsAl7Y3By3jEQADhtkDXfpLBIyv6QLgyTL+azI/BI+eQQBxM6kDESo3B5vjAQGeW40CV4I3ByZqe
QCXknkDFQI3Be6vRQB+AIsAWlIfBDfj2QEBpo8Bq+mPBOJE7QGApPcBzaZTBR26wQLD2jMDITJPB
FYANQZH6Oz/t6GXBIKSSQORE+j/nAKHBM3R/QOWdJMAR+4vB57ELQaROtD/0z3vBo5fqQNfLkz+b
k4LBBJSIQC1efEDGtJTBbIatQD7VOcDp3Y/BvWWoQObHOECEzpjBHlrmQFzRf772GYbBAGHVQLvX
acBoyX/BxB63QKalBUCis4/B31F+QL5OwEBqCYrBsq6zQBZtgb9jmHPBan8GQSwjOMCYYWvBpjP9
QLgzLkDzWZDBhfDRQJmj5EAYToPB6IBrQM/xk0AQlJ3B95gOQSb5yj4BZa/BqvqqQBbgLsA2/qrB
jJpfQWroez94lkvB0CFGQRytMkALkkHBCXZTQUiwaL8ga2LBWEogQRAILEAw4k3BrJ0tQTQpgr8g
rG7BvGDmQHY/CkBE36fBPIN/QA7xK7/OlKPBnSr5QGrq/b/eFrDBgTH7QLwmNsAhipXBC9ALQYdb
JcBaOonBqTLBQJdst0CaQZvBwizjQP8DqEDuUpDBBFwNQd+zzL7d15DBxdXmQEvLDr/15ZbBXwWJ
QLl7AUEDVYfBwDiEQEnc80AyJZXBXw7QQPJL+0BPLZPBIEuqQM8TjkBqGIbBvDsJQaKmosBB/1jB
ionZQF2qqcAv2FrB2aj7QLrtvMBa32/B5+f2PwUvLcAHYJHBDKlHQP6GGcBq2ZvBEzg/QFYjgcDD
BZbBA9yWQE4mlMAKE5nBUb3PQAMIk8BUBpfBHL+sQNKBocC2NozBMosIQezWor4dNmfBUhwDQQFj
oD9eYVrBFk6IQDKQI0DB6KfBPRZtQAbmvj/dN53BuhN7QJ8Hv7/cY4rBwaJyQH5DSMA1kITBvUEO
QahxH0BvC3rB7twXQbUkfj/4UoPBG+zSQBLKrD+6gXjBNBJfQJZfW0AcGZDB7nezQNcxE8BGEpfB
xqHDQIIiWUDtpJzB02nAQCbljMAVrIDB6qKhQEYqwj/R7IvBtqx1QKCfv0CoHILBs2BGQPo6u0Ct
tY3B943PQLZmAEG1gYDBBnhQQDKDf0B8JaLBCOtNQbeDjz9ZbVDB6ARIQajTurwSN1zBOrs+QUNO
CEBbNUzBA+AyQYO4KL5on2PBkZApQQVz/j+yjlPBMPfSQOOJjz8eganBy6uaQNJb575Bm6TBQCDc
QNnJoL/jGa3BfI4jQYl9VD9h917Bc7aqQDgTXT/Xx6TBa7rrQGDifz3+iq3BrWGzQNw+wb97xKjB
AO3JQBk0lr/lD4HBANDzQICgdcCCh3DBXALgQCbABkA/jIzB0bb1QO+wE8BrS47BlneQQPHv00BQ
aJDBx0f1QNWDT79yNpDBf+2tQBAGw0COSX/Bb9KnQKur6EDQMYfB84OoQJ9TqUBympHB0izOQB7B
IcDAFYfBjsTzQFeJo8BPGWPBo6kpQLk5OMAFJpDB/qmoQIglicDdE5PBfxENQf3WLz9gK2fBgwiP
QNgEAECX0qDBqN11QAGAKcA+hIjBPEgLQW9yrz+mDH3BaS/pQFw+lj8SFYPBPlSMQEfJhUDBU5bB
pUymQC6PNcDlV47BpDioQMIGPkD5hJnBQvLiQIsoar4jdYbB+BjTQF1jasDISX/BGe+1QONyDUB6
ApDBAlW3QLYRnkA7qYbBAKC4QDMIgL+zunDBzDwHQX/tPcBN8WzBaO78QNLELkB265DBh5PQQATm
90AduIrBT/puQFGYlkBbkZ/B8xoJQUlLoj5ZBbLB5QWkQIRdMcBhlqjBMRteQUDUnD+cnUrBkLdT
QXAsSr8fj1/BPFZDQeiyQEBfV0PBH2IuQUdKhL+O2mzBw/IdQcHhMEDmd1DBMLreQOyiCEAHA6rB
G9J2QLB8Jr81SKHB2mLvQIeYBMAKFbDBi5fyQK4PN8D53JXBap8JQfmFJ8B+MorBxRFdQF2ozkCU
eY7B+fOSQMVc50BGuJfBaf0KQTO/374ngpHBWlvhQPzXEL+yMpfBx8nIQEEFyUCRUHTBh5+QQKA/
vUBr+XXBgVyUQD/2AEHzdoPBbVjEQJo2rkDq2ZbB+tQGQRbzocBSNFfBatfUQGmopsDy1lrBr8H4
QI1lv8AIkG3BOqXaPy4rL8BEwovBLPwsQP83CsDly5bBLFssQEDLecCqVZPBvGOMQAYVj8DUGpjB
Qs3FQE5jjMCs8pfBrXipQKqHoMDDgIzB3RsJQQKhwr4XymjBouMBQZ15lD/V4FvBOc+CQBHSI0CS
wafBMAZoQDinyj+bRpzBwXlyQC7iz79sVoXBwdhxQFiEV8Aw4IHB3YMOQUSNHEDxQHvBywkXQYb3
bT+fCoTBSCDSQDPvsz8yZXnBuIhpQIE6d0DmTZDByBynQJ6HCMDQGpXBTnfEQIVFVUDc5J3BT6y8
QJf9i8CW5H/BzWWfQH+K3j+Mw4vBnMzWQIpCmEDpuYbBxcinQDcjhECNCoTBqiffQDl1AkHm5YTB
15tLQJomgUBFpaLB

>  <OMEGA_E>  (231) 
uOvkPhyh4z5aZR8/

>  <OMEGA_NBR>  (231) 
     52276

$$$$
50197429
     RDKit          3D

 82 85  0  0  1  0  0  0  0  0999 V2000
   12.7694    1.3985  -12.8884 C   0  0  0  0  0  0  0  0  0  0  0  0
   12.5885    0.2533  -13.6907 C   0  0  0  0  0  0  0  0  0  0  0  0
   11.6810    2.2517  -12.6158 C   0  0  0  0  0  0  0  0  0  0  0  0
   11.3167   -0.0445  -14.2142 C   0  0  0  0  0  0  0  0  0  0  0  0
   10.4081    1.9533  -13.1347 C   0  0  0  0  0  0  0  0  0  0  0  0
    6.7562    1.1030  -21.1584 C   0  0  0  0  0  0  0  0  0  0  0  0
    4.9811   -0.4817  -20.6066 C   0  0  0  0  0  0  0  0  0  0  0  0
    7.0629   -1.2751  -21.6001 C   0  0  0  0  0  0  0  0  0  0  0  0
   10.2231    0.7959  -13.9196 C   0  0  0  0  0  0  0  0  0  0  0  0
    5.4684    0.8398  -20.6405 C   0  0  0  0  0  0  0  0  0  0  0  0
    7.5573    0.0445  -21.6230 C   0  0  0  0  0  0  0  0  0  0  0  0
    5.7706   -1.5352  -21.0986 C   0  0  0  0  0  0  0  0  0  0  0  0
    7.7682   -0.8177  -17.9266 C   0  0  0  0  0  0  0  0  0  0  0  0
    7.0264    2.0681  -17.5477 C   0  0  0  0  0  0  0  0  0  0  0  0
    6.2719   -2.4501  -16.9116 C   0  0  0  0  0  0  0  0  0  0  0  0
    6.1572    5.7133  -18.2915 C   0  0  0  0  0  0  0  0  0  0  0  0
    5.9140   -1.0250  -16.5494 C   0  0  0  0  0  0  0  0  0  0  0  0
    4.5341    7.2621  -17.5138 C   0  0  0  0  0  0  0  0  0  0  0  0
    7.2872   -2.2610  -18.0340 C   0  0  2  0  0  0  0  0  0  0  0  0
    6.0378    7.0808  -17.6474 C   0  0  1  0  0  0  0  0  0  0  0  0
    4.9909    4.9176  -17.6627 C   0  0  2  0  0  0  0  0  0  0  0  0
    8.9854   -6.8706  -18.9956 C   0  0  0  0  0  0  0  0  0  0  0  0
    8.8775    0.5117  -14.5191 C   0  0  0  0  0  0  0  0  0  0  0  0
    4.5762    1.9719  -20.1853 C   0  0  0  0  0  0  0  0  0  0  0  0
    8.4795   -3.2067  -17.9138 C   0  0  0  0  0  0  0  0  0  0  0  0
    9.3222   -5.5026  -18.3894 C   0  0  0  0  0  0  0  0  0  0  0  0
    8.7226    1.3496  -15.7932 C   0  0  0  0  0  0  0  0  0  0  0  0
    8.0557   -4.6412  -18.2448 C   0  0  0  0  0  0  0  0  0  0  0  0
    7.3187    1.1313  -16.3788 C   0  0  2  0  0  0  0  0  0  0  0  0
    4.2998    3.9453  -18.6408 C   0  0  2  0  0  0  0  0  0  0  0  0
    5.2806    2.8874  -19.1650 C   0  0  1  0  0  0  0  0  0  0  0  0
    7.1415   -0.2647  -16.8103 N   0  0  0  0  0  0  0  0  0  0  0  0
    5.7323    2.0785  -18.0324 N   0  0  0  0  0  0  0  0  0  0  0  0
    4.0010    5.9203  -17.1889 N   0  0  0  0  0  0  0  0  0  0  0  0
    8.6736   -0.3256  -18.5918 O   0  0  0  0  0  0  0  0  0  0  0  0
    7.9214    2.7157  -18.0826 O   0  0  0  0  0  0  0  0  0  0  0  0
    6.6182    7.0693  -16.3473 O   0  0  0  0  0  0  0  0  0  0  0  0
    3.7457    4.6690  -19.7400 O   0  0  0  0  0  0  0  0  0  0  0  0
    8.8032    0.2959  -22.0840 F   0  0  0  0  0  0  0  0  0  0  0  0
    5.3117   -2.8058  -21.0253 F   0  0  0  0  0  0  0  0  0  0  0  0
   13.7444    1.6226  -12.4817 H   0  0  0  0  0  0  0  0  0  0  0  0
   13.4256   -0.3950  -13.9034 H   0  0  0  0  0  0  0  0  0  0  0  0
   11.8242    3.1336  -12.0091 H   0  0  0  0  0  0  0  0  0  0  0  0
   11.1785   -0.9141  -14.8397 H   0  0  0  0  0  0  0  0  0  0  0  0
    9.5741    2.6090  -12.9326 H   0  0  0  0  0  0  0  0  0  0  0  0
    7.1255    2.1171  -21.1976 H   0  0  0  0  0  0  0  0  0  0  0  0
    4.0005   -0.6853  -20.2024 H   0  0  0  0  0  0  0  0  0  0  0  0
    7.6735   -2.0870  -21.9665 H   0  0  0  0  0  0  0  0  0  0  0  0
    6.7190   -2.9773  -16.0559 H   0  0  0  0  0  0  0  0  0  0  0  0
    5.3893   -3.0044  -17.2633 H   0  0  0  0  0  0  0  0  0  0  0  0
    6.0435    5.7814  -19.3835 H   0  0  0  0  0  0  0  0  0  0  0  0
    7.1249    5.2485  -18.0519 H   0  0  0  0  0  0  0  0  0  0  0  0
    5.0883   -0.6591  -17.1774 H   0  0  0  0  0  0  0  0  0  0  0  0
    5.6286   -0.9523  -15.4896 H   0  0  0  0  0  0  0  0  0  0  0  0
    4.3029    7.9732  -16.7070 H   0  0  0  0  0  0  0  0  0  0  0  0
    4.1056    7.6275  -18.4587 H   0  0  0  0  0  0  0  0  0  0  0  0
    6.7941   -2.4131  -19.0055 H   0  0  0  0  0  0  0  0  0  0  0  0
    6.4711    7.8590  -18.2929 H   0  0  0  0  0  0  0  0  0  0  0  0
    5.3744    4.3453  -16.8052 H   0  0  0  0  0  0  0  0  0  0  0  0
    9.9047   -7.4673  -19.0890 H   0  0  0  0  0  0  0  0  0  0  0  0
    8.2726   -7.3955  -18.3426 H   0  0  0  0  0  0  0  0  0  0  0  0
    8.5368   -6.7304  -19.9901 H   0  0  0  0  0  0  0  0  0  0  0  0
    8.8006   -0.5572  -14.7670 H   0  0  0  0  0  0  0  0  0  0  0  0
    8.0881    0.7794  -13.8013 H   0  0  0  0  0  0  0  0  0  0  0  0
    4.2885    2.5717  -21.0614 H   0  0  0  0  0  0  0  0  0  0  0  0
    3.6745    1.5481  -19.7191 H   0  0  0  0  0  0  0  0  0  0  0  0
    9.2661   -2.8899  -18.6145 H   0  0  0  0  0  0  0  0  0  0  0  0
    8.8685   -3.1713  -16.8855 H   0  0  0  0  0  0  0  0  0  0  0  0
    9.7736   -5.6494  -17.3970 H   0  0  0  0  0  0  0  0  0  0  0  0
   10.0378   -4.9843  -19.0446 H   0  0  0  0  0  0  0  0  0  0  0  0
    8.8581    2.4141  -15.5514 H   0  0  0  0  0  0  0  0  0  0  0  0
    9.4795    1.0417  -16.5295 H   0  0  0  0  0  0  0  0  0  0  0  0
    7.4269   -5.0387  -17.4345 H   0  0  0  0  0  0  0  0  0  0  0  0
    7.4893   -4.6527  -19.1877 H   0  0  0  0  0  0  0  0  0  0  0  0
    6.5884    1.3463  -15.5848 H   0  0  0  0  0  0  0  0  0  0  0  0
    3.4956    3.4281  -18.0969 H   0  0  0  0  0  0  0  0  0  0  0  0
    6.1343    3.3850  -19.6481 H   0  0  0  0  0  0  0  0  0  0  0  0
    5.0594    1.4942  -17.5786 H   0  0  0  0  0  0  0  0  0  0  0  0
    3.8739    5.8337  -16.2008 H   0  0  0  0  0  0  0  0  0  0  0  0
    3.1254    5.7800  -17.6511 H   0  0  0  0  0  0  0  0  0  0  0  0
    6.5365    7.9311  -15.9559 H   0  0  0  0  0  0  0  0  0  0  0  0
    3.3223    4.0635  -20.3371 H   0  0  0  0  0  0  0  0  0  0  0  0
  1  2  2  0
  1  3  1  0
  2  4  1  0
  3  5  2  0
  4  9  2  0
  5  9  1  0
  6 10  2  0
  6 11  1  0
  7 10  1  0
  7 12  2  0
  8 11  2  0
  8 12  1  0
  9 23  1  0
 10 24  1  0
 11 39  1  0
 12 40  1  0
 13 19  1  0
 13 32  1  0
 13 35  2  0
 14 29  1  0
 14 33  1  0
 14 36  2  0
 15 17  1  0
 15 19  1  0
 16 20  1  0
 16 21  1  0
 17 32  1  0
 18 20  1  0
 18 34  1  0
 19 25  1  0
 20 37  1  0
 21 30  1  0
 21 34  1  0
 22 26  1  0
 23 27  1  0
 24 31  1  0
 25 28  1  0
 26 28  1  0
 27 29  1  0
 29 32  1  0
 30 31  1  0
 30 38  1  0
 31 33  1  0
  1 41  1  0
  2 42  1  0
  3 43  1  0
  4 44  1  0
  5 45  1  0
  6 46  1  0
  7 47  1  0
  8 48  1  0
 15 49  1  0
 15 50  1  0
 16 51  1  0
 16 52  1  0
 17 53  1  0
 17 54  1  0
 18 55  1  0
 18 56  1  0
 19 57  1  6
 20 58  1  6
 21 59  1  1
 22 60  1  0
 22 61  1  0
 22 62  1  0
 23 63  1  0
 23 64  1  0
 24 65  1  0
 24 66  1  0
 25 67  1  0
 25 68  1  0
 26 69  1  0
 26 70  1  0
 27 71  1  0
 27 72  1  0
 28 73  1  0
 28 74  1  0
 29 75  1  1
 30 76  1  1
 31 77  1  6
 33 78  1  0
 34 79  1  0
 34 80  1  0
 37 81  1  0
 38 82  1  0
M  CHG  1  34   1
M  END
>  <OMEGA_C>  (232) 
a09MQfAAsz8ON07BcWpJQQa2gT4nDVvBReU6QRIbEEBQ2knBSBE1QeBtNr1jbWPBfocmQWgF+j/T
J1LBjjLYQFQvjT9tRKnBWWWfQCim9r5h2qTBPAPiQNo2o78HzazBzpEjQVHASz/Utl7BH/2uQDcA
Vz+qH6XBP9XxQDAzNj3Y+6zBt6i4QLyBxL8EyqjBCZX4QJJTUb+6aY/BkdjgQPdaBEC4YYzBubPI
QDfOHMD+SofBiAfFQE7TtkAMVZLBkD+9QPgxg79BZYTBZheRQONi6EAzHIzBsDDpQOq0EMCvRZDB
nzXBQDSW4kDdLY3BdLWfQEldnUAyTY3BDMQPQSzc28D+9pfBTQoOQRP/Aj9KTmjBAHCSQGBn/D+H
e6HBDqwHQUI6TcB6T4/ByycVQWcVsMBwHZPBuY8LQYjArD8GsXzB+uMAQV2ElMBF9ZHBsTLqQEzP
kD/cB4PBqpeJQDOAfEBbIJXBT/qoQFnKOEDvUZnBjofkQAyCh756e4bBsW63QDMGBUBJQpDBCwiA
QApzvUDqgonBHMcKQSC4pr4BvJTB5nv9QF/OLUAWqZDB5cfTQLM34kAux4LB4bhvQEholUCB653B
x9kMQWp+lz4IrLDBh/mpQKmRM8DjM6jBROlbQSawzz8MtUfBa89WQdo7yr5odF7BDjA9QUSMSEAs
JUDBPNsyQdoBar81b23BVy8ZQen5JkD+607BEgTkQCx/B0DBlKnBNgSAQDBvL7+WnqHBoo31QC6S
BcB8u6/BbQLXQJ6LPsCVcoDBNXWsQD1IQMBCG4rBF2TBQNgAuUBxEZvBjf/jQBj0p0BMapDBgNOi
QIm5KL9ea4nBiR20QIDLc79j1XfBI7GJQEQk/0D1p4XBrWCDQIMU9EBRq5PBAmnZQOZvGsA2C5jB
FhPPQFJ9+0DRV5LBfPurQI8Mi0ALcYbB1XkeQRP07sBKtpjBaVwEQYun7MCNvZLBrJYIQWFf18DQ
65/BVM8MQQ2nDr+qRWzB3GgBQSeERz9U0lzBvjuJQKCWJEC/fajBQitrQBknxj+swJ3Bx0EUQXrz
OMB66pTBcOUNQZX2SsCAFYfBe2AcQbfHtMAcLYvBvpogQY5/n8BfW5jBzboNQeWAGkBl0njBO6wX
QepUhT9+PITBAKntQDI9ocDIeYvBKajvQKfilMBagJnBN9TSQH5TrD9lW3nBlbhfQChmW0BbxpDB
ZUzEQHGkWEBSL53BAuehQAVBvz8HoYzBSu53QOutukBEm4HBVQZIQN/1uECONY3B4SrRQFDL/UA8
S3/Bxp9UQPYHgkB3sqLBvVFOQaVylT+uvE7BYM1KQWAQcD04N1zBDFU9QeqrAkAVy0nBr0I2QSB5
PL5bnmTBZMAoQYXq5T8gFFLBKjPYQGTukT826anBdRyiQE9WAL9CwaTB9w3kQAZrnb8xbq3BfR8l
QV6dKz/NOl/BZDGwQOQbVj8JQaXBeUHyQPCw2j1P5q3BCuC7QIAOxL945KjBQKD0QLqUNb+MOpDB
GJnfQO4MCkD+JovBElC/QM1IEcA4torB4tfCQDRauUAoRZTBYwrFQJqHmr93GILB0NuXQP+L50AT
tYjBIHzpQIqmDMCPs5DBSPe/QFqq5kBovY/Bb0KhQEhzn0AV/o3BHWFBQRo9acCEXJPBYCQPQfTs
1D6YT2jBHU6TQL3Z+D/7UaHBmFAGQUB7QcDZGovBC8MsQSAac8DhvozB79sLQeMEpj8YGHzBHH0b
QQgZOMC9SpHBdsDpQJmZkT/lZ4LBRGyKQOZzekBt0JTB4t+pQBAFN0BOG5nBGwziQIqtVL4s34bB
xC64QIamAkC+G5DBYzCBQPvpvkDdcorBRaIGQZAV7L37MpbBYon6QGSXPUCrOo7ByvDjQFj270CN
NInBoABqQLeOkUC+ip3BkZMMQVDFyz6rBbLBA66uQChENMDFIajB2QxeQZ16rD/qMEjBjt5XQbvo
Gr8kGWDBWRlAQceMOUCNqD/BnqAzQc/1gr+3LG/BAb8bQZL+HUCXYE7B5sziQNShCkAxaarBLYaD
QFolPL+LMaHBHPD3QH10AcCki7DBKHS6QFr3UMCLKYfBQzikQITnAcCg/Y/Bulm7QP1GuUBS3pzB
awnjQLcIrECeA5PBhBqmQDSzP7+jDYDBf2TTQFmG0r+PuXXB8u2gQHyp6kCCPYDBW0WDQA9LAUHR
/4rBWoflQN6uIcCDCpnBabW8QG/n/UCYTJbBEI6wQAAYkEAAD4fBUdZNQQ7PicDiG5DBACc+QTeV
esBzvJvBEeNGQZByJsCT+JLBkLENQUOfJL+Y2WzBR/YCQRXMKD/sN1zBDD6JQOllI0AWNKjBOfdt
QIdrvz/MhZ3B8nUIQQwXKsDe34LBdZQBQZaigsAZ7IrBhj0nQQPwmsCgIo3Bl/kvQV+9YcDBXoTB
848OQfBXFkCvuXfB71cXQTgTgD+NR4TBBr8YQXSJSMDyvJnBbv4gQazI6r8UtpDBdW3TQPjdpj9d
d3fBErplQKPCWUDWtY/B9y/FQGcZV0AH8pzB/QOkQHJtrD8gVI3B+QpnQIEntUCWo4PBfXFVQJWW
wkAbEpDBR4ThQHAdBkG+eYbBYs5NQEcfeUBXwqHBcVpNQXMkuD89sU7BnWNKQZZZlT7reFvBqv87
QfIsE0DPekrBvQg2QQB9ALsT52PBg50nQX5bAEDl2VLBltPWQHDEjj8a4anBTLihQKHJB79ZTaTB
OYfkQIyUob/qgqzBVI4kQUjJVz+bUF/Bmw6vQHS1Tz/HIaXBqXHxQAA3pj2Kkq3Bv6e8QJu3yL/C
2qfBSxP0QEJ8gb8SOo7Baw3iQDKXBEBhwYzBz52wQFPaAsD754rBCrrEQLGOtkB5B5LBMAG2QMGT
VL9uoIPBg+6QQN/n5kBJJYvB4GDeQM7rGMCou43BBgrBQBol4UDZSYzB9nSfQGExnEBCS43B3ssv
Qbnrk8BFa3vBqOgOQbxADD+W0mjBc++RQFUy9j+0XqHBiXvwQLIFUMAWjYTBEAcYQa2yicApb3jB
L70MQZ0SpT/2M37BLC0QQXDzXsCnyYXBfVjrQOFXkz+AWYPB97+JQITEe0AkY5XBRA6pQIzQN0AU
hZnBD+bfQIAibb7aZYbBCVG4QDauBUCNbZDB5gF/QMGAu0CyRYnBtHQJQa4iNb/yypPBnDv+QNA/
MECr3ZDBxY7TQAt83kDT5oHBNphyQI6ylUB9OZ7ByqcLQSqUwz4rM7LBnlywQKzcNsA+tKbB0/Fc
QTc11D+dHkjB5rxXQe9Iub4CzF7BMFU+Qe3GS0Ah10DBbs4zQW6EX7/N3m3BK1UaQW/JKkByvk/B
wtXgQK87CUBcrarBTseCQAd0Q79d76DBMy35QEOmA8D+Q6/BvPOgQOv1N8DQqIbBcAOeQGss5b9F
GJLBJO7AQFSZukAluJrBh7PjQJ8+p0CAWZDBqh2cQIXf2b3RCoXB2q+1QPEAkr9nXnbBEp+JQBzy
+0DeVITBc12DQD6s9EATgJLBSobgQM18OsAhc5XBVwLPQAcV+0DPGpHBzbOrQAYTiUC1kYbBkos1
QWTFpsBRtm3BqP0xQdtrpsB+HYXBe+84QZDSa8D8dnzBtk4NQeDbCL/9gmvBklECQW/UYj9Yx13B
tSOHQKodIEAHWqjBWh9sQH6vvT/TUZ3BUpvqQNgdL8Cx0nnB+QngQFcih8AAiITBk9wOQTWtp8Dy
ZnfBZs4VQUNVbsDyomnBEnsQQfGrFkC31XvBMfQXQYG3Wz+i8ITBpUwTQZYZgcBSPo3B+ZMYQcgd
IcB2A4bBAufVQCf+uT/PmnnBv7BeQP7XWkDiRZHBbPDDQI0qV0DboZ3B3PaiQG7Fwj+mkIzBpi11
QC75tkDdcoHBHMFHQDj4t0AoNo3B5APRQJRb+UDQz3zBXAlYQAK9gkDBJqPBkNhNQclUwT8p0k/B
/c9KQUBfwT6q51zBJXU8QabOFkA2A0vBwlc2QeC1qD1DBWXBdPonQWT6A0DQGVPBqRDUQPeejj8J
b6rBXgahQIK7Fr96raTB8dTiQLDdnr8d063B9tokQf6faT9V0V/BUw6tQBChRD/1b6XBNw3vQBBo
5D1vg67BOq+7QP9+y78p+qjBxNDzQAPoRL9LE4/BGnLeQAScB0BSLIzBRdPHQP/JGMDZioXBnhvD
QMZOtkAXHpLBgJi8QDuhdL/33oLB7oiRQBzz5EDf54nBLynlQDhRD8CtMo/BStuuQAsd4kBYlpPB
u4aeQKbjmkA7To3BOqsuQRBhjMAog6PBsQcPQfLwGz+1rWjBCkiPQMEU7T9MW6HB1bYFQQBrTMAy
Uo7BXOkjQVTHiMChfpjBlY0LQR8Ttz8jHX3BMDsRQd5wUsBJKJnBIkvpQOmumj8luILBYx+IQJYE
ekARgpXBn3umQOBhM0C2ipnB4OfiQNAzS77g0YXBvqu1QE5MAUAuapDBXgN9QHPFuUBeCInBD6kG
QfDSd76qOZXBzYT5QIDcNkDHI5DB6cDNQAfOAUHZxpPBdiByQBUSlUB6c57BYkQKQeDd5j7uLLPB
ZCqwQBj+OMA8NajBj4ZdQaN+3T/0d0nBLDFYQZPQhr4vs2DBn9k+QUexTkAgIUHBGwg0QRcmR79G
NW/BJawaQTLFLUC1lE/BRi/dQM7ACUAfH6vBA2KDQDcgXL/0zKDBWnT3QGyyAMCdArHBT5DYQLLU
N8Dzr33BwQerQNHYPcAElYfBSLzNQFQnqUDi1ZnBh3jeQB3/t0ASmYzB68agQEDHHr9LjIfBZrG1
QAO/WL9lknTBgeOjQGzc7EBuqYLBeBNxQLM2/UDDKovB40XTQFOBHMB0mJbBgIGbQP5A4kAs8JrB
SHWrQJ9bh0CuvIbBeBk8QWMNo8BwDKPBhPEiQf7hl8BKaanBeKk0QZCLWcCD96XBluANQfAa7b4+
b2zB/sMCQRTGXz/kyVzBWlKDQDrQG0B6MqjB4GBoQEbNsD9LMJ3BXeoQQf05NMCDPojBaQQAQVYo
hsAY+IvBtukdQe5gqMDHCZbBqqEvQW6JesABmJLB3OkNQRrYH0BYkXnBuRgXQWtSjj8nsYTBadkF
QTJ3aMBnR5/Bc14XQXzfEsAAXpvB8RLTQMNDuT+cVXjBIt9ZQOgdW0C5d5HB+bHBQNI+UUAmsZ3B
yVWhQDLnrz87CI3BhhxwQG4Rs0DTYIHBpxVHQF0+uEDYUo3BCbG/QN4mD0EBtZTBzehWQI9qgkD1
ZKPBfeZNQahujj+dMk7BRKlIQYBpo7sW51rB9Ec+QbvCBUC3q0nBg8ozQdTLGL70BWPBIVwpQerj
+D9Dt1HBE+/bQN5OjT/0a6jB8SChQGYH8r4iA6bBN7bmQHsCor8WJazByQskQbxGUD/iJ17BFk6x
QNKlVj+/SKXBk432QMCwWD3a0qvByvK7QKZ2w79BPKnBKIv2QPLgY7/T7o7B4/riQEagCEAEhYzB
m9exQO+V7L91FIzBqy7DQM3duEC5E5TBD3K6QKT3VL+Ja4PBVu6OQL6X6EDq94zBtgDfQCfKDsCn
o4/Bcmu+QPik5UADlY/B32+hQMlfnkDb5o3BtVAAQUv3msDLHWbBo+sNQaSbKj8zUmfBef2TQMom
+j/3m6HBck/2QOKnTMCG84fBY+XVQAM3k8Bm7XHBtfoMQVHWrT83OH3B6r/cQH9Nj8ATKoXBPojs
QKt9mj9SN4PBqB+KQB6ZekAp/JTBPvqpQAHiOECbdZnBLIPiQDbaK74ToobB37G5QHTZBUBDgZDB
HOqBQPc9vUAXf4nBiBoMQe9OHr+IeZPBSYf+QBt7N0CRU5DBanTWQFLT6UBk+4XBjkBpQFZdkkAe
lJ3BwrwPQT+bnj5Fqq7B5f2sQOP0MsCuJ6nBHehdQb1BnD+J60fB+alUQYAgQL8lZ17BgVtCQWjI
PEAKCkDB9tUvQQQqf78M+mzBz2gdQTCNLECYYE7BfxDoQGtaB0CcNKjBkQaAQGc8K7/RFqTB/1L7
QMTVBMBtnq7BmHugQM8ELsCE54jBKoSfQJD3s78ttZLBQoe8QMp9uEDHt5zBwJXjQGVrrECLnZLB
RSOgQDva073r8oLB01C+QIP3qb8OQHfBJ4WJQNHb/0A4gYbBzmp5QMtJ8kC8GJTBTRffQHCxJ8DJ
3pfB92LHQLrE/UDmlZXBU2yxQJVzjUAUTYfBYqH6QNKXncDj0lTBzJ4HQRbKuMBX82vBzToLQf8I
gMA7K2nBtx8KQTVtzb5JM2nBFD0CQRPgkD8od1zBPkSKQLP8IkBPnajB3f1uQJBuwT+92Z3BE1AK
QS4LYMDEtYvBcQz9QLEoKsCod4DBtTXAQFMxrsBZum7Btm3HQHrgasA88mvByNAQQX06G0DxX3vB
a5kYQaYCZD9BD4TBRma9QP4AjsAdJ4nBY5DuQNZvq8A7BIjBLivWQEkavD+kgXnBPWtlQNJ8WEBF
/I/BzZPEQMySWkDrZJ3BABGlQGGyuz+v+4zBJcOBQM+eu0C/gYHBXV1JQNeJtkBTSYzBvTvTQBb/
AkExPYPBX8tMQP5+e0Bv4qHB

>  <OMEGA_E>  (232) 
DBRMP6wlSz/w1Ug/SvBDP44oPD8=

>  <OMEGA_NBR>  (232) 
     61420

$$$$
50197410
     RDKit          3D

 82 85  0  0  1  0  0  0  0  0999 V2000
   12.8665    0.8777  -13.0069 C   0  0  0  0  0  0  0  0  0  0  0  0
   12.4430   -0.2037  -13.8058 C   0  0  0  0  0  0  0  0  0  0  0  0
   11.9666    1.9127  -12.6789 C   0  0  0  0  0  0  0  0  0  0  0  0
   11.1157   -0.2563  -14.2672 C   0  0  0  0  0  0  0  0  0  0  0  0
   10.6374    1.8599  -13.1364 C   0  0  0  0  0  0  0  0  0  0  0  0
    6.7223    1.1660  -21.0897 C   0  0  0  0  0  0  0  0  0  0  0  0
    4.9227   -0.4420  -20.7257 C   0  0  0  0  0  0  0  0  0  0  0  0
    7.0506   -1.1797  -21.6665 C   0  0  0  0  0  0  0  0  0  0  0  0
   10.2087    0.7640  -13.9109 C   0  0  0  0  0  0  0  0  0  0  0  0
    5.4160    0.8754  -20.6314 C   0  0  0  0  0  0  0  0  0  0  0  0
    7.5402    0.1375  -21.5922 C   0  0  0  0  0  0  0  0  0  0  0  0
    5.7371   -1.4647  -21.2505 C   0  0  0  0  0  0  0  0  0  0  0  0
    6.5382   -1.1812  -15.9288 C   0  0  0  0  0  0  0  0  0  0  0  0
    6.9657    2.1164  -17.5149 C   0  0  0  0  0  0  0  0  0  0  0  0
    7.9658   -2.2285  -17.5998 C   0  0  0  0  0  0  0  0  0  0  0  0
    6.1287    5.7463  -18.2841 C   0  0  0  0  0  0  0  0  0  0  0  0
    7.6939   -0.7749  -17.9451 C   0  0  0  0  0  0  0  0  0  0  0  0
    4.8037    7.1828  -16.8571 C   0  0  0  0  0  0  0  0  0  0  0  0
    6.9778   -2.5438  -16.4693 C   0  0  2  0  0  0  0  0  0  0  0  0
    5.9435    7.2137  -17.8747 C   0  0  2  0  0  0  0  0  0  0  0  0
    4.9218    4.9940  -17.6676 C   0  0  2  0  0  0  0  0  0  0  0  0
    4.0950   -4.7867  -18.9972 C   0  0  0  0  0  0  0  0  0  0  0  0
    8.7954    0.6977  -14.3971 C   0  0  0  0  0  0  0  0  0  0  0  0
    4.5014    1.9803  -20.1394 C   0  0  0  0  0  0  0  0  0  0  0  0
    5.7514   -3.3518  -16.9318 C   0  0  0  0  0  0  0  0  0  0  0  0
    3.6964   -3.4009  -18.4573 C   0  0  0  0  0  0  0  0  0  0  0  0
    8.6757    1.4269  -15.7446 C   0  0  0  0  0  0  0  0  0  0  0  0
    4.9200   -2.6001  -17.9960 C   0  0  0  0  0  0  0  0  0  0  0  0
    7.2652    1.2131  -16.3231 C   0  0  2  0  0  0  0  0  0  0  0  0
    4.2265    3.9936  -18.6207 C   0  0  2  0  0  0  0  0  0  0  0  0
    5.2031    2.9164  -19.1304 C   0  0  1  0  0  0  0  0  0  0  0  0
    7.1023   -0.1901  -16.7330 N   0  0  0  0  0  0  0  0  0  0  0  0
    5.6660    2.1177  -17.9925 N   0  0  0  0  0  0  0  0  0  0  0  0
    3.9691    6.0436  -17.2609 N   0  0  0  0  0  0  0  0  0  0  0  0
    5.7918   -1.0042  -14.9732 O   0  0  0  0  0  0  0  0  0  0  0  0
    7.8495    2.7827  -18.0443 O   0  0  0  0  0  0  0  0  0  0  0  0
    5.5667    8.0058  -19.0036 O   0  0  0  0  0  0  0  0  0  0  0  0
    3.6689    4.6942  -19.7322 O   0  0  0  0  0  0  0  0  0  0  0  0
    8.7885    0.4197  -22.0262 F   0  0  0  0  0  0  0  0  0  0  0  0
    5.2607   -2.7252  -21.3467 F   0  0  0  0  0  0  0  0  0  0  0  0
   13.8834    0.9137  -12.6448 H   0  0  0  0  0  0  0  0  0  0  0  0
   13.1367   -0.9905  -14.0631 H   0  0  0  0  0  0  0  0  0  0  0  0
   12.2978    2.7457  -12.0766 H   0  0  0  0  0  0  0  0  0  0  0  0
   10.7916   -1.0751  -14.8924 H   0  0  0  0  0  0  0  0  0  0  0  0
    9.9487    2.6560  -12.8950 H   0  0  0  0  0  0  0  0  0  0  0  0
    7.0926    2.1799  -21.0539 H   0  0  0  0  0  0  0  0  0  0  0  0
    3.9195   -0.6673  -20.3953 H   0  0  0  0  0  0  0  0  0  0  0  0
    7.6824   -1.9709  -22.0424 H   0  0  0  0  0  0  0  0  0  0  0  0
    7.7816   -2.8761  -18.4696 H   0  0  0  0  0  0  0  0  0  0  0  0
    9.0031   -2.3598  -17.2580 H   0  0  0  0  0  0  0  0  0  0  0  0
    6.1246    5.6485  -19.3798 H   0  0  0  0  0  0  0  0  0  0  0  0
    7.0741    5.3511  -17.8842 H   0  0  0  0  0  0  0  0  0  0  0  0
    8.6304   -0.2591  -18.2038 H   0  0  0  0  0  0  0  0  0  0  0  0
    6.9915   -0.7046  -18.7887 H   0  0  0  0  0  0  0  0  0  0  0  0
    5.1962    7.0342  -15.8403 H   0  0  0  0  0  0  0  0  0  0  0  0
    4.2261    8.1183  -16.8940 H   0  0  0  0  0  0  0  0  0  0  0  0
    7.4990   -3.0994  -15.6757 H   0  0  0  0  0  0  0  0  0  0  0  0
    6.8622    7.5924  -17.4029 H   0  0  0  0  0  0  0  0  0  0  0  0
    5.2681    4.4473  -16.7780 H   0  0  0  0  0  0  0  0  0  0  0  0
    3.1933   -5.3294  -19.3173 H   0  0  0  0  0  0  0  0  0  0  0  0
    4.7731   -4.6648  -19.8547 H   0  0  0  0  0  0  0  0  0  0  0  0
    4.6038   -5.3561  -18.2055 H   0  0  0  0  0  0  0  0  0  0  0  0
    8.5014   -0.3547  -14.5237 H   0  0  0  0  0  0  0  0  0  0  0  0
    8.1329    1.1775  -13.6617 H   0  0  0  0  0  0  0  0  0  0  0  0
    4.1696    2.5757  -21.0028 H   0  0  0  0  0  0  0  0  0  0  0  0
    3.6275    1.5247  -19.6506 H   0  0  0  0  0  0  0  0  0  0  0  0
    6.0966   -4.3041  -17.3607 H   0  0  0  0  0  0  0  0  0  0  0  0
    5.1112   -3.5529  -16.0602 H   0  0  0  0  0  0  0  0  0  0  0  0
    3.1837   -2.8417  -19.2538 H   0  0  0  0  0  0  0  0  0  0  0  0
    3.0143   -3.5330  -17.6045 H   0  0  0  0  0  0  0  0  0  0  0  0
    8.8513    2.5026  -15.5957 H   0  0  0  0  0  0  0  0  0  0  0  0
    9.4234    1.0269  -16.4452 H   0  0  0  0  0  0  0  0  0  0  0  0
    4.5768   -1.6470  -17.5673 H   0  0  0  0  0  0  0  0  0  0  0  0
    5.5603   -2.4005  -18.8679 H   0  0  0  0  0  0  0  0  0  0  0  0
    6.5359    1.4385  -15.5310 H   0  0  0  0  0  0  0  0  0  0  0  0
    3.4242    3.4908  -18.0609 H   0  0  0  0  0  0  0  0  0  0  0  0
    6.0558    3.4053  -19.6243 H   0  0  0  0  0  0  0  0  0  0  0  0
    4.9984    1.5344  -17.5298 H   0  0  0  0  0  0  0  0  0  0  0  0
    3.4079    5.7305  -16.4947 H   0  0  0  0  0  0  0  0  0  0  0  0
    3.3771    6.2960  -18.0264 H   0  0  0  0  0  0  0  0  0  0  0  0
    5.4562    8.9099  -18.7339 H   0  0  0  0  0  0  0  0  0  0  0  0
    3.2429    4.0766  -20.3150 H   0  0  0  0  0  0  0  0  0  0  0  0
  1  2  2  0
  1  3  1  0
  2  4  1  0
  3  5  2  0
  4  9  2  0
  5  9  1  0
  6 10  2  0
  6 11  1  0
  7 10  1  0
  7 12  2  0
  8 11  2  0
  8 12  1  0
  9 23  1  0
 10 24  1  0
 11 39  1  0
 12 40  1  0
 13 19  1  0
 13 32  1  0
 13 35  2  0
 14 29  1  0
 14 33  1  0
 14 36  2  0
 15 17  1  0
 15 19  1  0
 16 20  1  0
 16 21  1  0
 17 32  1  0
 18 20  1  0
 18 34  1  0
 19 25  1  0
 20 37  1  0
 21 30  1  0
 21 34  1  0
 22 26  1  0
 23 27  1  0
 24 31  1  0
 25 28  1  0
 26 28  1  0
 27 29  1  0
 29 32  1  0
 30 31  1  0
 30 38  1  0
 31 33  1  0
  1 41  1  0
  2 42  1  0
  3 43  1  0
  4 44  1  0
  5 45  1  0
  6 46  1  0
  7 47  1  0
  8 48  1  0
 15 49  1  0
 15 50  1  0
 16 51  1  0
 16 52  1  0
 17 53  1  0
 17 54  1  0
 18 55  1  0
 18 56  1  0
 19 57  1  1
 20 58  1  1
 21 59  1  1
 22 60  1  0
 22 61  1  0
 22 62  1  0
 23 63  1  0
 23 64  1  0
 24 65  1  0
 24 66  1  0
 25 67  1  0
 25 68  1  0
 26 69  1  0
 26 70  1  0
 27 71  1  0
 27 72  1  0
 28 73  1  0
 28 74  1  0
 29 75  1  1
 30 76  1  1
 31 77  1  6
 33 78  1  0
 34 79  1  0
 34 80  1  0
 37 81  1  0
 38 82  1  0
M  CHG  1  34   1
M  END
>  <OMEGA_C>  (233) 
M91NQaivYD8SHFDBihZHQaygUL6J5FzBK3c/QTbS9D+u3ErB19kxQXE2g75lRmTBxjIqQXwR7j+d
LlLBvBzXQPBAlT+/t6jBFoedQEVP4r4yzqXB2Z7hQBcAl7/1VK3Bq1YjQdCSQz/tkl7BLFCtQEQd
YD8KDaXBR0nxQP7YDD7YvKzBqpa3QGB8u7/4AKrBtjjRQEEwl7+E3H7B1ObeQMxyB0B4HozBE+j+
QAOfDsBQzIzBBR7EQG/ht0DpRZLBwjT2QOBhRr+Yj4/BkbeZQMfZ5UBL24bBUErfQDnOIsAMwYPB
FzG+QLfW5kBi/47BwH+dQIbOn0AwV43BfgqDQKwsmcBb+pfB0LkMQZSZMj+eWmbBIQuQQHJ5/T9u
HaHBOAu4QD+EVsBadIfBiJJsQFuoWcCXqJPBj88KQT+ltj+v6XvBeHCdQHlnJsDp94/BLXzoQFFI
mz/GlYLBTT+HQPSXf0BK95TB7H+mQH2mOkAYC5nBLEbjQPKcQr4n3YXB5E+1QMSIB0Co8I/BggV+
QPJkwUBaForBpla5QMeKgL8ykm/Bdi/7QPMXMkC9WpDBjyKyQJoXAEFuB5jBnM9qQP42lkCQ253B
uZ0MQSfl1j6jNbDB81eoQDJpLsAIxqrBSSJeQcLlaT8TUUrB7y9SQRKRfb9dAmHB1sNEQR+5L0CS
OUHBT6osQeScib88R27Bty0fQfz7KUDVUU7BqPbiQOODC0BPbqjBadl6QG/XKr+DKaPBUdb1QLlF
/L/EVrDB1gL5QKYSOMCuwZPBtQwQQZ0GF8BVEIrBAP3DQOLAtEDKCZvBUF/iQBQ8q0DtEo/BOBYK
QaqnhL5WoZHBjbrfQBFjNL9MT5bBOEemQMcX4UDrcX3BVjyHQIbkAUHpJofB6PfvQMpcRsDIz3rB
F5fbQB318kAzOYvBDpSoQI9QjkBcOYbBDV9MQBaKqsDBiZrBj72YQEFGlcCH1p7Bh1KTQDVlq8DL
pJHBmAUIQa6gtb4eYWjBVyACQcq4lj9CllrBim2FQKLXJECsBajBQiloQAEqwz93NJ3BKRfDQIa7
icCn4orBvo6jQFliY8BEe4DBDMFLQLbeNcDDB5rB++pAQJ0cYsAI1ozB1Z4NQd4pIEDZh3nBNcYW
Qflvgz+2j4PBP3WSQLLP0r/RiYzBPe6xQHqhGcBz8ZbBaibRQBEguD//fnjBuCVbQGJpX0CofJDB
BsnBQPXwWUCJ/pzBNfOfQPpnxD/8PIzBbBtaQEVgt0Al9YPBHCNYQKl4yUD4NZDBHZmuQCePDkEe
35XBfYxPQMtzgkAehaLBBN1NQXpYvj+rVk/B0L1KQaCcrz7xJFzB3I48QTYzFkDh3ErBIkU2QQDM
Rz13SGTBgBEoQdJ7A0CA/1LBforWQIpfkT9H2qnBaZ2iQF1vDL86T6TBLo/lQDJznb9YuqzBKdck
QQ5OZD8vbV/ByQ6vQEZcTT/IEaXBoazxQCCR+T3hrq3BMAW+QJtRyL+iBajB2zr1QLqGeL/orY7B
DTnhQGZXBECzoIzBUb2zQA6mBsBJEIvB3VXEQIa9s0C5J5HB7AG4QPx5ZL/EtIPBICiXQKED4UAF
HobBFbDhQLkdGMDYMo7ByLq+QA704UCbVI3B+aicQDNlm0C+9ozBtx40QVKGj8B6AYDBkQwPQfx/
Fz88mGjBbzORQAwI8j9pNKHBCWP2QEnMTcALPIXBYmccQfnFhsA5q3vB8KoMQczMpz/GJH7BCx4T
Qaw2WcDLFIfBnETrQFwykj//T4PBj/iHQLaqeUB7MpXBVbunQHUhNkBqTJnBYAjhQGCad74HjYbB
s2C3QERTBEC7OpDB6Qd7QHmZvEAm4YnBmr0JQSquHr/IRJTBdA/9QD5jMEBp0pDBhMK3QL2J/UA7
Q5bBh1pwQBqylEB1F57BGJ4LQeg75j4lWrLBOXqyQNMuN8DZ+6bB54hdQV9B2j/N8kjBFg9YQWC5
nb5/tl/BUAI/QcCqTkACNEHBHOozQZ9aUr+QPG7BH9YaQUr7LUCuvE/BO+3fQK/1CkBYkqrB1vyD
QD8LTr8f36DBgpD6QO+RAMDEma/BBMWlQLKIPcDwzIbBqRGgQLAi778ZHZLBlZnFQFt7skCh8ZnB
KtLhQMbcpUAm1I3BxDSdQOSASr4v/oTBjnS4QH00m78+k3bBz4qgQDNm3EDqbXvBKPaEQN78/kDl
44bBUNvjQMzEOMDW+ZXBpuXaQCjo60AsrYjBNv6lQDrHiECE3oXBn+E6QcxVosC6wnLBycM1QYON
ocDlhIfBWsA8QT/vYcAqroDBglkNQc1o/L5A92rBMp0CQebmcT+vfl3B5/CFQBMTHkAXI6jBhFpr
QFSKtj/rK53B52vxQCM7LcB0EHvB7RPnQGOVhsAmBIXB4L8TQXhOpcBcVHrBcbwaQShxacDmpmzB
lyIQQTdmGEARB3zBE/4XQdFTYT8m3ITByMsVQdIje8C9rI7Bme8aQcgwGsBVZIfBupbVQNkNtT8j
dnnBIaxaQC48WEAgPpHBRnPCQEA6VkBgY53BiFKiQMQPvz+vVozBBvRUQIbqsUDJB4TBt2tXQNwf
xUAELZDBPVG0QFsPDUEu0pPBtgRXQBO+gUCWHqPBI2xOQZ5Uij9t707BArFJQaBX6rxvBlzBvlE+
QWgSAUAw6EnBGNk0QQzSUr7lCGTBLXApQUBy6z+Y4FHBJbPbQFimjT/NXqjBG/6hQDY6/b5+aKXB
uHzmQHxRoL94hazBR6UkQaNXNz9Zs17BAcWxQD+fUj9fy6TBaP31QOiWjz24M6zB6F68QMorxL8D
KanB+In2QPMTZ7+SfY/BPCjjQNXAB0AvI4zBtJyzQDio+79P3IvBcs/EQOwYt0CF85HBYJC8QIC/
b78JS4PBf22YQGLS40BEuobB0kfgQPi7EMCrPpDBAc+8QJ3l5UD44Y7BlOKeQKe3nUDwFo3B87H7
QNXMm8BJ5mfBopoOQZ3tCj9R5WfBlk2UQLZG9z8wEKHBMKP6QOJbUMAwhYnBvLLUQPt0lcCFwXbB
ZG8NQVREoj/7en3BSpriQGNtksBRN4fBVyXtQJZ1kj/zMYPBMLiJQNWOekBuyJTB3RyqQLOPOEB3
AZnBBs3iQMoBWr7X/4bBla65QNQtBkAh/o/BHmZ+QFwkvkBY0YnBmOELQSkJGr8AHZTBiYT+QLPR
N0CUy4/BI7+vQLPv/UAbDJjB4GVtQBM2k0CClp3BxQgPQVYWsj6ynK/BBKKtQL6BM8AzNKnBLGpe
QZlemz/3vkjBNBFWQewGPr9t51/BG/9BQRmeN0Bq8z/BBUQxQXoPhr/cQW7BQB4dQY7kI0DrME7B
VJLnQJi3B0AvKajBl4aBQHQ9Nb8T/aLBQ9r6QO1AA8CqVq/BAPCkQNmrN8CJcIjB856eQAlVx789
H5LBGmXFQAZ5s0AItJrBtVXjQK3gq0CAlY7BqlGhQPnsfb4LdILBGNbCQNqotr/0JXfBBDalQKwE
4EDfKn3BK7yEQHN6AEFnHYfBbXfeQEQrJsBenZjBHqLZQFmV80DYKovBh2aqQPdijEDh/YXBgs3w
QEnWncDFMVfBhTAGQTKKucDmQ2zBpdcIQX6KgMCvqWnB4koLQcwjB78/N2rBMbUCQUVIeD8x31zB
Tg2KQDMAIUBKEajBrEpwQKp8vT/pNZ3B/yEMQWx1X8B14Y3BrlMBQW/dMcCU2IHBm8y+QCjAsMCQ
2XTB2xrEQOqAb8BZP3LBPXcRQQsYFUA2R3vBE9AYQQR2Tz+rXoTBhfzFQJv9k8BWU4zBVtP3QPCB
rcA0E4nB+T7XQMsXsD9ZHnnBhq9hQC7wV0CQTpDBprnEQPD8WUBj+JzBA82kQMcpvz+IUozBFN9b
QFuVs0DenoPBTlxXQLA2xUDX54/BLeWqQChtDUFDCpbBio9TQGwZfkAsRaLBvFhPQSK/HD/psVDB
IqVIQcxEyr7K+l7Bp+JAQSsVzj+x/EnB2mgzQaQX0746ZmbB9qkrQSN3zD83dFHB3fXaQNetpz9F
pKnB1fmmQKg96r4dDqbBTKPrQMsIf794Uq7BXeMkQWLwEj+vYF/BjeayQK5EZz8Ef6XBOlX3QHCA
uD5L8K3BnlnDQC+Is79ggqrBgPjKQNwHer+9u3/BfZHiQMiMC0AOCYzBkQHqQP5JDcBzgI7BbOLE
QBU0t0BxbpHBEYD1QNc5Pr/8dI/By/uVQHNr5UBciIfB7kfFQBqgDsCnYobB2NC4QGdH5kDyFpDB
0HCeQGRlnUA55YzBpBuRQAVZu8Bh+JTBm3AOQXI8ED81jWfB06WTQPEW9z+vI6HB9f2XQCHXCsCD
bIvBXU+dQC1flsDRqY3BlxQNQYOasT9IWHzBEOuNQGTXV8D9mZLBkoHsQCHzoz8QkYLBb06JQIJA
fEB38JTB31KpQAwWOUCUF5nBberjQGCmyr3Py4XBTzO5QIZQB0DIBpDB1758QBtavUD0aInBC6y3
QOthOb+nJ2/BAiL+QGAbOUDwEpDBX3eoQDsr90Bu6JnBH0dwQCNmlUAkxZ3BqbUOQSCpQT9y9LHB
AMi3QA+zLMBiZ6vBRZ1fQceuHj9l3krBLs1TQTd5k7/XNmTBQBtGQWeNGEBKHj/BwjwuQZvGlr88
b3HB0pwgQT+YF0BriUzBrsjjQPGoFkBTganBsCiIQCEiRr8JE6PBdMwAQZX63L+ji7HB9X3fQHED
J8CSQpbBrrYCQbmkMsDXj4vBl9fJQL+Wr0Dk7pnBiDTiQC3mr0Dt6ozBfTkMQcghHr/6w4/BlRHn
QBionr5YspbBvESkQBKA5UDU+n7BEp2AQCOXAEEnY4jBG/HHQASHR8AlP4HBK5PUQEKq+EAMPI3B
CIWpQIz6ikAh7YXBFB+cQGmj2cDGbpHBSUFcQDw5vMBC7ZXB9j6gQNrptsBR1pzBP4UJQWEq8r4B
zmrBO8EDQXdPgD9HdVvBo8KGQEUnIUA22KfBfKxyQCvesz8bE53Blj6AQAqkCMAe74TBQ5aVQDl2
oL8GQ5DBMiyOQGHSmsABzIXBhErAQP+ClcAPtYzBJ+YQQUstHEB29XjBz3sYQUvBfT8SFITBGDJW
QM5HW8AQ0ZPBveOdQBnQTsClXJrBUWjWQJb2xT9EHHjByb1eQAJjWkAuwpDBNP3DQMT8WUBUGp3B
UsOkQEaXvj9ecIzBTzVgQK+vs0BZq4LBEahQQGyYwUBtHI/BsBuhQGU1CkFC9JjBEHtWQOwOgkDV
qqLBOI5LQS8cxj9FeE7Bn0pJQdrLyT5KPVvB+LQ5QaKQF0DIQkrB+yI1QYA4Xj02r2PBGYglQWq6
AUCinFLBUVXXQCWPjT93o6nB0sOfQFnJ+751laTBpEXiQEPYo7+QnqzBNjEjQQocXD8fE1/BDn2u
QD5NVj8JS6XBuF3xQBAHPT0WLq3BXGG5QBvzxb//WajBUkf5QB6mUb/Iy4/BD0PfQFx2A0B/f4zB
3AzQQMbXIsAbv4bBtvvCQHfqtkA6uJLBRoHAQPjQkr9tKYTBDqGUQEJJ6EAPwonBK2LtQNgTFMCo
UZDBC7zDQJcI4EApTYzBcjCeQLGpnUDlkI3Bvos1QZv4hMDWAaXBSc0NQfztBj9GomjBvp6RQBnp
+z8RwaHBKacKQXxeTcCrvo/BsSAqQaRThMDAGZrBG8MKQRlArz8j4XzB4jEWQbZaT8AaqZrBSfTo
QOq1jT+wNoPBBgiIQOKze0BJPZXBfqOnQHhEOEDAd5nBqxflQEAolr4iyIbBHfG1QJ7gA0DWbZDB
ZMJ9QDIbvkBL44nBhPoJQaRaeb7FUJXBwsP7QJzDLUCptJDBforVQN02AUFFU5LByPdqQMFqlECe
Bp7Bpn0MQdhBmj5sBbHB1D2rQCqGNMDHf6fBDQFbQeLV5j+I5UfB2gRXQZcKar44il7B0YQ7QZCB
UEBdokDBMWozQQEfUr9Mqm3By9oXQSYVKkDofE/BD5PiQFr2B0AHPqrBzcWAQJctM79rJKHBaAX2
QIvmBcBHda/BicbhQNWIPsBl9H/BvDK1QHsWTcCX3YjB+m68QBJXvUAqN5vBeHfhQHuSpUBC+JHB
+oykQH9gYr9TFInBxCO4QNqnh7/uSHfB44ORQPQh90Aw0YHBioWGQNB9/UAU1Y/BbOHbQO4QIcCC
x5fBaY7VQD8H20AI0YTBqKyqQMDfi0DCpIbBdclDQQGQmcAPhaTB+5cqQWWKkcAjI6vBkmo6Qf6G
SMDKKafBBToNQZy7Cr87vmzB9QwBQRX1QT/LE13Bh+mIQM6HJEBHyajBIARpQA15xT/LKZ7BXqEV
QV4ONMAgo4nBps8FQTFhh8Ckj43BN0wlQXQSpcAx9ZfBzh41QRuXb8DY+5PBPkMMQYTdG0Bm0njB
vxQXQRKejD8YV4TBUjULQRyYaMDMxKDBiQwbQaX3DcDF1pzB4yPRQEMRpT+vzHnBFoxdQLxSWkDj
v5DBVAvDQFqZWEA+O53B9mqgQPD6uz+O4IzBkFhpQErJtkClh4LBn99LQGL+vkD+5I7BCZXVQMHZ
DUH3GY7B1ttPQGargEDAtKLBOA9MQRaJoT/LFE3BODhJQYDaGz6Is1rBZrM6QcFTB0DYdUjBPfk0
QcDe5L32lmPBhHAmQUjl7D+GTFHBkJjZQBLSjj8iKKnBdW2gQMzW5r7+oKTBTdHiQL5lor8wiazB
KoYjQYTmOT+qmV7Bo0uwQKwQXj9mAKXBhP7yQCCTPT1Cy6zB1me5QKzWwb/xgKjBcAf6QA2XYr/b
L4/Beb/iQBHHAkDPrIzBph3EQHSWGcA5+YfB/r3FQAYXuUAz0JHBMmK7QOgpdL85R4XBDimYQLTm
5EDzvobBcjboQFsvE8AfJZDBflS6QGDX50Dsc4/BULGgQN5HnkDJ/IzBuMYJQcwp4MCGuZbB6xYO
QdDs8D6JjGjBsfOTQCurAEALa6HBXaYFQf/aVMCYE47BLBgQQdTBtsDy75DBIysMQYLGpz/O+HzB
9l36QO9el8DwpJDB6I7rQMBLjj9mSIPBz/GKQOeofkA185TBAnGqQPgoO0BmOZnBs8rkQMzOkL4y
oYbBZui4QHo6B0CsM5DB1JSAQLpFvUAHEonBdl0MQQx+5r7RNpTBHL//QEbtKUAJI5HBXEqpQO4g
/EBNyJjBDEZyQPa+lkAprZ3B7HENQeC5kD7Th7DBRnKqQMEBMsCLz6fB8JNbQdzSuj8pK0bBiJNW
QUhd/b4cT17BDfU8QSEJPkCpJD7Bds0yQb0OdL8GM27BSiYZQel9IECa6E3BgKvlQBUaCECBiqnB
WwmBQP3gJL+iXKHB/yD2QFKnBcDnbK/BvVrOQJt+PcCi2YDBYq+nQNROOMB6dovBjQPIQHO+s0Ad
fprBhVLkQCySsEDPAo7B7WijQIrAB79bworBPAawQHhnW79W+HnBjhOnQDg640Bzkn3BUKKCQJBb
AEEnGofBESfbQLGjHMAhO5jBUJfWQDbp+EDBZozBqUCtQFOdi0A3OIbBsYAXQU8w9sAD2pbB8qn4
QJxS78C/fpLBF/UEQYir2MCA+p7BtJQMQZq7GL+PimzB+l0BQSP8QD+JQ13BQh6LQCUTJ0BydKjB
g8BtQDcwzD8XvJ3B5oUTQb2+RsBGMpPByH8KQUD1UcD6n4XBnfEUQapsvsCtsojBu5EdQZbFp8Bu
LpXBHZAOQdjiF0D+F3nB71kYQbFPfT8wS4TBkYDjQAFYocB+b4rB6EnqQLYRl8DmeJjBOivUQPB4
rD8j93nB8HJiQDv5XEApqpDBE7TFQGtVW0C/Ep3BkACjQPD7yD8PT4zBMgdlQE07skCob4LBzMJU
QHyPwkCfrY7BEWeiQHmEDEHKLZfB2K9XQFN9g0A4h6LB

>  <OMEGA_E>  (233) 
yBzsPrQlMj+4HiM/4BgMP1YCSD/m5jk/

>  <OMEGA_NBR>  (233) 
     69254

$$$$
50197431
     RDKit          3D

 83 86  0  0  1  0  0  0  0  0999 V2000
   13.0531    0.8315  -13.1619 C   0  0  0  0  0  0  0  0  0  0  0  0
   12.5962   -0.2737  -13.9082 C   0  0  0  0  0  0  0  0  0  0  0  0
   12.1749    1.8910  -12.8550 C   0  0  0  0  0  0  0  0  0  0  0  0
   11.2572   -0.3253  -14.3371 C   0  0  0  0  0  0  0  0  0  0  0  0
   10.8338    1.8380  -13.2773 C   0  0  0  0  0  0  0  0  0  0  0  0
    6.7425    1.3008  -21.2735 C   0  0  0  0  0  0  0  0  0  0  0  0
    5.2012   -0.4868  -20.6503 C   0  0  0  0  0  0  0  0  0  0  0  0
    7.3061   -1.0154  -21.7651 C   0  0  0  0  0  0  0  0  0  0  0  0
   10.3707    0.7201  -13.9999 C   0  0  0  0  0  0  0  0  0  0  0  0
    5.5353    0.8805  -20.6753 C   0  0  0  0  0  0  0  0  0  0  0  0
    7.6344    0.3534  -21.7986 C   0  0  0  0  0  0  0  0  0  0  0  0
    6.0809   -1.4323  -21.2083 C   0  0  0  0  0  0  0  0  0  0  0  0
    6.4135   -1.0114  -15.8827 C   0  0  0  0  0  0  0  0  0  0  0  0
    7.0294    2.1607  -17.5009 C   0  0  0  0  0  0  0  0  0  0  0  0
    7.2807   -2.1062  -17.8746 C   0  0  0  0  0  0  0  0  0  0  0  0
    6.0819    5.6793  -18.1557 C   0  0  0  0  0  0  0  0  0  0  0  0
    7.9761   -0.8042  -17.6004 C   0  0  0  0  0  0  0  0  0  0  0  0
    4.4276    7.2012  -17.4035 C   0  0  0  0  0  0  0  0  0  0  0  0
    6.4306   -2.3547  -16.6264 C   0  0  2  0  0  0  0  0  0  0  0  0
    5.9332    6.9926  -17.4153 C   0  0  1  0  0  0  0  0  0  0  0  0
    4.8680    4.8667  -17.6562 C   0  0  2  0  0  0  0  0  0  0  0  0
    2.7134   -3.2885  -18.8680 C   0  0  0  0  0  0  0  0  0  0  0  0
    8.9402    0.6586  -14.4476 C   0  0  0  0  0  0  0  0  0  0  0  0
    4.5651    1.8971  -20.1362 C   0  0  0  0  0  0  0  0  0  0  0  0
    3.5394   -4.4447  -18.2656 C   0  0  0  0  0  0  0  0  0  0  0  0
    8.7573    1.4901  -15.7296 C   0  0  0  0  0  0  0  0  0  0  0  0
    4.9767   -4.0201  -17.9069 C   0  0  0  0  0  0  0  0  0  0  0  0
    7.3268    1.3048  -16.2783 C   0  0  2  0  0  0  0  0  0  0  0  0
    4.9959   -2.7478  -17.0268 C   0  0  1  0  0  0  0  0  0  0  0  0
    4.2541    3.9240  -18.7044 C   0  0  2  0  0  0  0  0  0  0  0  0
    5.2587    2.8678  -19.1586 C   0  0  1  0  0  0  0  0  0  0  0  0
    7.0891   -0.0881  -16.6769 N   0  0  0  0  0  0  0  0  0  0  0  0
    5.7322    2.1191  -17.9907 N   0  0  0  0  0  0  0  0  0  0  0  0
    3.8392    5.8534  -17.2496 N   0  0  0  0  0  0  0  0  0  0  0  0
    5.7860   -0.7610  -14.8593 O   0  0  0  0  0  0  0  0  0  0  0  0
    7.9233    2.7667  -18.0827 O   0  0  0  0  0  0  0  0  0  0  0  0
    6.3869    6.8618  -16.0709 O   0  0  0  0  0  0  0  0  0  0  0  0
    4.2106   -2.9884  -15.8615 O   0  0  0  0  0  0  0  0  0  0  0  0
    3.8141    4.6729  -19.8395 O   0  0  0  0  0  0  0  0  0  0  0  0
    8.7989    0.7629  -22.3484 F   0  0  0  0  0  0  0  0  0  0  0  0
    5.7613   -2.7445  -21.1848 F   0  0  0  0  0  0  0  0  0  0  0  0
   14.0783    0.8667  -12.8243 H   0  0  0  0  0  0  0  0  0  0  0  0
   13.2731   -1.0796  -14.1506 H   0  0  0  0  0  0  0  0  0  0  0  0
   12.5316    2.7433  -12.2957 H   0  0  0  0  0  0  0  0  0  0  0  0
   10.9084   -1.1630  -14.9228 H   0  0  0  0  0  0  0  0  0  0  0  0
   10.1613    2.6515  -13.0485 H   0  0  0  0  0  0  0  0  0  0  0  0
    6.9801    2.3529  -21.3272 H   0  0  0  0  0  0  0  0  0  0  0  0
    4.2720   -0.8091  -20.2040 H   0  0  0  0  0  0  0  0  0  0  0  0
    7.9933   -1.7456  -22.1662 H   0  0  0  0  0  0  0  0  0  0  0  0
    6.6451   -2.0270  -18.7689 H   0  0  0  0  0  0  0  0  0  0  0  0
    8.0119   -2.9159  -18.0150 H   0  0  0  0  0  0  0  0  0  0  0  0
    6.0368    5.8307  -19.2443 H   0  0  0  0  0  0  0  0  0  0  0  0
    7.0272    5.1814  -17.8937 H   0  0  0  0  0  0  0  0  0  0  0  0
    8.9575   -0.9802  -17.1357 H   0  0  0  0  0  0  0  0  0  0  0  0
    8.1083   -0.2328  -18.5310 H   0  0  0  0  0  0  0  0  0  0  0  0
    4.1360    7.8457  -16.5610 H   0  0  0  0  0  0  0  0  0  0  0  0
    4.0962    7.6591  -18.3472 H   0  0  0  0  0  0  0  0  0  0  0  0
    6.8829   -3.1371  -15.9994 H   0  0  0  0  0  0  0  0  0  0  0  0
    6.4395    7.8084  -17.9520 H   0  0  0  0  0  0  0  0  0  0  0  0
    5.1751    4.2737  -16.7822 H   0  0  0  0  0  0  0  0  0  0  0  0
    1.7002   -3.6454  -19.1046 H   0  0  0  0  0  0  0  0  0  0  0  0
    2.6516   -2.4648  -18.1415 H   0  0  0  0  0  0  0  0  0  0  0  0
    3.2000   -2.9307  -19.7874 H   0  0  0  0  0  0  0  0  0  0  0  0
    8.6654   -0.3874  -14.6487 H   0  0  0  0  0  0  0  0  0  0  0  0
    8.2923    1.0621  -13.6554 H   0  0  0  0  0  0  0  0  0  0  0  0
    4.1452    2.4719  -20.9748 H   0  0  0  0  0  0  0  0  0  0  0  0
    3.7544    1.3742  -19.6077 H   0  0  0  0  0  0  0  0  0  0  0  0
    3.0378   -4.7979  -17.3525 H   0  0  0  0  0  0  0  0  0  0  0  0
    3.5862   -5.2637  -18.9984 H   0  0  0  0  0  0  0  0  0  0  0  0
    8.9253    2.5530  -15.5016 H   0  0  0  0  0  0  0  0  0  0  0  0
    9.4836    1.1580  -16.4860 H   0  0  0  0  0  0  0  0  0  0  0  0
    5.4641   -4.8399  -17.3588 H   0  0  0  0  0  0  0  0  0  0  0  0
    5.5311   -3.8194  -18.8355 H   0  0  0  0  0  0  0  0  0  0  0  0
    6.6174    1.5774  -15.4831 H   0  0  0  0  0  0  0  0  0  0  0  0
    4.5600   -1.9211  -17.6070 H   0  0  0  0  0  0  0  0  0  0  0  0
    3.3964    3.4110  -18.2449 H   0  0  0  0  0  0  0  0  0  0  0  0
    6.1020    3.3570  -19.6680 H   0  0  0  0  0  0  0  0  0  0  0  0
    5.0737    1.5373  -17.5134 H   0  0  0  0  0  0  0  0  0  0  0  0
    3.5792    5.7016  -16.2960 H   0  0  0  0  0  0  0  0  0  0  0  0
    3.0322    5.7649  -17.8334 H   0  0  0  0  0  0  0  0  0  0  0  0
    6.2873    7.6923  -15.6204 H   0  0  0  0  0  0  0  0  0  0  0  0
    4.4537   -2.3705  -15.1821 H   0  0  0  0  0  0  0  0  0  0  0  0
    3.4366    4.0831  -20.4815 H   0  0  0  0  0  0  0  0  0  0  0  0
  1  2  2  0
  1  3  1  0
  2  4  1  0
  3  5  2  0
  4  9  2  0
  5  9  1  0
  6 10  2  0
  6 11  1  0
  7 10  1  0
  7 12  2  0
  8 11  2  0
  8 12  1  0
  9 23  1  0
 10 24  1  0
 11 40  1  0
 12 41  1  0
 13 19  1  0
 13 32  1  0
 13 35  2  0
 14 28  1  0
 14 33  1  0
 14 36  2  0
 15 17  1  0
 15 19  1  0
 16 20  1  0
 16 21  1  0
 17 32  1  0
 18 20  1  0
 18 34  1  0
 19 29  1  0
 20 37  1  0
 21 30  1  0
 21 34  1  0
 22 25  1  0
 23 26  1  0
 24 31  1  0
 25 27  1  0
 26 28  1  0
 27 29  1  0
 28 32  1  0
 29 38  1  0
 30 31  1  0
 30 39  1  0
 31 33  1  0
  1 42  1  0
  2 43  1  0
  3 44  1  0
  4 45  1  0
  5 46  1  0
  6 47  1  0
  7 48  1  0
  8 49  1  0
 15 50  1  0
 15 51  1  0
 16 52  1  0
 16 53  1  0
 17 54  1  0
 17 55  1  0
 18 56  1  0
 18 57  1  0
 19 58  1  1
 20 59  1  6
 21 60  1  1
 22 61  1  0
 22 62  1  0
 22 63  1  0
 23 64  1  0
 23 65  1  0
 24 66  1  0
 24 67  1  0
 25 68  1  0
 25 69  1  0
 26 70  1  0
 26 71  1  0
 27 72  1  0
 27 73  1  0
 28 74  1  1
 29 75  1  6
 30 76  1  1
 31 77  1  6
 33 78  1  0
 34 79  1  0
 34 80  1  0
 37 81  1  0
 38 82  1  0
 39 83  1  0
M  CHG  1  34   1
M  END
>  <OMEGA_C>  (234) 
XdlQQRzcVD8xl1LBLIpJQdYcjL4viF7BccxCQdwM8j8Qrk3BVR00QU6Tpr6yZGXBXVctQbJD6z8G
cFTBo8LXQH5/pj8dMKrB82+mQGZA+b7AM6XBZsvpQPj3gb/dHq7BdO4lQdZaOD+9/1/BMiGxQEhm
YT/qZqXBGU30QBLytD58Y67B15bCQORVt7+BqqnByjvNQPx1gb9zH37B3vDgQLNJCkDOAYzBfPvo
QFrLBsAx/47BOZ/CQBO9tUDzPpHBkjz/QGPeTb+RzYzBh66NQIlw5kBSOovBG8fNQBezFsDMAoXB
ady9QFXD30B+UovBfsabQPO7m0D6P43BJqktQF12UsC08ZbBAQsPQeqaKD81KWfBhBWSQPPU8j8C
F6HBP4ViQBA7jsDoH5LB5R0MQb67vj9qrHvB2UCfQNmkgMBgQY/BbXXqQDEEpz/6OYLBCN6fQN/b
L8DaNojBtSGIQDMje0CqopXB4UaoQLaJN0DRRJnBydniQNhjtL1SaoXBEW63QFCfB0AG7Y/BObZ1
QDBPu0Az/4nBlya5QDHQQr+hv23BW4v9QEYRMUBIqZDBamHMQA6U20BMkYDB6ryGQBlCP8C7yH3B
ixp0QAuIlUA5t57BZ8gMQWVOQz96ybLBQly4QMGlL8CMeqnB6EBhQTrgXT90ME3BvV5UQXEvir+s
aGLBnoFIQe2RL0BGu0TBooguQUrclL/1w27B4ZQiQV2yKUCkxlDB11zfQJyWFkASnqrBK7SIQB4g
T7+6oaHBXMn/QKBv379MVLHBl6TUQJS6AcCuJpbBwDAAQcWdOsChHpDBJC3BQHiVukBj9JnBb97g
QEHOpUBRJo/B6FEPQXXwer/aFYnBursBQVtbbr5xP5TBaFqEQJUP+0D0fITB+BODQKsX9UD3xpLB
AkHcQAnHSMCC/X/BkxDOQBHe+UDMnY/BbZqlQNbBiEDkQYbBUaDZP/VNacAl1pjBjrQpQNK/HcDX
IZHBgcxMQLOQO8CgTJ7BpKUKQWVTxr4jYWrBQa0EQcPxhz+mfFrBaaWEQCM0HkB2zKfBaUhwQBLm
rz+j3JzB1mtCQB6ImcDo0YrByYNlQI5wqMCw/JfBKM4OQcZkI0C2BnjB77wXQfo6lD9h44PBjtmu
QGbgmsDX3orBqP6wQJxwdMAsr5bBvMHTQBjnyT+eunfBRuuRQCXo9b8m24zBNV9ZQMxNWkB+9ZHB
iUPDQALZVkD6V53BcFuiQP7ExD+FG4zBFxFlQNpztkBCXoLBBQ9CQAl6uEDCqo7BvjHJQAwn9kBZ
7XnBvISOQLC2F8Db6XLBo/BbQAypgkAQ2qPBzj9OQagycD9iR1DB3WtHQQY7KL6Wj1zBldk/QV5g
/T/ZXEvBfSQyQR7KbL6jyWPBz4cqQa619D9Fg1LBNM7YQM4SlD/AmKjB3AKfQHVg5b4T2qXBRlbj
QLY5mL8PMq3BeJ8jQRB4Sz8GaF7B6dquQNL6XT8YC6XB1hDzQJQPAj7HjazBlC25QNqivL9496nB
65vRQON5mr8pLn/BbGLfQPFNB0C09YvB03r/QGJbDcDLMI3BYwLEQI/Jt0Bi75LBOq30QBDSRL8p
04/BA5GQQIr56kB6jI3BzWfhQHT6I8B/44PBUp7AQHJa5EA+PY7BR2OeQLCjn0Bkno3BfowtQObr
PcDzvZjBX/oMQUjVNj9nHWbB/muRQGoX/D+jMaHBAulvQL4jbcDf9ZHB2CELQS5ztD/d6XvB38ud
QAksMsDBZI/BBQHpQKhcmT+1gILBcTa7QPtYXcCBHYfBfgiIQKgvfkAtCpXB14GnQDjFOUAvD5nB
G8TjQNyjUL5g3IXBRQS2QGKzBkCH6o/BMxJ+QP3rwEBBSIrBKW25QOJhhb80+G/BDJb7QBv/MkDv
DpDBVOTRQDgX5UAMsoPBv8jKQOIYlsDCYovB7y1rQOHolECy9J3BYpQNQXdA0D6P7a/Bp+ipQGbt
LsA/3arBxI5eQQ5XfD/unUrBVoRSQTjYdL8iamDBHi9FQVEINUDSHELBTu4sQXB0iL/Fbm3BpoEf
QfuVLUAx507BTLLkQG/iCkCRRajB9IB9QD2aK78sUKPBxp/3QKWM/b94KrDBKnP5QEcZN8BbHZTB
7pIQQfVRE8C+u4rBFFrAQHKIuEB7r5vB3dPiQNnrqECQ3pDBs8EIQVvfZb4MYJLBg3HcQCT6OL9X
MpbB0taIQPnIAUGdjofBapmDQM+W9EBqXpXBGOPzQLt9RMASMnvByoXPQLc6/EAdhpPBMGiqQEG0
jkBsg4bBW4HvP9cSacCIgprBGPIVQH3SBcC1UZTB4zVLQHvfKMDPRqDBLUcIQbSfrr4TumfB6V8C
QR0dmz+6ilrBdSGHQAc3JEBPIKjB/o1qQHi4wT+rXp3By/RRQE0bgcDscYrBS5yDQMyhksAHZ5bB
fSYOQUYlH0Ck+HnBYfsWQU3Mez+if4PBRAKwQIx/JcBuwZbB972RQJ/i6r8XHozBENPRQIl8tT8+
PHjBfjOoQLovasAwxX/B6HddQLr+XUAwbpDBX+bCQC5PWUCt7pzB7p2gQGXdwT9STIzBQCV2QGUc
wECuWILBidFFQGXZu0B04Y3BqJXPQKCVAEEU14DBMU2zQP+zp8DEXY3BurhPQDDNgECrgaLBiNBO
QXlRiT8sZVDB85NIQeF8gb0pM1zBWs8/QbZyBUD1wUvBGVMzQWyOQb7HU2PBHYQqQdmy+j/6zlLB
zc/ZQIINjD+TZ6jBzm6hQBOsCL8su6TBHmrlQBvBob+fW6zBwDokQfsoUD9RYF7BSVewQMEJTD/U
jKTBs2j0QMd+gD21LqzBGdG7QN97x79Qv6jBarPRQM/qkr8WgIDBSwzgQKxpDEBit4vBi0b1QCwn
DMBCT4/BeyvBQIcnukDGlJTBdAQBQZ72Or+7m47BKDqZQEYI5kAGFYjBDMTmQHGpHcA724PBTh26
QEaJ6ECeF5HBgGSfQF0BoED7VY7B2nRQQHUjWMC3RpXBkLMNQdZ+Lz99cGbBBHeSQNs69D9aD6HB
h8GJQNhhPMAtC43BREMLQSukvz+eJ3vBl+GqQD1AgsB/OIvBI/vpQEoYoD/NhYLBa0vKQBlFbsDq
/oHBNWqIQJbne0CQJpXB90aoQKRIOEDVLpnB71jlQCbnCr44dobBSXS3QESxBkAmCZDBnieAQNl6
v0AKYYrBKhi5QPMffb8r8HHBScL6QHsbP0DvHY/BvLDgQLn9+kB8PY3Bl9LlQDGymsDNEYDBC25n
QN75kUCXBJ7BiQ8OQQTXsj4FzK/BOxKtQIbENMAsWanBfh9fQYiDlT/L40rB6BpUQfsVVr/KxF/B
oadEQcJHPUD0y0LB+pEuQf+Yhr+Ek2zBLgcfQSkeL0DzXk/B9RPlQKNeB0BtcqjBO82BQPNNRL+G
yqHBt9T5QAqSA8CLQ6/BawrbQOHPFcAZDZXBuEwIQcTBNMCxjJHBTEC8QOfItkAGQZ3BF67hQNqI
r0DRf5LB0NQRQdUMI78OHozBy479QF8scL45YpbB20CpQM4740BFR4DBgZSEQDhFAUHOGYjBS9kB
Qb+2JcBe5H3BvOusQLMa+0AmzZfBKyavQGsfkEC9iofBZfUhQJ0lJMDzd5bBhDlwQAO0ZsBV6pzB
JwQvQM7DiMA+XJLBHCAKQdy7vr51qWnBX4kCQdvsiD9JTVrBKiSIQL4fHkDpKqjBxb1sQEIzuz+T
Ip3ByFOaQETkAsBk+4/BMnJzQNy3LcBNbYXBlBQNQZ5VJEAHinfB9q0XQbc5mD+PToPBttGZQLb0
n8BdMonBEUu9QAD/hsBeoJLB5ATSQBC3tT9ycHjBUvq2QAdJYsAzlnXBSQZhQOfEW0BmF5DBYDHD
QItAWEAANZ3BBPuiQAk8uz9Kp4zBq8VjQM/DtEACvYPB+AhUQAuHxUBa9I/BVYXbQGvdC0E8IIvB
qBnVQGuos8AU033B+StLQH3HeUBPM6LB6x9MQX2GuD+DWk7BoXBJQZEflT4HHlvB1oc6QWbnEUAP
90nBOB81QeCM4bwuYWPBIDImQe/z+j89KFLB9WbYQJpDij/mSKnBkAyfQHIH8b6wjKTBeOvgQHeL
p7/ck6zB428jQWTuSz+vnV7BdCKvQFbyVz+OEqXB5l7xQABHHzsy9azByr+3QOiSxb/sWqjBMTT4
QJYpWL8vho/B/jLgQBLgAkDFMozBcWvJQCR1IcCJfofBfUTFQNAht0DwQZLBtZi9QIztjL/ucoTB
02mRQH776ECnJozBENvqQLT2FMBpSZDBrojBQI/c4kBrE43BhrWfQPnUnUBXS43BObM1QahRhMA5
jKPB5+QNQV2f+T7OC2jBDwuTQNM7/z87laHBp0YoQUMDicBWQ5nBrxcLQfcIqT9UaXzBC/UXQfjJ
SMB1mZjBGmDpQLXaij9h7oLBsZUIQSRDUsCY6o7B6daJQNYhfUBTIJXBt02pQNgvOUCTRJnBvW7k
QHp+or5zeIbBEwK3QDNjBECyNJDBReZ/QLEcvkBmoYnBABkJQet3iL7dOpXBmez8QKBsLUCMRpDB
Y4vTQBQ54kDXnILBZXETQZ9RQMBvFIXBsEpwQMiglUAv8Z3BNKMMQc7aZj63vbDBCpGoQHSWM8Cz
hKfB77JbQeEw1z9k7EfBufhWQXK4sL62jV7Bjqg8QQGhSkDHUkDB0xMzQWKZZr/4Vm3BBrgYQW+/
JkA56k7Ba8fkQHSWBUCZr6nBlWZ/QNpYJ79OOKHBZdjzQGKZCMAxha/BpgzXQFUMRMD9oIDBuWit
QMN4RMD+iIrB9tXBQA5suUA2/5rBCh7kQC4VqEC2TpDBT/iiQLHOPL+PaonB9om0QHzMhb/16XfB
ZdmJQEG5/0CrtIXB2iWEQBzX9EB1vpPBUO3bQFp1IMAjIJjBBNfPQNG7+0BjLJLBrKirQKSpi0Dk
X4bBxWFBQSiVnsA4AqTBmBYrQW+ChcDaj6rBaDQ+QSsDS8BAaaPB4+sMQbY7Fb8l+mvBAUUBQYFJ
Pj90fFzBn/SKQMN5JkAKo6jBXRZrQKtVyz8QC57BUMcfQVHVp8D8ZpnBH+UyQXjUh8BiQJLBWv4M
QenCGECNh3jBDkYXQW85gz/9GYTB1qggQermC8Aj1pfBQmwOQd4vSMD4/p/BNdDRQGFTpD8zLnnB
cXsCQS8lisBQ0o7BSB5gQN8RXEC4yZDBbPzEQEXqWEAd/JzB4iKhQNMXvj9VsozBU692QBVZu0B5
voHBM1BIQCDJuUDzcY3BcvvQQGnI/UCB8H7B/TUfQZJHZsBgSoTBLnxVQP8ugkBIuqLBvTJNQbQu
uT/0ME7Bon5KQQYrlD6jyVrBmro7QTeXE0CgZErB6UY2QUCHhbzUcWPB+X8nQYAXAEBbBVPBEGjW
QJh/jz+iXqnBg/qhQIjBDb+256PBgwzkQDQWn79otqzBU68kQVcHVD+sRl/BIvyuQJssSz/ehaTB
du3wQIh91j2Aaq3BTH+8QC4Vyb+Y+KfBXvb0QPoOZL+fw4/BbxbiQOEiBEDzlozBETi4QPx+CcD8
bYrBJZHFQOAHskANT5DB3e6/QEhfh7+CQoLBth2VQIeW50Cfw4rB9cHkQJv6FMD1M4/BPCjEQHyv
20CbJIrBoB+cQJGjm0AtqozBJ28AQf+Sv8CZrGfBYycPQT2OBT8D8GjBolCRQPBi8T8gp6DBtnwK
QRZFncDk9HXBpOQMQRbxoz9rJn7BbVnyQNmriMA2+4HB7NLrQFTdkD/NX4PBS64CQeF/RMCRBojB
1RaIQOxOe0AcGZXBRvenQLxiN0Ce+ZjBOdbhQNwQaL7WEYfBoa63QPcXCECHto/BEiZ7QI9/vkDo
8YnB4AkKQdMMBL+N7pTB/9f+QF6AJkBktpHB8AXPQOWw1EA3Z37BYtYTQTXQXsDNyY7BTXpzQOzS
lUCVFp7BskkLQQp72j7jEbLBNiSwQDNJN8CHM6fB7q1cQQhu1j/pcEfBF+9XQWPNub5IzF3BTtw9
QcujTEBa30DB/T00QfZeZb++Qm3BcCQaQUqJKkCgRFDBdzXgQDTbCUBl+KnB/5yDQMNFTr88TqDB
enj4QO2EAcDpza/B6+esQHa6RMAbm4bB/QKhQJYz6r8JiZDB3GLFQK/Jt0B8/ZjBZvfhQDYZn0Az
KI7BprKiQJcf776j9IDBdqrKQMUpvr+DOHXBLWOMQB3y/EBDHoTBlASOQFJz90C7apLBHizjQHgh
MsAHNJfBDk/YQMM29ED48Y3BxxqjQPDbiEDobYXBSOYMQTJFzsC5p13BEW/oQDbVsMDIXl3BFOfx
QGhJ2MCBunHBv9INQQ9AD7+H4mvBtnACQbuFVj9q3l3Bn3KFQD2jHEANnafBJlxsQDo9tj9scJzB
OvkRQX+VhMB442vBO7UWQbEJrMCYH4DBFGgQQTEmFkAOhnvBrDsYQVF/Xj+t8YTBgGfmQGRWoMBK
xYfBUcvXQJN1e8CMyXnB7d/VQEjhsD+BlXnB3rQIQdmqFsBjEILBJotZQFlQWkB0YpHBV5bCQEXE
VkB0MJ3Buz+iQBh70D/yTYvBQDtlQEWGukCgfoLBrgZKQD9OvkCeEo/BpQDOQE4V70CJ4HbBgj8e
QXxlfMCXqorB4+9aQLwZg0DrOqPB

>  <OMEGA_E>  (234) 
DEcrPzaQIj8ccBc/ytBYP+AlTz8=

>  <OMEGA_NBR>  (234) 
     75923

$$$$
50197266
     RDKit          3D

 75 78  0  0  1  0  0  0  0  0999 V2000
    7.5330    9.1746  -17.5374 C   0  0  0  0  0  0  0  0  0  0  0  0
    6.8799    9.4770  -16.3265 C   0  0  0  0  0  0  0  0  0  0  0  0
    7.2373    7.9787  -18.2192 C   0  0  0  0  0  0  0  0  0  0  0  0
    5.9205    8.5910  -15.8022 C   0  0  0  0  0  0  0  0  0  0  0  0
    6.7134    1.3038  -21.3337 C   0  0  0  0  0  0  0  0  0  0  0  0
    4.9546   -0.3648  -21.0533 C   0  0  0  0  0  0  0  0  0  0  0  0
    7.0483   -0.9664  -22.1473 C   0  0  0  0  0  0  0  0  0  0  0  0
    6.2884    7.0787  -17.6913 C   0  0  0  0  0  0  0  0  0  0  0  0
    5.6070    7.4029  -16.4886 C   0  0  0  0  0  0  0  0  0  0  0  0
    5.4398    0.9390  -20.8462 C   0  0  0  0  0  0  0  0  0  0  0  0
    7.5211    0.3484  -21.9689 C   0  0  0  0  0  0  0  0  0  0  0  0
    5.7616   -1.3196  -21.6947 C   0  0  0  0  0  0  0  0  0  0  0  0
    6.4648   -1.2150  -15.7242 C   0  0  0  0  0  0  0  0  0  0  0  0
    7.0394    1.9645  -17.4603 C   0  0  0  0  0  0  0  0  0  0  0  0
    5.9371    5.8317  -18.4830 C   0  0  0  0  0  0  0  0  0  0  0  0
    4.5965    6.4560  -15.8806 C   0  0  0  0  0  0  0  0  0  0  0  0
    7.7750   -2.4460  -17.2889 C   0  0  0  0  0  0  0  0  0  0  0  0
    7.8696   -0.9692  -17.6222 C   0  0  0  0  0  0  0  0  0  0  0  0
    6.4705   -2.5191  -16.4980 C   0  0  2  0  0  0  0  0  0  0  0  0
    5.0476    4.8491  -17.6633 C   0  0  2  0  0  0  0  0  0  0  0  0
    3.4940   -4.6205  -19.9732 C   0  0  0  0  0  0  0  0  0  0  0  0
    8.6579    1.3742  -15.5096 C   0  0  0  0  0  0  0  0  0  0  0  0
    4.5471    1.9596  -20.1999 C   0  0  0  0  0  0  0  0  0  0  0  0
    5.1976   -2.4547  -17.3582 C   0  0  0  0  0  0  0  0  0  0  0  0
    3.7212   -3.4536  -19.0258 C   0  0  0  0  0  0  0  0  0  0  0  0
    5.0541   -3.6332  -18.3015 C   0  0  0  0  0  0  0  0  0  0  0  0
    7.2937    1.1275  -16.1838 C   0  0  2  0  0  0  0  0  0  0  0  0
    4.3127    3.8275  -18.5457 C   0  0  2  0  0  0  0  0  0  0  0  0
    5.2922    2.7970  -19.1337 C   0  0  1  0  0  0  0  0  0  0  0  0
    7.1879   -0.2977  -16.4929 N   0  0  0  0  0  0  0  0  0  0  0  0
    5.7723    1.9082  -18.0463 N   0  0  0  0  0  0  0  0  0  0  0  0
    4.0197    5.5913  -16.9158 N   0  0  0  0  0  0  0  0  0  0  0  0
    5.6856   -0.9404  -14.8187 O   0  0  0  0  0  0  0  0  0  0  0  0
    7.9192    2.6854  -17.9185 O   0  0  0  0  0  0  0  0  0  0  0  0
    3.5984    4.5118  -19.5823 O   0  0  0  0  0  0  0  0  0  0  0  0
    8.7494    0.6981  -22.4102 F   0  0  0  0  0  0  0  0  0  0  0  0
    5.2984   -2.5730  -21.8843 F   0  0  0  0  0  0  0  0  0  0  0  0
    8.2615    9.8608  -17.9433 H   0  0  0  0  0  0  0  0  0  0  0  0
    7.1158   10.3899  -15.7999 H   0  0  0  0  0  0  0  0  0  0  0  0
    7.7382    7.7501  -19.1484 H   0  0  0  0  0  0  0  0  0  0  0  0
    5.4240    8.8230  -14.8716 H   0  0  0  0  0  0  0  0  0  0  0  0
    7.0660    2.3180  -21.2177 H   0  0  0  0  0  0  0  0  0  0  0  0
    3.9627   -0.6317  -20.7197 H   0  0  0  0  0  0  0  0  0  0  0  0
    7.6720   -1.7037  -22.6308 H   0  0  0  0  0  0  0  0  0  0  0  0
    5.3926    6.1297  -19.3912 H   0  0  0  0  0  0  0  0  0  0  0  0
    6.8672    5.3169  -18.7655 H   0  0  0  0  0  0  0  0  0  0  0  0
    5.0940    5.8324  -15.1231 H   0  0  0  0  0  0  0  0  0  0  0  0
    3.7934    7.0387  -15.4059 H   0  0  0  0  0  0  0  0  0  0  0  0
    7.7222   -3.0576  -18.2017 H   0  0  0  0  0  0  0  0  0  0  0  0
    8.6299   -2.7719  -16.6782 H   0  0  0  0  0  0  0  0  0  0  0  0
    8.9204   -0.6508  -17.6885 H   0  0  0  0  0  0  0  0  0  0  0  0
    7.3594   -0.7502  -18.5717 H   0  0  0  0  0  0  0  0  0  0  0  0
    6.4554   -3.3897  -15.8257 H   0  0  0  0  0  0  0  0  0  0  0  0
    5.6924    4.3044  -16.9579 H   0  0  0  0  0  0  0  0  0  0  0  0
    2.5339   -4.4893  -20.4937 H   0  0  0  0  0  0  0  0  0  0  0  0
    4.3089   -4.6575  -20.7112 H   0  0  0  0  0  0  0  0  0  0  0  0
    3.4752   -5.5594  -19.4004 H   0  0  0  0  0  0  0  0  0  0  0  0
    8.7464    0.7384  -14.6163 H   0  0  0  0  0  0  0  0  0  0  0  0
    9.4652    1.1290  -16.2154 H   0  0  0  0  0  0  0  0  0  0  0  0
    8.7359    2.4314  -15.2161 H   0  0  0  0  0  0  0  0  0  0  0  0
    4.1628    2.6367  -20.9770 H   0  0  0  0  0  0  0  0  0  0  0  0
    3.7060    1.4399  -19.7178 H   0  0  0  0  0  0  0  0  0  0  0  0
    4.3244   -2.4338  -16.6895 H   0  0  0  0  0  0  0  0  0  0  0  0
    5.2249   -1.5308  -17.9545 H   0  0  0  0  0  0  0  0  0  0  0  0
    3.7397   -2.5150  -19.5990 H   0  0  0  0  0  0  0  0  0  0  0  0
    2.9060   -3.4169  -18.2882 H   0  0  0  0  0  0  0  0  0  0  0  0
    5.8816   -3.6420  -19.0263 H   0  0  0  0  0  0  0  0  0  0  0  0
    5.0537   -4.5756  -17.7341 H   0  0  0  0  0  0  0  0  0  0  0  0
    6.5111    1.3875  -15.4558 H   0  0  0  0  0  0  0  0  0  0  0  0
    3.5966    3.2865  -17.9098 H   0  0  0  0  0  0  0  0  0  0  0  0
    6.1391    3.3190  -19.6030 H   0  0  0  0  0  0  0  0  0  0  0  0
    5.1384    1.2137  -17.7060 H   0  0  0  0  0  0  0  0  0  0  0  0
    3.4033    4.9356  -16.4797 H   0  0  0  0  0  0  0  0  0  0  0  0
    3.5032    6.1588  -17.5570 H   0  0  0  0  0  0  0  0  0  0  0  0
    3.1451    3.8786  -20.1263 H   0  0  0  0  0  0  0  0  0  0  0  0
  1  2  2  0
  1  3  1  0
  2  4  1  0
  3  8  2  0
  4  9  2  0
  5 10  2  0
  5 11  1  0
  6 10  1  0
  6 12  2  0
  7 11  2  0
  7 12  1  0
  8  9  1  0
  8 15  1  0
  9 16  1  0
 10 23  1  0
 11 36  1  0
 12 37  1  0
 13 19  1  0
 13 30  1  0
 13 33  2  0
 14 27  1  0
 14 31  1  0
 14 34  2  0
 15 20  1  0
 16 32  1  0
 17 18  1  0
 17 19  1  0
 18 30  1  0
 19 24  1  0
 20 28  1  0
 20 32  1  0
 21 25  1  0
 22 27  1  0
 23 29  1  0
 24 26  1  0
 25 26  1  0
 27 30  1  0
 28 29  1  0
 28 35  1  0
 29 31  1  0
  1 38  1  0
  2 39  1  0
  3 40  1  0
  4 41  1  0
  5 42  1  0
  6 43  1  0
  7 44  1  0
 15 45  1  0
 15 46  1  0
 16 47  1  0
 16 48  1  0
 17 49  1  0
 17 50  1  0
 18 51  1  0
 18 52  1  0
 19 53  1  1
 20 54  1  1
 21 55  1  0
 21 56  1  0
 21 57  1  0
 22 58  1  0
 22 59  1  0
 22 60  1  0
 23 61  1  0
 23 62  1  0
 24 63  1  0
 24 64  1  0
 25 65  1  0
 25 66  1  0
 26 67  1  0
 26 68  1  0
 27 69  1  1
 28 70  1  1
 29 71  1  6
 31 72  1  0
 32 73  1  0
 32 74  1  0
 35 75  1  0
M  CHG  1  32   1
M  END
>  <OMEGA_C>  (235) 
fA7xQADLEkGkTIzBTyjcQMuhF0G8nILBHpjnQIVR/0D0wJHB4nS9QKF0CUH41XzBQNTWQG7jpj9g
q6rBBoyeQLXAur4wbajBwovhQOpld7+SLbHBtjrJQGWE4kDMh43BhGyzQMvk7EC86IPBrhKuQCBi
cD8QxabBGq3wQB1csj5kwK/BYF+4QE7pqL+2jq3Bxt/OQPODm79qlnvB4ULhQNB0+z+arovBiPy9
QImdukBC3ZPBwhaTQDuXzkDeFn7BNM34QM+KHMC4T4rBgNP7QHAgeL8q+ozBpw7PQH45IcDW+4PB
pYWhQH8rm0BiTo3BCJ5fQEzbk8AmyZ/B4YYKQW7lrz9DJ3jB0oGRQBzV+j90maHBg1KmQB0aHcCS
3YrBzChuQHIIXcDENJjBc7uhQJiGaMCQaZLB0GXpQFZTkD9yeIHBAQKKQM/1dECSXZTBolmpQNIC
M0C8EZnBnwPmQEFnmL6O8YPB97a4QKI/9D/EXpDBE6GAQELsskB6U4fBkPC1QOrAcL9gGW3BvGn9
QHzdK0AQWY/B+ExmQN1gkEB2qJzBkf0LQdC5Mj8qSLPBTIypQJOsJMD2Eq/BAy8EQQHGHUH0i4/B
ULTjQCQ9JkFfzHzB+573QBQB+EDZL5nBWZGtQBYrDUE68m3BpxziQJNaFEDSvanB+5x9QJ64Ib/7
waXB7ID1QPYR2r/zC7XBb5CsQKUmxEA0IZvBZ8DbQCokqkCtH5bBzgGjQAyjukBc+HHBRcZyQOQ8
4UB9fnbB+hv3QIGvQ8ANnZHBBhQKQd9mMcDmbIXB2bkOQX6bJr8kgo3B0n/rQEMMQL/lkpTB3pLO
QKLwWMArNn3BKCi2QKS9iUDPqYfBmyoiQJqoj8AF86PBdeKJQDsKlcCIsKXBZGleQObmscAWNJvB
EPELQUsFPT993GnBqXEXQV6EkD8WuYHBasYLQcucG0A1dXPBmjWFQHfAKEDf0KfBTy9tQAZOuD8T
vp3Bc2GKQHTDG8AghIXBtjKnQETxw7/ioo/B91ZvQFv1IMCyypzBcfs5QLCuWsBATpLB1zW8QEYW
acDbNZjB57ehQBNrksB8343BvFrQQBGYsT8DS3fBKC5mQHRVUkA/R4/Bp3PEQDtqVED80pzB5W2k
QAVamz/UpY3Bls9ZQHzwnUCH1oPBuDNgQLEUxUDRdIzB5UlJQD46eECnAqHBOgP2QBgDEEEV0IrB
pvDgQImLFEGZHIHBulvrQMcI+0AXqJDBhOTAQJ+zBkF4kXrBmHXMQBqkQD9oNarBNIKVQIJZJr8v
+6HBfSLQQGGX1r9q36vB3prLQGvu3kC00IzByq+1QDas6EBKKYPBwS6mQLp5ID+DVaTBX1bhQPcq
zL6SA67BvIuqQDeb5r8MsaXBJmTQQG8Tmr82kYPB4r3ZQOmIC0C0HIrBjc++QPPtuEAFpJPBYsST
QMUJy0Amb33BM1gFQTaH6r9uLo7BSqQFQRcNrb5mBo3B0v7yQBtxD8AyGITBBqigQDECmkB5go3B
Kv4fQY3FuMDtJpDB1AMDQXfLxT9WiXLBybuNQIuV7T8fA6HBlbjiQBhra8DaCoTBgjQKQcs0osDg
zI/BBrEEQcdMlMBGQoTBhwHgQA9xnT/yzYDBXvGIQMuodUAL9pTBHC2nQLVmMEAtQJnBUD3mQHjl
Kb1oC4bBHQC1QJfZ+j8zGJDBMHeAQGbtsUAlY4fBKLqpQHHzrb8UcoLBKij3QDw+OEAeb43BlARq
QG8bkUDamZ3BRfcCQc2rjL6rsrPBOuqaQIN4QcD6JaPBdzAHQbG+GkEfxY3BiWTpQAOrIkE8NXnB
24n7QBks9ECRGJjBo+GwQJQtCkGGp2vBrbjZQPJ23T+kyKvBZxlxQCsNPr8CU53Bs7/fQO3FI8B7
967B2ziuQAGexEDK1JrBK9XbQDtrp0CrA5bBbHiiQC03tUCBvnHBgZR1QMMd3kBkgnXBjVL5QNEm
CcC9a5XB9aIVQbHbD8ALXI7BGKMUQWDJWbuXRonBtc0DQQxpGT7R25TB8UIEQfLLBsDWbnrBGEm0
QHcWh0CA8YfBJJcjQWFgwsDBbJjBxnksQQvMosA1RY3B/YkfQehS1cCoAovBIrIDQesTSz+qtWXB
XAcSQe3zwj+utnvB6NMAQW/MIkBhe2vB+u+FQIkbHEAcN6jBmvBfQMk+xT87DJ3B38fPQJ3UdsDY
hnnBM53OQJ+GdsB1IYvBYLsKQXHAhcBW+ZTBLZf7QE5HuMDJtpLBPp4SQTPxg8ANw4DBpOMAQSbm
sMDO/H7BE33CQMk5mj9fB3jBHzNgQACFVUCiMZDBP4jCQHPATUAgZp3BMm+iQOFjmD/e843BxjZX
QK00nUDHOoTBTy1iQCHNxUA0V4zBLTRNQONyekD+FKLBSev4QPPOD0EPL43Bf1njQDRtFkGW24PB
V77tQK7T+ECALJLBKnTCQCi2CUHsD3/B7gTTQNtZoD+YWarBry2fQAa2/r5wHqbBzujgQLgfhr9P
sq/BWBfNQNQF30CK0o3BL822QHfZ7EBYjoTB+/WrQDQrWj8kqqXBqaPtQJD9mj7iP6/BJZe5QHkJ
ub8HKqvBP7rRQFLprb+fcIDBcJPWQJxcBEDg94jBXC3AQMmqtkACtJPBLgWUQBKx0UCiLH/By4AD
QVrx8L8SK47Bd4cGQddRA7+8aInBlU3jQF8SIMCXaIfBBj6gQG3QmkAGIo3BhamQQIIovcDnDY/B
f/r/QPYpwD9QGW/BKZeOQM+h8D/uz6DBqYDBQKggRMBsFY/B9NJ+QOJvj8BDNZDBXiiZQBBvYcA/
MYnB/frbQAJLjz8e9H7BwceHQMpLdUD8K5TBQROmQEh7L0D9YpjB6GLkQLkZQ76QIITBPsWyQF8V
8D+Yao/ByH+AQHfztUCrtofB8Oe1QI2PuL8cF3PBx8jyQI5yN0BPW4vB3M5mQD2qkECR0pzBk5MJ
QTarMT+KobPBoi2tQDhLL8Bqn6vBRQcJQeagGUHsgZDBLxLsQG5IJUF5BYDBRzT+QEHQ7kC5WJnB
biKyQEXDDkEksXDBIW3cQECrEkDaKarBOSuBQFCsTb/tmaLBM0X1QGKs47/tgrPB+fCwQOqvv0AR
T5vBPxDdQEyko0AFVpXBJ/ShQHPBvUCpc3LBGaF2QHCr5kDMTnjBJFn9QKXx57+gnJbBo0kSQZFV
HsBLio3BeKsTQS6yBb8yjoPBwQwKQbusYj5guI/BQjPwQHFnU8B2UoLBmpOyQJvViEA0HYfBJ8R7
QOLo0sDyIpTBc2qyQAMFvsCqipHBvxGOQF5Wx8C/p4bBuqEAQbzdQj8KGGLBXmsPQXM/wj+Kj3fB
RHD5QKzNH0B5XmjBOXOCQLBJIkAtMafBuTVnQMXBrj9G8ZzB4q24QB8UEsCy3ZTB3kDPQNAfe8Bq
XpPBlf2BQP9hhcDknZjBwkk7QFqzjsD6uo3BCmGiQJIbgcDwwIHBDlyFQIBOKcCJQ4fBX529QJkh
iz8qEXbB7qVeQEk3VkDhLI/BtVvCQFZlTUBGDpzBozSgQG78ij8J043Bza5VQNQjo0AeK4TBrQZk
QJJOyEDDLI3BaLVIQBVgeUBwJKHB

>  <OMEGA_E>  (235) 
6q8bP2AsWD9gbTQ/

>  <OMEGA_NBR>  (235) 
      3849

$$$$
50197265
     RDKit          3D

 88 92  0  0  1  0  0  0  0  0999 V2000
   12.7286    1.3480  -12.9565 C   0  0  0  0  0  0  0  0  0  0  0  0
    7.5407    9.1620  -17.4988 C   0  0  0  0  0  0  0  0  0  0  0  0
    6.9133    9.4515  -16.2711 C   0  0  0  0  0  0  0  0  0  0  0  0
   12.5781    0.1695  -13.7164 C   0  0  0  0  0  0  0  0  0  0  0  0
   11.6179    2.1793  -12.7083 C   0  0  0  0  0  0  0  0  0  0  0  0
    7.2445    7.9640  -18.1779 C   0  0  0  0  0  0  0  0  0  0  0  0
    5.9802    8.5493  -15.7270 C   0  0  0  0  0  0  0  0  0  0  0  0
   11.3145   -0.1824  -14.2246 C   0  0  0  0  0  0  0  0  0  0  0  0
   10.3525    1.8231  -13.2044 C   0  0  0  0  0  0  0  0  0  0  0  0
    5.1495   -0.5144  -20.7887 C   0  0  0  0  0  0  0  0  0  0  0  0
    6.7776    1.2639  -21.1753 C   0  0  0  0  0  0  0  0  0  0  0  0
    7.2872   -1.0163  -21.8578 C   0  0  0  0  0  0  0  0  0  0  0  0
    6.3198    7.0486  -17.6320 C   0  0  0  0  0  0  0  0  0  0  0  0
    5.6667    7.3587  -16.4108 C   0  0  0  0  0  0  0  0  0  0  0  0
   10.1994    0.6342  -13.9469 C   0  0  0  0  0  0  0  0  0  0  0  0
    5.5231    0.8410  -20.6777 C   0  0  0  0  0  0  0  0  0  0  0  0
    6.0287   -1.4396  -21.3837 C   0  0  0  0  0  0  0  0  0  0  0  0
    7.6639    0.3355  -21.7436 C   0  0  0  0  0  0  0  0  0  0  0  0
    7.6678   -1.0875  -17.7891 C   0  0  0  0  0  0  0  0  0  0  0  0
    6.9925    1.8768  -17.5260 C   0  0  0  0  0  0  0  0  0  0  0  0
    5.9626    5.7987  -18.4233 C   0  0  0  0  0  0  0  0  0  0  0  0
    4.6824    6.3957  -15.7876 C   0  0  0  0  0  0  0  0  0  0  0  0
    6.3680   -2.6796  -16.4749 C   0  0  0  0  0  0  0  0  0  0  0  0
    5.9060   -1.2467  -16.2977 C   0  0  0  0  0  0  0  0  0  0  0  0
    7.3605   -2.5876  -17.6360 C   0  0  2  0  0  0  0  0  0  0  0  0
    5.0507    4.8201  -17.6186 C   0  0  2  0  0  0  0  0  0  0  0  0
   11.3606   -4.6798  -19.7743 C   0  0  0  0  0  0  0  0  0  0  0  0
    8.8633    0.3014  -14.5301 C   0  0  0  0  0  0  0  0  0  0  0  0
    4.5468    1.8493  -20.1051 C   0  0  0  0  0  0  0  0  0  0  0  0
    8.6423   -3.3882  -17.3117 C   0  0  0  0  0  0  0  0  0  0  0  0
   10.6248   -4.5316  -18.4292 C   0  0  0  0  0  0  0  0  0  0  0  0
    8.6802    1.1555  -15.7876 C   0  0  0  0  0  0  0  0  0  0  0  0
    9.5281   -3.4703  -18.5695 C   0  0  0  0  0  0  0  0  0  0  0  0
    7.2662    0.9586  -16.3395 C   0  0  2  0  0  0  0  0  0  0  0  0
    4.2790    3.8242  -18.5192 C   0  0  2  0  0  0  0  0  0  0  0  0
    5.2374    2.7746  -19.0808 C   0  0  1  0  0  0  0  0  0  0  0  0
    7.0591   -0.4497  -16.7143 N   0  0  0  0  0  0  0  0  0  0  0  0
    5.6886    1.9515  -17.9619 N   0  0  0  0  0  0  0  0  0  0  0  0
    4.0596    5.5647  -16.8267 N   0  0  0  0  0  0  0  0  0  0  0  0
    8.4398   -0.5780  -18.5935 O   0  0  0  0  0  0  0  0  0  0  0  0
    7.8979    2.4834  -18.0919 O   0  0  0  0  0  0  0  0  0  0  0  0
    3.6172    4.5065  -19.5840 O   0  0  0  0  0  0  0  0  0  0  0  0
    5.6645   -2.7361  -21.4976 F   0  0  0  0  0  0  0  0  0  0  0  0
    8.8739    0.7474  -22.1843 F   0  0  0  0  0  0  0  0  0  0  0  0
   13.6986    1.6145  -12.5635 H   0  0  0  0  0  0  0  0  0  0  0  0
    8.2496    9.8596  -17.9198 H   0  0  0  0  0  0  0  0  0  0  0  0
    7.1486   10.3662  -15.7472 H   0  0  0  0  0  0  0  0  0  0  0  0
   13.4326   -0.4626  -13.9080 H   0  0  0  0  0  0  0  0  0  0  0  0
   11.7392    3.0883  -12.1378 H   0  0  0  0  0  0  0  0  0  0  0  0
    7.7267    7.7455  -19.1193 H   0  0  0  0  0  0  0  0  0  0  0  0
    5.5036    8.7704  -14.7834 H   0  0  0  0  0  0  0  0  0  0  0  0
   11.1993   -1.0732  -14.8242 H   0  0  0  0  0  0  0  0  0  0  0  0
    9.4993    2.4584  -13.0176 H   0  0  0  0  0  0  0  0  0  0  0  0
    4.1898   -0.8425  -20.4177 H   0  0  0  0  0  0  0  0  0  0  0  0
    7.0550    2.3061  -21.1178 H   0  0  0  0  0  0  0  0  0  0  0  0
    7.9621   -1.7288  -22.3086 H   0  0  0  0  0  0  0  0  0  0  0  0
    5.4337    6.1006  -19.3393 H   0  0  0  0  0  0  0  0  0  0  0  0
    6.8914    5.2743  -18.6922 H   0  0  0  0  0  0  0  0  0  0  0  0
    5.2106    5.7481  -15.0724 H   0  0  0  0  0  0  0  0  0  0  0  0
    3.9019    6.9641  -15.2605 H   0  0  0  0  0  0  0  0  0  0  0  0
    6.8604   -3.0505  -15.5639 H   0  0  0  0  0  0  0  0  0  0  0  0
    5.5238   -3.3373  -16.7292 H   0  0  0  0  0  0  0  0  0  0  0  0
    5.0340   -1.0354  -16.9340 H   0  0  0  0  0  0  0  0  0  0  0  0
    5.6505   -1.0454  -15.2469 H   0  0  0  0  0  0  0  0  0  0  0  0
    6.9010   -2.9735  -18.5579 H   0  0  0  0  0  0  0  0  0  0  0  0
    5.6922    4.2401  -16.9390 H   0  0  0  0  0  0  0  0  0  0  0  0
   12.1493   -5.4406  -19.6796 H   0  0  0  0  0  0  0  0  0  0  0  0
   10.6454   -4.9880  -20.5512 H   0  0  0  0  0  0  0  0  0  0  0  0
   11.8122   -3.7163  -20.0531 H   0  0  0  0  0  0  0  0  0  0  0  0
    8.8243   -0.7660  -14.7930 H   0  0  0  0  0  0  0  0  0  0  0  0
    8.0697    0.5293  -13.8033 H   0  0  0  0  0  0  0  0  0  0  0  0
    4.1406    2.4607  -20.9244 H   0  0  0  0  0  0  0  0  0  0  0  0
    3.7264    1.3117  -19.6072 H   0  0  0  0  0  0  0  0  0  0  0  0
    9.1956   -2.8840  -16.5057 H   0  0  0  0  0  0  0  0  0  0  0  0
    8.3686   -4.4036  -16.9889 H   0  0  0  0  0  0  0  0  0  0  0  0
   10.1718   -5.4942  -18.1495 H   0  0  0  0  0  0  0  0  0  0  0  0
   11.3387   -4.2226  -17.6514 H   0  0  0  0  0  0  0  0  0  0  0  0
    8.8306    2.2156  -15.5354 H   0  0  0  0  0  0  0  0  0  0  0  0
    9.4155    0.8515  -16.5471 H   0  0  0  0  0  0  0  0  0  0  0  0
    8.8961   -3.7243  -19.4333 H   0  0  0  0  0  0  0  0  0  0  0  0
   10.0004   -2.4909  -18.7360 H   0  0  0  0  0  0  0  0  0  0  0  0
    6.5544    1.2166  -15.5415 H   0  0  0  0  0  0  0  0  0  0  0  0
    3.5345    3.3094  -17.8941 H   0  0  0  0  0  0  0  0  0  0  0  0
    6.0918    3.2751  -19.5598 H   0  0  0  0  0  0  0  0  0  0  0  0
    5.0039    1.4051  -17.4796 H   0  0  0  0  0  0  0  0  0  0  0  0
    3.4425    4.9113  -16.3883 H   0  0  0  0  0  0  0  0  0  0  0  0
    3.5371    6.1564  -17.4406 H   0  0  0  0  0  0  0  0  0  0  0  0
    3.1513    3.8777  -20.1225 H   0  0  0  0  0  0  0  0  0  0  0  0
  1  4  2  0
  1  5  1  0
  2  3  2  0
  2  6  1  0
  3  7  1  0
  4  8  1  0
  5  9  2  0
  6 13  2  0
  7 14  2  0
  8 15  2  0
  9 15  1  0
 10 16  2  0
 10 17  1  0
 11 16  1  0
 11 18  2  0
 12 17  2  0
 12 18  1  0
 13 14  1  0
 13 21  1  0
 14 22  1  0
 15 28  1  0
 16 29  1  0
 17 43  1  0
 18 44  1  0
 19 25  1  0
 19 37  1  0
 19 40  2  0
 20 34  1  0
 20 38  1  0
 20 41  2  0
 21 26  1  0
 22 39  1  0
 23 24  1  0
 23 25  1  0
 24 37  1  0
 25 30  1  0
 26 35  1  0
 26 39  1  0
 27 31  1  0
 28 32  1  0
 29 36  1  0
 30 33  1  0
 31 33  1  0
 32 34  1  0
 34 37  1  0
 35 36  1  0
 35 42  1  0
 36 38  1  0
  1 45  1  0
  2 46  1  0
  3 47  1  0
  4 48  1  0
  5 49  1  0
  6 50  1  0
  7 51  1  0
  8 52  1  0
  9 53  1  0
 10 54  1  0
 11 55  1  0
 12 56  1  0
 21 57  1  0
 21 58  1  0
 22 59  1  0
 22 60  1  0
 23 61  1  0
 23 62  1  0
 24 63  1  0
 24 64  1  0
 25 65  1  6
 26 66  1  1
 27 67  1  0
 27 68  1  0
 27 69  1  0
 28 70  1  0
 28 71  1  0
 29 72  1  0
 29 73  1  0
 30 74  1  0
 30 75  1  0
 31 76  1  0
 31 77  1  0
 32 78  1  0
 32 79  1  0
 33 80  1  0
 33 81  1  0
 34 82  1  1
 35 83  1  1
 36 84  1  6
 38 85  1  0
 39 86  1  0
 39 87  1  0
 42 88  1  0
M  CHG  1  39   1
M  END
>  <OMEGA_C>  (236) 
gahLQSGLrD8FTk/BIU3xQLGXEkF5/YvBHzrdQGE5F0FMK4LB1j9JQQiHLT5DdlvB9uI5QXN6C0AC
VUvBPtPnQDDZ/kBYbJHBZl2/QNLJCEHtoXvBMAg1QUTIOr4AmGPBA6QlQcBb6T9jRVPBA8mkQCmt
A79PT6bBSeLYQMzHoT8CZ6nBYjDpQE0Vgr/X3K7B2TvKQNKN4UBsDo3BrFW1QM5660A6SYPBjDAj
QUZYIj+wJl/BfL2wQNhNVz/ea6XBLevAQE1DuL/DEavBCj/1QELJqz778q3BPl71QLc0i78rUI7B
7cLfQFY88D86NYzBoM2+QNyOuUD2YpPB5NWVQPepzEASmnzB0sbLQMp9K8CizIPB9v28QA+Vn7+Z
YYLBPInrQKKaJcCTFo3B856hQKs+mkD68ozB1cQ1QcLAlcDTMZ7BOtANQURVmj5te2jBZ3+RQPy1
7D9J16DB00YKQdjYWMBGforBXv8pQeMCkcD8bpPBE+IKQcPnkz/VmXzBEnMYQVQZXsBHjpTBdITo
QGpkdT9Bt4LBeO2IQAjAdEBkJ5TBxZinQAWTMUBtpZjB+uPhQOA75r75toXBpgi2QDzM+T8Lso/B
feiBQGQSskAqnYbBWAkHQSb5E7+Mv5TBfrv8QM3wHkBGvJDBtYBnQG41kEAJrJzB/kO1QOscL8Aa
+6vBVvsNQWhTPz9kebHBnC1bQcKmzj8EBEnBWP4DQcTAHUHCW4/BI8HkQM/bJUG09HvBzOtWQXnf
7L7+hl7BmtM7QUmnRUBXNELBR0H3QN/a90A69JjBZx2wQJFTDEHriGzBUTAzQZNfib8ZMG3BUv0X
QdtVHUAVSFDB4hKGQFCtV798V6PBp8LhQAWXE0Ar8ajBIMn+QIJK3b/4d7LBzOCtQDE4w0D6tprB
j4bcQNvGqECLiZXBBL2mQKLwt0BuKHHBW7h5QNrZ3kAWK3TBw4jbQCo7Q8DMBXnBD8OwQNGWVcBS
1YXBYxahQAuJhL/VeIfBE9G0QCXOhb8h83PBX9XcQB9OPsCrdpTBgia2QNWuh0AEg4fBjWNCQaoZ
rsDKb53BnlMqQWqdn8DyaKTB9f48QU7YbcDTbKDBfjANQasXRL8fsGzBqB0BQbl/Bz9S2lzBoX+E
QIN8HUAVZafBKn1uQCHmpz+Q25zBJyETQdmSOMCtC4TB7+UFQUfqjMBW6YfB378iQWbQr8A4MpHB
Nms1QSMfh8AZNo3B80kNQVzMDUDRkHjBvaUWQdP4WT99YITBoVYOQVtabsBWd5vBzAEgQYdrH8Bt
45XB4r3RQPi5mz/QqXjBsjViQLnNU0AnJ4/B6u/CQNybUUCBepzBJCCgQOPYsz9D1ovBlVJcQKUp
nUAvG4PBxl9iQF4BxUByhovBZK9JQLoreEDh+qDBSDVLQQzZrz/NME7BjvjwQNW8EkH7xYvBq3Pc
QAJTF0FLAYLB+2JJQdg7TD7QjVrBGiE5QYK9C0Bpe0rB99XnQJ8j/0BTPpHBcn6+QOzWCEEoenvB
MXE1QXBgLr7MJmPBwColQX+z5z9S51LBAA7UQPNmnz88k6rBezelQBRrEb9Ru6TBZsnlQICuh78V
Aq/BCjPKQM214UD/9IzBGN+0QOyJ60AgPIPBNUsjQRoqID8f/l7BxNOuQKAVTz/MOKXB5KDvQAjW
oD5oX6/BEpjAQLgPwL/2rKnByvf3QBjth7/1TI7Bn0DgQFPV8T9vMIzB4h6/QDS4uUADVpPBjWSV
QCiOzEDHoHzBbqrMQGKXKsC2YYTBN2m9QHRdnr/lDIPBzQntQCbHI8Dngo3BUv2hQHU8mkCE84zB
/SU2QT13lcC81Z7BMzAOQe7TjT7hwmjByVOQQDGj6T9Nh6DBFq8KQdpaWcDeC4vBC4MqQXLHkMDF
CJTBixALQVMMlj8uaHzBtEwYQYzHYMCSRpXBSBTpQEZ7dz9RuoLBWHaJQDrbdEDhL5TBFL6nQJbU
MEA/qpjBnfniQIVB4L7s3IXBoIq2QEXZ+T/esI/B9O2BQK3asUBeqobBWyQJQVCOC78YSZTB1x79
QFYZIEBitZDBNu9oQPpdkEDFt5zBTbIJQVbVPj9oYbTBQze3QIJuNMArRKnBCoRaQTSr0z9ZikfB
Fd8DQV/vHUHwEo/BvrbjQID2JUGbk3vBBUxXQRjd1L6Ha13Bqp46QUKyRUA6L0HB6pD3QMFA+EDT
vZjBaduuQNFaDEEveWzB1Qo0QYh/h78+4WzBckgXQV14G0DCH1DBbFnbQI0vE0Ap+6rBZeyIQEYN
aL/kkqDBz7f6QCxS47+rz7LBNEuuQP1dw0DvrZrB7vjcQAsdqUCkdZXB0jemQGPwt0BxG3HBHlR4
QHyZ3kCOTnTBX/zbQFARQsB1C3rBrASyQIk0VcDXi4bBQZGiQPHNgr/XeYjBJYWzQGPEhb/3fXXB
83feQC+9OcB/CZXBHHW2QH+1h0D1fYfBtkVDQXixrMCZBZ7BQcoqQeLGoMDu7qTBtLA8QY2IbMDN
Q6HBQRsOQQ/RR79smm3B0kQBQWPL6D4AJ13BYHSCQNkqG0DoCqfBHTptQFAypj+6PpzBDxAUQdHL
OcAOu4TBI+wFQUvNjMB5WYjBSu8jQS/vr8DPl5HBvdU1QZNshcCu7I3BMxwNQcxtDkANwnfBovkW
QXUMaT+KVYTBe+4NQZU5dcBY6ZvBSDEfQVayIcBxHZfBzgHSQCfpmj9Xv3jBFtViQCVRVEAZNo/B
59TCQOHHT0CJvZzBus2gQHRxsz/4zYvBCHFcQILNnEChMoPBiXRiQIqvxEDzmovBFUFLQD2ZeECG
DqHBfm9NQe0D7z9gVUrBWCgFQa6kBkHnYIrB5zD2QAeNDUGe5oDBzKBMQcm4Zz+gz1rBrls6QbTQ
G0BCakLBjd74QFYQ60DlRpDBqZHQQJBgA0Glo3rBILw4QfwmAT+gTGPBYHUmQRw/AkAj4krBMA6Y
QMBHI7+xdajB5kDQQOqMhj/hhanBLx7aQGpMjb8jPrLBKF3TQMNT1kDcr4zB0ay+QBK75EA+PYPB
ZpMlQWpIhz9UKlvBWKenQAW0JD/TqqXB0zmxQFL6wL9Vv67B5ZLpQBh5ND7amq/BQSjMQCTulr85
3oDBvELcQEicBUAbKorBXke/QO/Cs0DAlJPBUNyWQNFXzkCx9n3BxYDxQPwlAcAqS5DBxEUDQY74
Pb/oaozByEHZQJvxHsCtXYbBT+ifQB91l0Af9ozBLYHpQP2j28A9143BVDUQQdnrJj8zm2TBSK6K
QGiWzj/poJ/B/X2yQM3pWMCFF4nBWyTfQCNcscDQKIjBVMAKQUZ+xz+k3XfBuua/QIEJlsDr8o7B
JhnpQIy/mT+KsYDBqXKGQFp8bkD6/JPB3qOjQLPfJUD7JpjBHBvoQPS7P75mjYTBMiq1QP+C6T+Q
Go/BMbKBQFvfs0BxSYfBeTevQDChhb8LqnTBS3v0QKFlPUANe43BQrxnQLKFjUDF2ZzBZA+iQNGL
LsCOgLHBjEgIQWFsFD9TBbPBQKxcQc3dCkCvxkPBXo4TQWN3DkHsHo3Bis0BQXWnGkFEwHjBT0Bb
QV5I8z7P7WDBwf46Qb06S0CW2zXBSRwEQYmm4EAckZfBfWHBQPqfCEEICGzB/yI4QdR3Zr7FBnDB
890XQdaNHkCc6kTBwpBxQDegc7+9xaXBGdLbQN7eAkCXw6fB5pHtQAhc47/F8LbBQZCtQCj1wkAb
K5rBTcHYQKdgn0Ar4pbBVyGgQFuSuUAfiHDBThqAQNmy5kD1TnjBHILbQKPp6L99+pbBqsEEQemi
MMBBx5LBY8ISQcOldb+vnYjBtK0FQWbaJ71OF5PBFjnvQGhvQsC6HIHBPauyQLk0hUDWE4fBKa7/
QB5+7sBN5IjB287LQKDg7cB7FI/BuXL4QNnc1MBLoJXBJwkRQZj2yb4J92nB/K4DQbbqQD89WVjB
V1dxQPlYDUB0gaXBE3ZoQKvegz9Vt5rBlByiQIVFasBxnIHBWGecQATvNMDNQo7BQE/QQMRSuMD7
XoDBHvP8QP1On8DK6obBtZIKQXXbJkBDjXLBHAoXQeTJtj9SJYLBUBSjQI4TqcA+pJDBGKzPQMJz
jcCPhJbBpATRQD5gqT//snTBPDZaQKjbUUDxCY/B/wC+QJKHQkDUwJzBSc2jQJrBhz8/TozBxopW
QKDboUAWyIPBjd5nQCxUx0A5oIzB7I9IQLffc0DnKaHBjAxKQQh8CECiDknBL0ABQa0bC0FE6IjB
VWLsQF12EUFTOn/BnN1KQXTgjT9bjFjB1DM2Qc8cLECpEkPBwabzQCM080DT9Y7BnS7HQKhtBkEv
1XjB+9I3QeGAIj8T+WHBQycjQQLjDUC/ekzB1BeTQI4uKr9YXaXB6SLTQDvXOj/rQqXBWQ7YQCBg
zb9ysKrBvMDOQFKK3EAPuYvB1s+3QMQX6kCZhILBGOQjQR6glj/JwFvBtr+mQKAFFT9oUaPBDKqr
QNdr4L/YFKnBp+DrQOjvu77al6jBKAvRQPBYqr9RAYLBVlvfQOB8+T+ZNIzBHHm+QC3+t0BgqpLB
rFyQQJ8F0kDrZX3BfBn9QJw0EcC+64/B0jYHQdeNa7/qf4zBj9LgQNoLK8Bfh4bBri2dQB6+m0DD
rYzBqKe3QNf548CgMpfBfnMPQXE/MT+EM2bB9k6LQGcj4j/Lwp/BAm67QD8tZsCC8InBPcamQNGP
usATDpLBkwYLQUbywD+GtXrBbkTMQLQMncCv847BoxrrQOWdij9iiYLBJmyFQNBKeEAtQZTBSnuj
QKV3MEAfS5jB0ebrQNIcp756B4bBWFW0QH0aAUDgAI/BN9V6QP6+t0DoW4fBhAayQN1mlr+MQXjB
Cj/7QCq+H0AXkZHB/uxnQNLbkkAsMJ3Bu66YQPVdPMCiE6vByFgLQV2gab6Hw6nBF6JYQR9oH0DY
xUHB6WsPQWeoE0FGZIvBdfD3QFXLHkH233XB6BRaQffTLz9cMV3Bk5k1QXaSXkBiRzfBXEcCQbmm
6UCFG5bBCF+2QM1KC0EsimrByHg4QWoBEr6G823Be/kTQU2nKUB3AUjB4kRiQIrlSL8RFKTBZBri
QK3N2D93LKTBr9nqQBsSHMCYhq3Bf1WvQEp3xUBV3JnB28PZQJLco0DhBZXB2XiZQFHrvECGEXDB
WMVwQL1G6UAH2HfBk0rqQL64C8DiU5fBG5YLQRGJP8AZHJHBwtUVQXlChb+MsofBFrMKQZEalr5n
hJPBHk30QLbqS8B6dYDBizSuQMHriEDOlIbBbIucQD2v+MC4XZnBshPKQHcK3MDhbZ7Bfm3MQLjR
9MDUeZHBRhwRQQE5vr6MWmrBGgkCQUqeUT95/VrBk7iAQJQUFEAI7KbBUXJeQF2dsD/hc5vBLwOo
QHS6dcCR3ILBjoCnQB+ARMDf2I/BQfaRQGjaqcDgypfBDVCUQKihwsDU1orBBkoKQWbgJEDmnHbB
bBQYQaomqz/4GIPBXwPfQLlplcC+JpbBGszgQC+ZrcBgH4nBadPRQOoGmj9O+njBGrlWQBhCWkDp
ro/BCgS+QAuRTUDayZzBylqfQKzUwz+HY4rBA8FMQBtnpUC9OoTBVHthQBtSy0BQ1ozB9QxLQMzA
fkCZxaHB

>  <OMEGA_E>  (236) 
OLMdP/xlHz/Mnyw/PjI7Pw==

>  <OMEGA_NBR>  (236) 
      9527

$$$$
50197271
     RDKit          3D

 96100  0  0  1  0  0  0  0  0999 V2000
   12.7779    2.2192  -12.7424 C   0  0  0  0  0  0  0  0  0  0  0  0
   12.7400    1.1112  -13.6140 C   0  0  0  0  0  0  0  0  0  0  0  0
   11.5842    2.8832  -12.3919 C   0  0  0  0  0  0  0  0  0  0  0  0
    5.2875    9.4684  -15.6707 C   0  0  0  0  0  0  0  0  0  0  0  0
    4.5177    8.4007  -16.1688 C   0  0  0  0  0  0  0  0  0  0  0  0
   11.5077    0.6625  -14.1306 C   0  0  0  0  0  0  0  0  0  0  0  0
   10.3513    2.4360  -12.9077 C   0  0  0  0  0  0  0  0  0  0  0  0
    6.6851    9.4693  -15.8421 C   0  0  0  0  0  0  0  0  0  0  0  0
    4.5951   -0.6013  -20.8562 C   0  0  0  0  0  0  0  0  0  0  0  0
    6.3981    1.0261  -21.0800 C   0  0  0  0  0  0  0  0  0  0  0  0
    6.6508   -1.1924  -22.0408 C   0  0  0  0  0  0  0  0  0  0  0  0
    5.1406    7.3237  -16.8347 C   0  0  0  0  0  0  0  0  0  0  0  0
    6.5470    7.3401  -17.0419 C   0  0  0  0  0  0  0  0  0  0  0  0
   10.3089    1.3151  -13.7662 C   0  0  0  0  0  0  0  0  0  0  0  0
    5.1192    0.6807  -20.5714 C   0  0  0  0  0  0  0  0  0  0  0  0
    7.3169    8.4079  -16.5224 C   0  0  0  0  0  0  0  0  0  0  0  0
    5.3574   -1.5289  -21.5999 C   0  0  0  0  0  0  0  0  0  0  0  0
    7.1690    0.0871  -21.7801 C   0  0  0  0  0  0  0  0  0  0  0  0
    6.3505   -1.1453  -15.9614 C   0  0  0  0  0  0  0  0  0  0  0  0
    7.2898   -3.7033  -14.4702 C   0  0  0  0  0  0  0  0  0  0  0  0
    6.9517    1.9332  -17.5217 C   0  0  0  0  0  0  0  0  0  0  0  0
    4.2701    6.2181  -17.4117 C   0  0  0  0  0  0  0  0  0  0  0  0
    7.2447    6.1792  -17.7397 C   0  0  0  0  0  0  0  0  0  0  0  0
    7.9551   -2.4003  -17.2750 C   0  0  0  0  0  0  0  0  0  0  0  0
    8.0341   -0.9244  -17.6044 C   0  0  0  0  0  0  0  0  0  0  0  0
    5.0944    4.9609  -17.7825 C   0  0  1  0  0  0  0  0  0  0  0  0
    6.5556   -2.5280  -16.6264 C   0  0  2  0  0  0  0  0  0  0  0  0
    7.0383   -4.8627  -13.5080 C   0  0  0  0  0  0  0  0  0  0  0  0
    4.4489   -4.5130  -19.3685 C   0  0  0  0  0  0  0  0  0  0  0  0
    4.0012   -2.7228  -17.0667 C   0  0  0  0  0  0  0  0  0  0  0  0
    8.9898    0.8553  -14.3466 C   0  0  0  0  0  0  0  0  0  0  0  0
    4.2424    1.7114  -19.8614 C   0  0  0  0  0  0  0  0  0  0  0  0
    5.6511   -4.0925  -18.5027 C   0  0  0  0  0  0  0  0  0  0  0  0
    8.7132    1.5838  -15.6815 C   0  0  0  0  0  0  0  0  0  0  0  0
    7.3297    1.1789  -16.2413 C   0  0  2  0  0  0  0  0  0  0  0  0
    4.2297    3.9603  -18.6036 C   0  0  2  0  0  0  0  0  0  0  0  0
    5.4234   -2.7539  -17.7122 C   0  0  2  0  0  0  0  0  0  0  0  0
    5.0647    2.7268  -19.0137 C   0  0  1  0  0  0  0  0  0  0  0  0
    7.2844   -0.2656  -16.5191 N   0  0  0  0  0  0  0  0  0  0  0  0
    6.5052   -3.6173  -15.6226 N   0  0  0  0  0  0  0  0  0  0  0  0
    5.5974    2.0484  -17.8203 N   0  0  0  0  0  0  0  0  0  0  0  0
    6.2954    5.3850  -18.5498 N   0  0  0  0  0  0  0  0  0  0  0  0
    5.5725   -0.8862  -15.0483 O   0  0  0  0  0  0  0  0  0  0  0  0
    8.1004   -2.8348  -14.1622 O   0  0  0  0  0  0  0  0  0  0  0  0
    7.8194    2.3404  -18.2893 O   0  0  0  0  0  0  0  0  0  0  0  0
    8.6706    8.4227  -16.6733 O   0  0  0  0  0  0  0  0  0  0  0  0
    3.7537    4.6048  -19.7906 O   0  0  0  0  0  0  0  0  0  0  0  0
    4.8408   -2.7332  -21.9267 F   0  0  0  0  0  0  0  0  0  0  0  0
    8.3983    0.4312  -22.2268 F   0  0  0  0  0  0  0  0  0  0  0  0
   13.7219    2.5594  -12.3430 H   0  0  0  0  0  0  0  0  0  0  0  0
   13.6552    0.6063  -13.8857 H   0  0  0  0  0  0  0  0  0  0  0  0
   11.6149    3.7346  -11.7282 H   0  0  0  0  0  0  0  0  0  0  0  0
    4.8061   10.2872  -15.1567 H   0  0  0  0  0  0  0  0  0  0  0  0
    3.4453    8.4056  -16.0409 H   0  0  0  0  0  0  0  0  0  0  0  0
   11.4799   -0.1804  -14.8051 H   0  0  0  0  0  0  0  0  0  0  0  0
    9.4384    2.9506  -12.6465 H   0  0  0  0  0  0  0  0  0  0  0  0
    7.2749   10.2852  -15.4514 H   0  0  0  0  0  0  0  0  0  0  0  0
    3.6103   -0.8715  -20.5045 H   0  0  0  0  0  0  0  0  0  0  0  0
    6.7822    2.0237  -20.9260 H   0  0  0  0  0  0  0  0  0  0  0  0
    7.2442   -1.9168  -22.5788 H   0  0  0  0  0  0  0  0  0  0  0  0
    3.5120    5.9378  -16.6656 H   0  0  0  0  0  0  0  0  0  0  0  0
    3.7717    6.5951  -18.3170 H   0  0  0  0  0  0  0  0  0  0  0  0
    8.0303    6.5779  -18.3983 H   0  0  0  0  0  0  0  0  0  0  0  0
    7.6994    5.5265  -16.9799 H   0  0  0  0  0  0  0  0  0  0  0  0
    8.0286   -3.0145  -18.1846 H   0  0  0  0  0  0  0  0  0  0  0  0
    8.7474   -2.6926  -16.5702 H   0  0  0  0  0  0  0  0  0  0  0  0
    9.0800   -0.5839  -17.6174 H   0  0  0  0  0  0  0  0  0  0  0  0
    7.5691   -0.7178  -18.5797 H   0  0  0  0  0  0  0  0  0  0  0  0
    5.4124    4.4649  -16.8536 H   0  0  0  0  0  0  0  0  0  0  0  0
    7.6669   -4.7406  -12.6136 H   0  0  0  0  0  0  0  0  0  0  0  0
    5.9786   -4.8708  -13.2130 H   0  0  0  0  0  0  0  0  0  0  0  0
    7.2879   -5.8119  -14.0046 H   0  0  0  0  0  0  0  0  0  0  0  0
    4.6821   -5.4538  -19.8886 H   0  0  0  0  0  0  0  0  0  0  0  0
    3.5676   -4.6579  -18.7263 H   0  0  0  0  0  0  0  0  0  0  0  0
    4.2378   -3.7274  -20.1089 H   0  0  0  0  0  0  0  0  0  0  0  0
    3.2409   -2.8823  -17.8455 H   0  0  0  0  0  0  0  0  0  0  0  0
    3.9242   -3.5184  -16.3109 H   0  0  0  0  0  0  0  0  0  0  0  0
    3.8369   -1.7458  -16.5887 H   0  0  0  0  0  0  0  0  0  0  0  0
    9.0296   -0.2293  -14.5257 H   0  0  0  0  0  0  0  0  0  0  0  0
    8.1814    1.0801  -13.6353 H   0  0  0  0  0  0  0  0  0  0  0  0
    3.6716    2.2682  -20.6192 H   0  0  0  0  0  0  0  0  0  0  0  0
    3.5465    1.1806  -19.1951 H   0  0  0  0  0  0  0  0  0  0  0  0
    5.8536   -4.8941  -17.7771 H   0  0  0  0  0  0  0  0  0  0  0  0
    6.5239   -3.9636  -19.1597 H   0  0  0  0  0  0  0  0  0  0  0  0
    8.7313    2.6705  -15.5116 H   0  0  0  0  0  0  0  0  0  0  0  0
    9.4920    1.3135  -16.4098 H   0  0  0  0  0  0  0  0  0  0  0  0
    6.5761    1.4141  -15.4753 H   0  0  0  0  0  0  0  0  0  0  0  0
    3.3856    3.6285  -17.9812 H   0  0  0  0  0  0  0  0  0  0  0  0
    5.4844   -1.9250  -18.4327 H   0  0  0  0  0  0  0  0  0  0  0  0
    5.9062    3.0763  -19.6300 H   0  0  0  0  0  0  0  0  0  0  0  0
    5.8514   -4.3564  -15.7848 H   0  0  0  0  0  0  0  0  0  0  0  0
    4.9425    1.6435  -17.1821 H   0  0  0  0  0  0  0  0  0  0  0  0
    5.9981    5.9391  -19.3273 H   0  0  0  0  0  0  0  0  0  0  0  0
    6.7660    4.5681  -18.8832 H   0  0  0  0  0  0  0  0  0  0  0  0
    8.9452    7.6472  -17.1484 H   0  0  0  0  0  0  0  0  0  0  0  0
    3.2257    3.9950  -20.2926 H   0  0  0  0  0  0  0  0  0  0  0  0
  1  2  2  0
  1  3  1  0
  2  6  1  0
  3  7  2  0
  4  5  2  0
  4  8  1  0
  5 12  1  0
  6 14  2  0
  7 14  1  0
  8 16  2  0
  9 15  2  0
  9 17  1  0
 10 15  1  0
 10 18  2  0
 11 17  2  0
 11 18  1  0
 12 13  2  0
 12 22  1  0
 13 16  1  0
 13 23  1  0
 14 31  1  0
 15 32  1  0
 16 46  1  0
 17 48  1  0
 18 49  1  0
 19 27  1  0
 19 39  1  0
 19 43  2  0
 20 28  1  0
 20 40  1  0
 20 44  2  0
 21 35  1  0
 21 41  1  0
 21 45  2  0
 22 26  1  0
 23 42  1  0
 24 25  1  0
 24 27  1  0
 25 39  1  0
 26 36  1  0
 26 42  1  0
 27 37  1  0
 27 40  1  1
 29 33  1  0
 30 37  1  0
 31 34  1  0
 32 38  1  0
 33 37  1  0
 34 35  1  0
 35 39  1  0
 36 38  1  0
 36 47  1  0
 38 41  1  0
  1 50  1  0
  2 51  1  0
  3 52  1  0
  4 53  1  0
  5 54  1  0
  6 55  1  0
  7 56  1  0
  8 57  1  0
  9 58  1  0
 10 59  1  0
 11 60  1  0
 22 61  1  0
 22 62  1  0
 23 63  1  0
 23 64  1  0
 24 65  1  0
 24 66  1  0
 25 67  1  0
 25 68  1  0
 26 69  1  1
 28 70  1  0
 28 71  1  0
 28 72  1  0
 29 73  1  0
 29 74  1  0
 29 75  1  0
 30 76  1  0
 30 77  1  0
 30 78  1  0
 31 79  1  0
 31 80  1  0
 32 81  1  0
 32 82  1  0
 33 83  1  0
 33 84  1  0
 34 85  1  0
 34 86  1  0
 35 87  1  1
 36 88  1  1
 37 89  1  6
 38 90  1  6
 40 91  1  0
 41 92  1  0
 42 93  1  0
 42 94  1  0
 46 95  1  0
 47 96  1  0
M  CHG  1  42   1
M  END
>  <OMEGA_C>  (237) 
SXJMQcEGDkDk4EvB5tZLQTo6jj//0lnBD1k5QamGOEBZRUbBNDOpQGJ+F0Eau3rB0ZCQQEFpBkHJ
WYHBhh84QQebKT/FFmLB+Z4lQTPnG0AThk7BH+zVQBGCF0FAeX3BtgqTQN3sGb982abBfr3MQNpW
gz/Oo6jBVtPUQHSfmL+HU7DBNICkQOVb6kCMrYbBpYDRQO3h6kDbVYjBEvEkQT1VqD9cQlzBtNCj
QMdCLj9RkqTBTCTqQLWGBkH3LYTBl2+rQNGzw7+UzKzBjGjlQCRtsj2oPa7BUDfLQGeZkr/rYX/B
b0bpQCYDbcD7hWfBMnTeQKpy9z9oLIzBe6SIQOD6xkAvS4vBPNTnQLW7xUDc6o3BH5D+QBieGcA/
M4rBm4sAQYmibL/X1YzBkgWjQMe/nkCcQo7BosfRQBLLIcDxAoXBuDnhQD6bm8DUIFjBS12OQFBq
kMCj8prBwAmAQMxCLsCJiIjBLtYPQRf4Wj/di2XBZsGHQM8P2z8Y5J7BAta0QPH1gsB+BZTBSmkL
QU67yj9S53rB2YzqQKHklj8u7oHBflmHQMZ0fUAs1JTB2YytQJlAMMB8so3BJBKiQPeDLkABHJjB
ABrpQCj9h74LJ4TBsyrQQHyCZ8BR9nnBiR2zQHMYA0D8j47B/3PJQBZSrEDxZZTB1lGyQJzcYr/Y
xXDBJZsBQTBtNcBwmGLBZTj6QILIFUB5UJLBr7oKQVnDBkEEY4XBBDxwQHtak0AiU57Bw+eaQOHs
LsDbaa/BYV8GQW/F3D6S0LHB3YxbQTXNI0DvfEXB2ntaQVM4Gz/zK17BpNY5QfYDb0CTpjvB3suZ
QIOYJEEKgnLBqn9cQIZ9BkHMU4DB1K03QULBOL7j4WzB2AMXQUfWPED0V0rB6svoQF6QJEHQOHfB
sg9nQA4aX78wCaTBrwfZQP2DAUB1aKfBoNDnQMxY9b9wobTB4cRgQFECvkAOU4XBRmNxQEUL00Ai
iZLBJ3wAQTN+0kCsL5PBrGH2QGnZsEDT1ofBDHUAQdLsQMAeepHBYPULQe1TLMDGj4TBokcRQfh5
Fb9m8IzBOzbyQFrBN78vo5TBATKtQDTgjkA21IbBLVf1QNayl8Bc0UnBAFG/QNXdm8BHaFPBpTbp
QGX7ucABE2DB2tOVQEGFrsDXG5/BoFNkQHANlcCLz5XBd5yHQCONbsAX36DBT2tPQCd4OMCNw47B
CSZ7QLAsYcCwfILBso91QAx337+htYTBFnkQQa3Aar5PaWjB8eYCQS1Cij9kKlrBGvxqQIspEUAl
9KTBePliQC8dlz+Dj5nBClG7QF2cnMB8N47BscPQQPuqfcAIR5nBa7MLQXXpKkClL3jBEd8XQR0i
qD9NR4PBjW/SQHQBtT/EmnfBS61YQO44aEBu2Y/BTYCvQOtn9r8zdpPBYv+8QErhREAyCp3BmT67
QKhni8CajnzB6CieQL1f0j/9dInBm/C/QCwNvkBlnprBaoPYQN0tkkC2EJfBhx8PQd219ED4L4nB
RXJOQN2uf0AzV6LB

>  <OMEGA_E>  (237) 
9kBOPw==

>  <OMEGA_NBR>  (237) 
     11419

$$$$
50216825
     RDKit          3D

 90 93  0  0  1  0  0  0  0  0999 V2000
    6.7476   -1.7727  -21.4699 C   0  0  0  0  0  0  0  0  0  0  0  0
    7.4009   -0.5382  -21.2849 C   0  0  0  0  0  0  0  0  0  0  0  0
    5.3576   -1.8724  -21.2653 C   0  0  0  0  0  0  0  0  0  0  0  0
    7.7753    8.1687  -18.2744 C   0  0  0  0  0  0  0  0  0  0  0  0
    6.6628    0.6003  -20.9064 C   0  0  0  0  0  0  0  0  0  0  0  0
    4.6199   -0.7398  -20.8742 C   0  0  0  0  0  0  0  0  0  0  0  0
    6.8844    7.5857  -17.3521 C   0  0  0  0  0  0  0  0  0  0  0  0
    7.3091    8.5938  -19.5357 C   0  0  0  0  0  0  0  0  0  0  0  0
    5.0537    7.8843  -18.9383 C   0  0  0  0  0  0  0  0  0  0  0  0
    5.2675    0.5005  -20.6892 C   0  0  0  0  0  0  0  0  0  0  0  0
    5.5221    7.4474  -17.6841 C   0  0  0  0  0  0  0  0  0  0  0  0
    5.9457    8.4247  -19.8841 C   0  0  0  0  0  0  0  0  0  0  0  0
    6.4932   -1.6093  -15.8949 C   0  0  0  0  0  0  0  0  0  0  0  0
    6.5364    1.8183  -17.3317 C   0  0  0  0  0  0  0  0  0  0  0  0
    7.9604   -5.0043  -15.9872 C   0  0  0  0  0  0  0  0  0  0  0  0
    8.1658   -3.5207  -15.7180 C   0  0  0  0  0  0  0  0  0  0  0  0
    7.7006   -2.2718  -17.8947 C   0  0  0  0  0  0  0  0  0  0  0  0
    7.9929   -0.8446  -17.5160 C   0  0  0  0  0  0  0  0  0  0  0  0
    6.4547   -5.0941  -16.1906 C   0  0  0  0  0  0  0  0  0  0  0  0
    7.1017   -2.8387  -16.6116 C   0  0  2  0  0  0  0  0  0  0  0  0
    2.7836   -3.4735  -18.5982 C   0  0  0  0  0  0  0  0  0  0  0  0
    6.3236    8.3685  -22.3934 C   0  0  0  0  0  0  0  0  0  0  0  0
    5.2105   10.3636  -21.2995 C   0  0  0  0  0  0  0  0  0  0  0  0
    7.8289    1.3015  -15.1760 C   0  0  0  0  0  0  0  0  0  0  0  0
    4.4348    1.7257  -20.3498 C   0  0  0  0  0  0  0  0  0  0  0  0
    4.5645    6.8001  -16.7115 C   0  0  0  0  0  0  0  0  0  0  0  0
    4.1554   -4.0948  -18.3526 C   0  0  0  0  0  0  0  0  0  0  0  0
    4.7311   -3.5362  -17.0594 C   0  0  0  0  0  0  0  0  0  0  0  0
    4.7635    4.5722  -17.7354 C   0  0  0  0  0  0  0  0  0  0  0  0
    5.4030    8.8386  -21.2480 C   0  0  0  0  0  0  0  0  0  0  0  0
    6.6814    0.8898  -16.1220 C   0  0  2  0  0  0  0  0  0  0  0  0
    5.0641    2.5848  -19.2325 C   0  0  1  0  0  0  0  0  0  0  0  0
    4.0908    3.6920  -18.7894 C   0  0  2  0  0  0  0  0  0  0  0  0
    6.8872   -0.4774  -16.6137 N   0  0  0  0  0  0  0  0  0  0  0  0
    5.3691    1.7273  -18.0773 N   0  0  0  0  0  0  0  0  0  0  0  0
    6.1520   -3.9151  -17.0160 N   0  0  2  0  0  0  0  0  0  0  0  0
    3.8652    5.6809  -17.3696 N   0  0  0  0  0  0  0  0  0  0  0  0
    5.7942   -1.6246  -14.8868 O   0  0  0  0  0  0  0  0  0  0  0  0
    7.4492    2.5683  -17.6638 O   0  0  0  0  0  0  0  0  0  0  0  0
    3.7340    4.5072  -19.9061 O   0  0  0  0  0  0  0  0  0  0  0  0
    7.3129   -2.6430  -21.7689 H   0  0  0  0  0  0  0  0  0  0  0  0
    8.4682   -0.4648  -21.4333 H   0  0  0  0  0  0  0  0  0  0  0  0
    4.8576   -2.8189  -21.4088 H   0  0  0  0  0  0  0  0  0  0  0  0
    8.8167    8.2903  -18.0154 H   0  0  0  0  0  0  0  0  0  0  0  0
    7.1618    1.5500  -20.7818 H   0  0  0  0  0  0  0  0  0  0  0  0
    3.5547   -0.8199  -20.7150 H   0  0  0  0  0  0  0  0  0  0  0  0
    7.2448    7.2456  -16.3925 H   0  0  0  0  0  0  0  0  0  0  0  0
    7.9922    9.0490  -20.2374 H   0  0  0  0  0  0  0  0  0  0  0  0
    4.0033    7.8043  -19.1763 H   0  0  0  0  0  0  0  0  0  0  0  0
    8.5035   -5.3241  -16.8887 H   0  0  0  0  0  0  0  0  0  0  0  0
    8.2831   -5.6128  -15.1295 H   0  0  0  0  0  0  0  0  0  0  0  0
    7.9960   -3.2868  -14.6566 H   0  0  0  0  0  0  0  0  0  0  0  0
    9.1800   -3.2061  -16.0050 H   0  0  0  0  0  0  0  0  0  0  0  0
    6.9815   -2.3232  -18.7255 H   0  0  0  0  0  0  0  0  0  0  0  0
    8.6213   -2.8056  -18.1732 H   0  0  0  0  0  0  0  0  0  0  0  0
    8.9606   -0.7685  -16.9985 H   0  0  0  0  0  0  0  0  0  0  0  0
    8.0013   -0.1984  -18.4061 H   0  0  0  0  0  0  0  0  0  0  0  0
    6.1829   -6.0221  -16.7149 H   0  0  0  0  0  0  0  0  0  0  0  0
    5.9239   -5.0477  -15.2283 H   0  0  0  0  0  0  0  0  0  0  0  0
    2.3614   -3.8731  -19.5320 H   0  0  0  0  0  0  0  0  0  0  0  0
    2.1151   -3.7179  -17.7596 H   0  0  0  0  0  0  0  0  0  0  0  0
    2.8853   -2.3812  -18.6798 H   0  0  0  0  0  0  0  0  0  0  0  0
    5.9001    8.6848  -23.3582 H   0  0  0  0  0  0  0  0  0  0  0  0
    7.3216    8.8136  -22.2677 H   0  0  0  0  0  0  0  0  0  0  0  0
    6.4057    7.2718  -22.3711 H   0  0  0  0  0  0  0  0  0  0  0  0
    4.8191   10.6511  -22.2865 H   0  0  0  0  0  0  0  0  0  0  0  0
    4.4981   10.6697  -20.5193 H   0  0  0  0  0  0  0  0  0  0  0  0
    6.1768   10.8609  -21.1293 H   0  0  0  0  0  0  0  0  0  0  0  0
    7.8794    0.5979  -14.3320 H   0  0  0  0  0  0  0  0  0  0  0  0
    8.7815    1.2833  -15.7258 H   0  0  0  0  0  0  0  0  0  0  0  0
    7.6442    2.3171  -14.7960 H   0  0  0  0  0  0  0  0  0  0  0  0
    4.3340    2.3439  -21.2541 H   0  0  0  0  0  0  0  0  0  0  0  0
    3.4393    1.3939  -20.0197 H   0  0  0  0  0  0  0  0  0  0  0  0
    5.1253    6.4210  -15.8444 H   0  0  0  0  0  0  0  0  0  0  0  0
    3.8275    7.5440  -16.3748 H   0  0  0  0  0  0  0  0  0  0  0  0
    4.0555   -5.1871  -18.2696 H   0  0  0  0  0  0  0  0  0  0  0  0
    4.8257   -3.8505  -19.1899 H   0  0  0  0  0  0  0  0  0  0  0  0
    4.6326   -2.4407  -17.0453 H   0  0  0  0  0  0  0  0  0  0  0  0
    4.2007   -3.9631  -16.1954 H   0  0  0  0  0  0  0  0  0  0  0  0
    4.9837    3.9697  -16.8419 H   0  0  0  0  0  0  0  0  0  0  0  0
    5.7005    4.9797  -18.1429 H   0  0  0  0  0  0  0  0  0  0  0  0
    4.4195    8.3654  -21.3855 H   0  0  0  0  0  0  0  0  0  0  0  0
    5.7422    0.9251  -15.5504 H   0  0  0  0  0  0  0  0  0  0  0  0
    5.9870    3.0476  -19.6122 H   0  0  0  0  0  0  0  0  0  0  0  0
    3.1958    3.2264  -18.3510 H   0  0  0  0  0  0  0  0  0  0  0  0
    4.6952    1.0373  -17.8131 H   0  0  0  0  0  0  0  0  0  0  0  0
    6.4014   -4.1615  -17.9526 H   0  0  0  0  0  0  0  0  0  0  0  0
    3.1663    5.3315  -16.7456 H   0  0  0  0  0  0  0  0  0  0  0  0
    3.4281    6.0239  -18.2012 H   0  0  0  0  0  0  0  0  0  0  0  0
    3.3145    3.9712  -20.5689 H   0  0  0  0  0  0  0  0  0  0  0  0
  1  2  2  0
  1  3  1  0
  2  5  1  0
  3  6  2  0
  4  7  2  0
  4  8  1  0
  5 10  2  0
  6 10  1  0
  7 11  1  0
  8 12  2  0
  9 11  2  0
  9 12  1  0
 10 25  1  0
 11 26  1  0
 12 30  1  0
 13 20  1  0
 13 34  1  0
 13 38  2  0
 14 31  1  0
 14 35  1  0
 14 39  2  0
 15 16  1  0
 15 19  1  0
 20 16  1  1
 17 18  1  0
 17 20  1  0
 18 34  1  0
 19 36  1  0
 20 36  1  0
 21 27  1  0
 22 30  1  0
 23 30  1  0
 24 31  1  0
 25 32  1  0
 26 37  1  0
 27 28  1  0
 28 36  1  0
 29 33  1  0
 29 37  1  0
 31 34  1  0
 32 33  1  0
 32 35  1  0
 33 40  1  0
  1 41  1  0
  2 42  1  0
  3 43  1  0
  4 44  1  0
  5 45  1  0
  6 46  1  0
  7 47  1  0
  8 48  1  0
  9 49  1  0
 15 50  1  0
 15 51  1  0
 16 52  1  0
 16 53  1  0
 17 54  1  0
 17 55  1  0
 18 56  1  0
 18 57  1  0
 19 58  1  0
 19 59  1  0
 21 60  1  0
 21 61  1  0
 21 62  1  0
 22 63  1  0
 22 64  1  0
 22 65  1  0
 23 66  1  0
 23 67  1  0
 23 68  1  0
 24 69  1  0
 24 70  1  0
 24 71  1  0
 25 72  1  0
 25 73  1  0
 26 74  1  0
 26 75  1  0
 27 76  1  0
 27 77  1  0
 28 78  1  0
 28 79  1  0
 29 80  1  0
 29 81  1  0
 30 82  1  0
 31 83  1  1
 32 84  1  6
 33 85  1  1
 35 86  1  0
 36 87  1  6
 37 88  1  0
 37 89  1  0
 40 90  1  0
M  CHG  2  36   1  37   1
M  END
>  <OMEGA_C>  (238) 
9+vXQBTn4r9xwqvBeNTsQJrGCb9uR6rBPXGrQMeq779nH6rBCc/4QO+yAkEAMpLBCjbVQEasGT9T
QKfBjdaTQFRjPb9c/qbBMU3cQG2+8kAQ0YrBzOPpQBeACUEMSZzBTrihQFJM/EC3gZfBQo+oQFch
AD9+g6XBCLWwQDZR7kASeY3BRUO+QLbLBkGYEp/B9cfPQEb9zb+1UX7BzynRQPe+6D9Ap4rBe7v+
QO8ioMBry3/BPKcCQVlTYcDGfHvBn2v2QHNlEcBwKI/B78X/QL44WL+xIIzBk4zOQJACo8BdhoHB
w0DjQPasNcCn5ITBHicyQHpNXsAZyZTBp1rKQIvlBUHFJbPBZrymQDXRJUFwZarBmYb6QFqXpj/2
0HLBy+mNQADl3D97zKLByhCSQHma2UAjsYXBH/mEQKMIg8AR0pLBO2WXQNZQYsCOeYjB826YQNZP
kkAt4o3BD+WsQBlrDUHm+6nBo83VQAPNYz/E+YDBTg2iQBRuJUA73JnBveeCQJRJbEC+UJbB+2Pc
QHRw9L7G6ITBjc+rQOMW3T9GnpDBHt3EQMiQesDKIIjB7l53QFXKtUAJ9YrBUmq5QC7yz79lMG7B
3V/uQHFfJEBfT43BpvluQDg7kEDKP5/B7wLqQAknKcCkJq7BoX0HQUX27b5Wd6vBOXGbQIhoNMAl
RavBGBENQeGkBEF4H5DBbC3lQPNlxj80QabB14BjQMHhUb9euKXBhtXnQK3b50DXI4PBYcD/QLDI
EEE25qHBRBuAQJW8+UD/aJnBdw4IQd9eqsD9G4fBaIcEQcWbs8BfEnLB5t7/QLhaUsCQgWrBbeES
QYcwTcBBCoDBfWjfQOeuFMDlzZXBv/AJQZ6OM8CoYpHBsF4PQS67RL/2/IfBKQUAQXoyS768P5PB
89nFQMe0wMA1uIXBYpC9QOyGocDwpnPBcCEXQObgd8CTQZzBgl0HQLPxbcCUE47BSag4QA1mGMA9
cJXB1828QPH0CkGD3brBs0rqQH0EDUEzJLLBRfvMQOWy6ED197LBIzaaQAtrKkHFSrLBF/CPQP62
KkGQJ6TB+qfFQGLGLUHICKnBqiP8QOgNGT/cT2XBEIEMQQNDpD/fnHvBq530QJVLFEBuvGzBgrCK
QC0CFkB6CKrBDh5cQM5rsj9yKKDBpwKkQDx5zUCrgn3Bk/V0QF1o8UCK/4LBWMaBQM38pcA0KJLB
u2uaQPVtdsDchJnBmj6UQEQ0HMDCXIjBbGyGQMCjfcApkIHB23qfQGEPfkAuvIbBjWq2QO5Zn0C+
JJHB7myNQInYBUF2FavB+b+3QHjSbD9GznjBQJW/QHkMQ0Dh5ZzBPYhMQNB8TkDYzpLB+z6WQCzF
hD9QgY7B89fMQKwqhcDVno/B36RKQGabqkDw9oXBemZbQGrDwED5m5HBESFUQKYofkAfjaTB4wnY
QFkq3r801avB70nsQPIy+r4udKrBscGrQMdZ7r8G/anBWBf+QMfC/0BmhpDBeDzUQFZiIj9TR6fB
HruTQC2wPr/0tabBGP/cQMWw7kDfNorBhsD0QEIOCUFIiZrBdgSpQEG9AEGyDJjBT9qnQOaAAT9P
RqXBC3iyQAGf70Ch7I3BFDPKQO7LCUHYVZ7BX57QQKUK0L/MIH7BHb7QQB7B5z8pbIrBXFf/QMWR
oMAwJ4DBkCYDQX9SYsDE8HvBhZL2QNHeEMCAPI/BMLv/QB9YVr/OI4zBhxDPQPUio8BZoYHBOerj
QFINNsDY9YTBCe8xQJ7bX8B+lJTBAm+ZQJHKIUEzcanBCDK9QOZ1AUFNvbHBzAj6QDVNpT8/WnLB
V8aMQJc12z9zXqLBA2aPQA1y3UCC6IbBCRWFQMVtg8AZspLB1O2XQMX/YcDydYjBIdSWQFTmk0DE
5Y3BQ5zBQDlqE0H7X6nBEo3VQMMxYD88y4DBVhWhQC5aJUB4gJnBRcuBQIxQbEDsFpbB1ZDcQD7c
+L7NzITBpOSqQH6q3j8aM5DBtVrFQL+XesABL4jBZoZ0QPTRuED5FIzBL5e6QLOq078V423BMmnu
QM3tIUCKS43BxtRrQGDqjkAYOZ/BL3vqQMgWJsBDTq7BsyIHQYOuyb4R1avBcDycQOZMNMAzF6vB
5VsPQQ7K/kCnr43Bd6vjQIQHzD9eX6bBTJVjQF4+WL8oSqXBajXkQKTW4EC+gYLBLycHQaWUD0El
Wp/BBIiIQJ6pAEFO/5rBsyUIQbrHqsAzbofBTPMEQb83tMDssHLBKrgAQR6dU8DI5mrBe1QTQa9v
TsDfYYDBClLfQC4QFMC+1JXB7QcKQSB9MsD1kJHB3m0PQUkTQr96FIjBfYj/QAU/PL79N5PBc/bF
QHi9wMDwz4XBBXe+QIGZocBtwnPBmloWQJBHesDw+JvB3ekHQMstb8DDyI3BJuc3QLT5GcAPV5XB
cY6UQOFTKEF1hbHBe6d6QG9GGEHPHKfB0sidQNUDL0HfvKPBoQa3QG+FCEG+prnB3PvaQGcz8ECh
BLLBjWyiQCTb7UDrha/BpMX7QLsaFT+J7GTBBEoMQeKbpD+iGXvBXcfzQJFdE0BxK2zBeoqIQC84
FUDrkKnBg71aQOUTrj+FkZ/BPm6dQOvd0kAOkX7B7fNuQIKF9kAmXoXBxSSCQO9epsBE7ZHBaiOa
QMeJd8CQe5nBSuqUQJDbG8C5eIjBHyuHQBhdfMCLdYHBcM2bQHebgkCLVYbBD9S1QAofn0Ap+5DB
V0XdQDNZHUGymavBiG63QG/+ZT+CfHjBtY++QJTIQkB+mZzBH8RKQHOoTkAec5LBBu2UQI5CiT8j
443BWCXNQCsZhcCWsY/BIhJEQBBRr0A/bYfBMqhdQJFxwkDnJ5PBjJhRQB3AeUAGY6TBy47QQGeq
0L96V6vBU57nQFrn2b6qYKrBGaOkQHzf1L9czqjB53r/QLMFAEEfZZDB67TSQBHuPz+9/qbB68OP
QPIS/L4FSqXBRD3fQJpb7EBwRIrBsVv1QIeKCUFQSprBTVeqQJwYAEF5x5fBpKemQCv+OD/hXKTB
Ise0QHqh60DWCI7BKLHKQFrPCUEuBJ7BZSzUQBNt3L/+eH7B7JPYQHwN4D+E84jBlAP4QF08pMBC
lX7Bk7IDQV7ja8CA833Bgnv4QKnfEsDe0Y/BXsIBQf/5Zr9PKozBX+jHQJLan8DF+IDBQsPlQGq7
OsAPuoXBuNEnQCIOaMBacpPBVwOZQL+TIUHT9qjBJd+6QK63AEFJMbHBnPAAQSS7jD9+OnDB/dyP
QKCQ/j+pcaDBeeCSQNdA1EBsnofBoJd1QKXCi8AY/Y7BxYGZQPHEVcCSXorBluyGQIbinkCjPJbB
iPbAQIIKE0G2EqnBvKjcQM8ERT+Men/BBVuoQGiiKUCq+5bBJFqOQF91akCcSpDBP53hQNI5EL8p
aYTBVhC1QOdlzz9GbI/B98DEQJJMesDV4IjBLj9nQGmDvkDFwo7Bk2q+QBvq478+J27B64L0QIEf
JUDx1orBGNlLQDNZR0AKZI3BN4fgQEzCIcCABa7BqK4EQQYhzr6LO6zB2+6SQHx+JcB3jqnB1AUQ
QU1HAEFPgY3BhF/kQHho1j+6aKbB4E5cQOgIBr9PS6PBCg/nQKLP3UB9rYLBijEHQXWuEEFgD5/B
moCJQMOFAEGodprB5HYDQVzDtcA484XBNBL/QNu0tMAlb2/BqA4EQbzLU8Dzam3BJ7kTQYQIZsAC
ioLBCc/gQGCZEcCPVJbB8JYKQRaiNcCle5LB35QRQYJBYr9kUIjB758BQY3ITb7T8ZLBBh66QL60
vcB/HITBIq+3QOgkl8CW8XLBkMH0P+87i8Ai15bBRH8IQJsaRMD0+IzBz548QLxpO8AZvJnBnj6T
QGjXJ0F6D7HB8h96QN5CGEGYVabBf0OeQFv8LkHLaqPBp+GzQH91B0GdIbnBFU/YQIQ07kB0mrHB
jhSgQJcG7UBXoq7B8IIBQYwAtT5eTmPBcxoQQYpgij+OKHnBSgP9QIFjBkBMU2nB2cqNQBI+LUD+
FqfBdtteQGF53D8hxZ3B33qiQC8svECKhYLB2cKBQN9u60BwkILB2zFhQEMOosCdrIjBs6iKQNS1
ncDDb5XBX5KbQG77HsAb34/BlkONQC0DQMB4lILB1pmlQPc6q0DNQJnB5iNiQChSmUBl/pzBloXc
QDa2HEH0o6vBKsq+QJ1bTD+NLXbBVd/EQPsLSkA8LZrBXMagQMK9eEAyAonBDHOjQNi9ST/V5I7B
rsXNQN9EicBA7o/B6pI8QMA7r0DjLorBJWpJQJLg1EDOGZPByz5UQGcRE0DYp4nB

>  <OMEGA_E>  (238) 
IJ2APQAvTz3QatI+

>  <OMEGA_NBR>  (238) 
      6038

$$$$
50161015
     RDKit          3D

 86 88  0  0  1  0  0  0  0  0999 V2000
    6.3788   -1.9391  -21.2457 C   0  0  0  0  0  0  0  0  0  0  0  0
    7.1184   -0.7438  -21.3489 C   0  0  0  0  0  0  0  0  0  0  0  0
    5.0118   -1.9000  -20.9071 C   0  0  0  0  0  0  0  0  0  0  0  0
    7.5677    8.4028  -16.6296 C   0  0  0  0  0  0  0  0  0  0  0  0
    6.4914    0.4926  -21.1171 C   0  0  0  0  0  0  0  0  0  0  0  0
    4.3840   -0.6653  -20.6665 C   0  0  0  0  0  0  0  0  0  0  0  0
    6.5042    7.6249  -16.1486 C   0  0  0  0  0  0  0  0  0  0  0  0
    7.5325    8.9147  -17.9433 C   0  0  0  0  0  0  0  0  0  0  0  0
    5.3325    7.9260  -18.2784 C   0  0  0  0  0  0  0  0  0  0  0  0
    5.1240    0.5314  -20.7745 C   0  0  0  0  0  0  0  0  0  0  0  0
    5.3949    7.3816  -16.9708 C   0  0  0  0  0  0  0  0  0  0  0  0
    6.4237    8.6669  -18.7862 C   0  0  0  0  0  0  0  0  0  0  0  0
    6.5675    1.5756  -17.5323 C   0  0  0  0  0  0  0  0  0  0  0  0
    4.3383   -3.5792  -17.0571 C   0  0  0  0  0  0  0  0  0  0  0  0
    8.0561   -0.3642  -14.4935 C   0  0  0  0  0  0  0  0  0  0  0  0
    7.9268    0.7471  -15.5428 C   0  0  0  0  0  0  0  0  0  0  0  0
    8.1349   -1.7412  -15.1717 C   0  0  0  0  0  0  0  0  0  0  0  0
    6.7545   -0.8630  -17.1116 C   0  0  0  0  0  0  0  0  0  0  0  0
    6.6815    0.5164  -16.4334 C   0  0  2  0  0  0  0  0  0  0  0  0
    6.8806   -1.9890  -16.0527 C   0  0  1  0  0  0  0  0  0  0  0  0
    3.2005   -3.6078  -18.0729 C   0  0  0  0  0  0  0  0  0  0  0  0
    5.3989   10.0539  -20.6943 C   0  0  0  0  0  0  0  0  0  0  0  0
    6.4005    7.7851  -21.1314 C   0  0  0  0  0  0  0  0  0  0  0  0
    6.9681   -4.5409  -15.6541 C   0  0  0  0  0  0  0  0  0  0  0  0
    8.0589   -3.6137  -17.7044 C   0  0  0  0  0  0  0  0  0  0  0  0
    4.4528    1.8491  -20.5057 C   0  0  0  0  0  0  0  0  0  0  0  0
    4.2918    6.5229  -16.4336 C   0  0  0  0  0  0  0  0  0  0  0  0
    4.8932    4.5870  -17.8194 C   0  0  0  0  0  0  0  0  0  0  0  0
    6.4971    9.0579  -20.2678 C   0  0  0  0  0  0  0  0  0  0  0  0
    5.1411    2.6017  -19.3445 C   0  0  1  0  0  0  0  0  0  0  0  0
    4.2635    3.7802  -18.9432 C   0  0  1  0  0  0  0  0  0  0  0  0
    6.8732   -3.4160  -16.7203 C   0  0  0  0  0  0  0  0  0  0  0  0
    5.3511    1.7086  -18.1883 N   0  0  0  0  0  0  0  0  0  0  0  0
    5.6490   -3.5987  -17.5321 N   0  0  0  0  0  0  0  0  0  0  0  0
    3.8758    5.5859  -17.4637 N   0  0  0  0  0  0  0  0  0  0  0  0
    7.5473    2.2304  -17.8743 O   0  0  0  0  0  0  0  0  0  0  0  0
    4.0746   -3.4061  -15.8724 O   0  0  0  0  0  0  0  0  0  0  0  0
    2.9848    3.3096  -18.5056 O   0  0  0  0  0  0  0  0  0  0  0  0
    6.8615   -2.8881  -21.4268 H   0  0  0  0  0  0  0  0  0  0  0  0
    8.1668   -0.7779  -21.6060 H   0  0  0  0  0  0  0  0  0  0  0  0
    4.4469   -2.8174  -20.8323 H   0  0  0  0  0  0  0  0  0  0  0  0
    8.4151    8.6101  -15.9929 H   0  0  0  0  0  0  0  0  0  0  0  0
    7.0550    1.4100  -21.2012 H   0  0  0  0  0  0  0  0  0  0  0  0
    3.3380   -0.6328  -20.3998 H   0  0  0  0  0  0  0  0  0  0  0  0
    6.5397    7.2154  -15.1498 H   0  0  0  0  0  0  0  0  0  0  0  0
    8.3611    9.5025  -18.3098 H   0  0  0  0  0  0  0  0  0  0  0  0
    4.4524    7.7746  -18.8856 H   0  0  0  0  0  0  0  0  0  0  0  0
    8.9692   -0.1993  -13.9028 H   0  0  0  0  0  0  0  0  0  0  0  0
    7.1798   -0.3380  -13.8291 H   0  0  0  0  0  0  0  0  0  0  0  0
    7.8309    1.7166  -15.0321 H   0  0  0  0  0  0  0  0  0  0  0  0
    8.8268    0.7532  -16.1752 H   0  0  0  0  0  0  0  0  0  0  0  0
    9.0344   -1.7820  -15.8036 H   0  0  0  0  0  0  0  0  0  0  0  0
    8.1939   -2.5219  -14.3990 H   0  0  0  0  0  0  0  0  0  0  0  0
    5.8407   -1.0237  -17.7024 H   0  0  0  0  0  0  0  0  0  0  0  0
    7.6307   -0.8926  -17.7761 H   0  0  0  0  0  0  0  0  0  0  0  0
    5.7816    0.5563  -15.8019 H   0  0  0  0  0  0  0  0  0  0  0  0
    5.9985   -1.9297  -15.3982 H   0  0  0  0  0  0  0  0  0  0  0  0
    2.2418   -3.4579  -17.5547 H   0  0  0  0  0  0  0  0  0  0  0  0
    3.3477   -2.8054  -18.8107 H   0  0  0  0  0  0  0  0  0  0  0  0
    3.1916   -4.5807  -18.5860 H   0  0  0  0  0  0  0  0  0  0  0  0
    5.5114   10.2890  -21.7630 H   0  0  0  0  0  0  0  0  0  0  0  0
    4.4097    9.6057  -20.5198 H   0  0  0  0  0  0  0  0  0  0  0  0
    5.4924   10.9774  -20.1041 H   0  0  0  0  0  0  0  0  0  0  0  0
    6.4525    8.0587  -22.1956 H   0  0  0  0  0  0  0  0  0  0  0  0
    7.2340    7.1109  -20.8851 H   0  0  0  0  0  0  0  0  0  0  0  0
    5.4459    7.2770  -20.9298 H   0  0  0  0  0  0  0  0  0  0  0  0
    6.9605   -5.5212  -16.1529 H   0  0  0  0  0  0  0  0  0  0  0  0
    7.9016   -4.4272  -15.0834 H   0  0  0  0  0  0  0  0  0  0  0  0
    6.1094   -4.4709  -14.9701 H   0  0  0  0  0  0  0  0  0  0  0  0
    8.0086   -4.6216  -18.1421 H   0  0  0  0  0  0  0  0  0  0  0  0
    7.9991   -2.8626  -18.5059 H   0  0  0  0  0  0  0  0  0  0  0  0
    9.0087   -3.4965  -17.1622 H   0  0  0  0  0  0  0  0  0  0  0  0
    4.5020    2.4684  -21.4135 H   0  0  0  0  0  0  0  0  0  0  0  0
    3.4003    1.6682  -20.2419 H   0  0  0  0  0  0  0  0  0  0  0  0
    4.6513    5.9683  -15.5543 H   0  0  0  0  0  0  0  0  0  0  0  0
    3.4395    7.1556  -16.1449 H   0  0  0  0  0  0  0  0  0  0  0  0
    5.1208    3.9413  -16.9585 H   0  0  0  0  0  0  0  0  0  0  0  0
    5.8154    5.0779  -18.1636 H   0  0  0  0  0  0  0  0  0  0  0  0
    7.4753    9.5255  -20.4533 H   0  0  0  0  0  0  0  0  0  0  0  0
    6.1109    2.9823  -19.6974 H   0  0  0  0  0  0  0  0  0  0  0  0
    4.1387    4.4361  -19.8174 H   0  0  0  0  0  0  0  0  0  0  0  0
    4.5752    1.1702  -17.8596 H   0  0  0  0  0  0  0  0  0  0  0  0
    5.7736   -3.7503  -18.5127 H   0  0  0  0  0  0  0  0  0  0  0  0
    3.0631    5.1029  -17.1379 H   0  0  0  0  0  0  0  0  0  0  0  0
    3.6468    6.1063  -18.2864 H   0  0  0  0  0  0  0  0  0  0  0  0
    2.5790    2.8029  -19.1992 H   0  0  0  0  0  0  0  0  0  0  0  0
  1  2  2  0
  1  3  1  0
  2  5  1  0
  3  6  2  0
  4  7  2  0
  4  8  1  0
  5 10  2  0
  6 10  1  0
  7 11  1  0
  8 12  2  0
  9 11  2  0
  9 12  1  0
 10 26  1  0
 11 27  1  0
 12 29  1  0
 13 19  1  0
 13 33  1  0
 13 36  2  0
 14 21  1  0
 14 34  1  0
 14 37  2  0
 15 16  1  0
 15 17  1  0
 16 19  1  0
 17 20  1  0
 18 19  1  0
 18 20  1  0
 20 32  1  0
 22 29  1  0
 23 29  1  0
 24 32  1  0
 25 32  1  0
 26 30  1  0
 27 35  1  0
 28 31  1  0
 28 35  1  0
 30 31  1  0
 30 33  1  0
 31 38  1  0
 32 34  1  0
  1 39  1  0
  2 40  1  0
  3 41  1  0
  4 42  1  0
  5 43  1  0
  6 44  1  0
  7 45  1  0
  8 46  1  0
  9 47  1  0
 15 48  1  0
 15 49  1  0
 16 50  1  0
 16 51  1  0
 17 52  1  0
 17 53  1  0
 18 54  1  0
 18 55  1  0
 19 56  1  1
 20 57  1  1
 21 58  1  0
 21 59  1  0
 21 60  1  0
 22 61  1  0
 22 62  1  0
 22 63  1  0
 23 64  1  0
 23 65  1  0
 23 66  1  0
 24 67  1  0
 24 68  1  0
 24 69  1  0
 25 70  1  0
 25 71  1  0
 25 72  1  0
 26 73  1  0
 26 74  1  0
 27 75  1  0
 27 76  1  0
 28 77  1  0
 28 78  1  0
 29 79  1  0
 30 80  1  6
 31 81  1  6
 33 82  1  0
 34 83  1  0
 35 84  1  0
 35 85  1  0
 38 86  1  0
M  CHG  1  35   1
M  END
>  <OMEGA_C>  (239) 
0R7MQBE0+L8696nBssnjQLRoPr+PyqrBzWCgQK8y87+uQafB1yryQM9xBkFxCYXBJbnPQI42/D7l
76jBm0mMQMFQKr8SVaXBeyLQQA3/80BBMIHB3AnxQKqiDkHTi4/BLaSqQHCh/UAbOpLB0/ejQDQL
CD9BMqbBpaKsQDg27EAgxIfBQY/NQKWrCkEoSpbBvyjSQKeuyT82QozBZdOKQB4SZcDrdIjBzOUA
QQR8ur545WfBVaj9QMlDPz90r3jBqigCQXrf3r8qv3LBKSXYQMjtXL+L5IjBic7VQDgzBD+Pd4PB
oS3cQJGX/r8FbIDBOtVMQOrlZsA2lZDBD8SsQN7cIEH+jaXBstDMQOkf+UAzDanBkvreQKVOkcAd
d3rBGfEAQYBGZ8Cjoo3B+nyOQK+w7D+wC6TBsVaJQN670EAUeIPB65ScQNjIkkAyjo7BR+jPQETt
EEFoJKLBlYOkQJCCJkCAwZrBZW6IQObucUDDi5fBgvHbQMWfWsBAw4XB5zurQJe02j+igZHBSMS0
QFBRZsC7QYzBjw14QOu/skC5tYvBiYPxQG6+DkCg/o7B2GKCQLn9WcB/9X3BYgY/QAjRU0CHC5TB
QJHbQD/WOMAqaqvBD6sCQY8iR78m2azB5UyOQG1QNMCcqKbBMaQGQdHCCUHY4n/BisLhQFF7tD//
m6nBD6FVQAP8Ib+9MqPBPUXRQFrk5kDAZXLBBMcFQQoKGEFwepLBwXmOQLnJ+EDPFZfB7YEPQX8T
TL6qcV7B9MDlQDUMrb4jRF3B+pb6QOa62z94g3DBxToNQQnUQD/LZoHB1IwQQdoY5L9923zBYBoD
QXhmIcA6YmbBwea6QIwHg797no3BVy70QCKCZL9nNY7BHQO5QDRrDj/D1HzBgfO/QIsA978kX3bB
ZXoPQMxOXcAAcIzBc0BWQA6LM8BifJbBukNMQBmVksAzsJTBZF2wQKifJEGsGq7BJRyNQOmwGUFz
KKTBbsGvQJ+jL0Ey1aDB1XrOQGfwAEGhkLHBxHznQIOM40DFFKfBJ0WuQBXd6EBVcKfBd7zeQMyt
sMAmOYHBwNn8QGGrjcCkVXHBL4DDQPERj8C5hW/BWyMAQSTkk8AGI5HBn/j/QHM1N8AQDJTBtiMQ
QRLGX8AdTInBGRCQQM36HUDQTqvBip5ZQFeI1T9b76HB0deUQLT8vkCB3njBhyFcQFz65ECsKIHB
892jQLk+fEDyqofBFBi6QBd+okAhT5HBCDbvQHpoGEFRoKPBs4zDQA7ePkAxlJ3BnXCEQO/0jUAS
ip7BzGeSQNvHlT964I7BQ8G4QDAEcMDsGZTBXApEQJRKo0BsGonB22VpQNZmw0CJSpLBHg4lQD9i
M0D1l5nB8SXMQE4D9b/7GarB6uvjQDOIOL/W8arBypWgQELF778POKfBQrzZQKd2BkHjk5XBYCHQ
QHoTBD8Q8ajBssSMQH1zI7+DKKXBU7qzQFQq+EDLepLBJNP6QHeXCUGhAI7BDEnQQHL97kDva4DB
bYikQP41Dj+PEabBXJOvQPbx6ECi24fBlNz1QAM+AkE1T4PBqb3SQNg+yT+LGYzBj26KQAZ6ZMAH
RYjBx0MBQU/zyb6e3mfBuG3+QEBtOT+jinjBaFYCQYNH4r/N2nLB/nHYQNw/Xr9g3IjB+GjWQNmf
AT+bXIPBb2LcQPcRAMBIc4DBQhtLQJmQY8DUQ5DBKuUPQRPyHUEVw3HB06ogQc2r80AyWXrBeCDf
QN3LkcDJ2XrB/pgAQdB4Z8BQ443BmjWPQDZy7z9646PB7EKIQPNw0kB9DITBMnabQI8PkkAsII7B
b8ELQeTZBUHiMnXBHe+kQGsuJ0BBgprBcpOIQGUfckAPXJfBL7jbQNsHW8Ac34XBGaarQIXS2z+R
RJHBmCG0QD7HZcCvO4zBKtx2QItos0BDAIzB1zXyQPkDDkDP4I7B2JyCQBBKW8AcdH3B7jg+QPmB
VEAJPJTBK2PbQH1CN8DRq6vBSasCQSfNQb8sIa3BpnOOQI+DMsAemKbBtaLdQM4EDEFis53Bkz7i
QIdLtz/ImanBAeRWQDKJGr9m4qLBwP2ZQMLi80BbJZjBIvwLQcCYEUEvW5DBwprMQCf/4kDwvXDB
evAPQbk4dL6Eel7B25rmQPLiu77aKV3Bo5v7QER22D/zQ3DBsZENQb28Oj+9XIHBNbAQQSPS578k
BX3BrjwDQZFtI8AhkmbBUR67QEaTgr/Kko3BmWn0QJjtZb/5Mo7BJbe5QJLcCz+7jHzBr0DAQPRR
+L/9XXbBEF0OQKccWsDy+YvBa4dUQF4LL8BiAZbB3D5JQCFxkMD0lJTB0gUcQZoWIEFJMGXBEK0V
QQIaJUEcYoDBQu8AQUnUJUFz4mzBX2ksQQp6+UDBkG3BU2MdQckp0UD1fXvBlCAnQQ83/0Ca1YTB
lJHeQGsJscBVeoHBD0P9QB1kjsB96nHB7vbDQMGoj8AgtW/BEkn/QPPhk8DkcJHBvgD/QJwGN8DU
P5TB6esPQQ9qYMCEponB9SKRQJ3HH0DzG6vBLtxaQFyP2D923qHBDxGPQM4PwkAv5XjB7sVcQHXR
6UA52YLBoNqfQFPWekAuFYfBu1i6QItXoEDrYJDBeWcFQQOk/kDTI2bBXvnDQLD7P0B/RJ3BEZqF
QCSTjkDySJ7B+rqSQJP3lz9ZlY7BRJ63QNrPbsDcGpTBWTRBQOUxpUAceYnBzzlrQOntwkAc2JLB
5lwlQOLkNEAw75nB

>  <OMEGA_E>  (239) 
bMYxP8TdRD8=

>  <OMEGA_NBR>  (239) 
     21199

$$$$
30276
     RDKit          3D

 85 87  0  0  1  0  0  0  0  0999 V2000
    6.4049   -1.2520  -21.3452 C   0  0  0  0  0  0  0  0  0  0  0  0
    7.1558   -0.1012  -21.0362 C   0  0  0  0  0  0  0  0  0  0  0  0
    4.9990   -1.1819  -21.4013 C   0  0  0  0  0  0  0  0  0  0  0  0
    6.5012    1.1195  -20.7844 C   0  0  0  0  0  0  0  0  0  0  0  0
    4.3406    0.0341  -21.1353 C   0  0  0  0  0  0  0  0  0  0  0  0
    1.8313   -3.4436  -17.1250 C   0  0  0  0  0  0  0  0  0  0  0  0
    2.7583   -5.5692  -16.3484 C   0  0  0  0  0  0  0  0  0  0  0  0
    0.6888   -3.6519  -16.3327 C   0  0  0  0  0  0  0  0  0  0  0  0
    1.6127   -5.7767  -15.5581 C   0  0  0  0  0  0  0  0  0  0  0  0
    5.8768   -0.3469  -17.0274 C   0  0  0  0  0  0  0  0  0  0  0  0
    7.0525   -1.4479  -15.2056 C   0  0  0  0  0  0  0  0  0  0  0  0
    7.0465    0.9729  -15.3444 C   0  0  0  0  0  0  0  0  0  0  0  0
    6.2591   -1.5275  -16.3593 C   0  0  0  0  0  0  0  0  0  0  0  0
    6.3208    0.9012  -16.5436 C   0  0  0  0  0  0  0  0  0  0  0  0
    5.0861    1.1888  -20.8141 C   0  0  0  0  0  0  0  0  0  0  0  0
    2.8649   -4.4087  -17.1442 C   0  0  0  0  0  0  0  0  0  0  0  0
    7.4018   -0.2016  -14.6544 C   0  0  0  0  0  0  0  0  0  0  0  0
    0.5756   -4.8221  -15.5566 C   0  0  0  0  0  0  0  0  0  0  0  0
    5.8463   -2.8430  -16.8538 C   0  0  0  0  0  0  0  0  0  0  0  0
    6.1025    2.1194  -17.3188 C   0  0  0  0  0  0  0  0  0  0  0  0
    5.6689    6.8494  -18.7504 C   0  0  0  0  0  0  0  0  0  0  0  0
    5.4638    9.2725  -21.5959 C   0  0  0  0  0  0  0  0  0  0  0  0
    3.7392   -4.1445  -19.4955 C   0  0  0  0  0  0  0  0  0  0  0  0
    5.2397    6.8784  -16.2602 C   0  0  0  0  0  0  0  0  0  0  0  0
    8.8095    1.1221  -13.0614 C   0  0  0  0  0  0  0  0  0  0  0  0
    7.9018   -0.5370  -10.6370 C   0  0  0  0  0  0  0  0  0  0  0  0
    4.3565    2.4947  -20.5100 C   0  0  0  0  0  0  0  0  0  0  0  0
    6.2549    8.5994  -20.4668 C   0  0  0  0  0  0  0  0  0  0  0  0
    4.0294    4.3289  -18.7942 C   0  0  0  0  0  0  0  0  0  0  0  0
    4.0899   -4.1990  -18.0058 C   0  0  1  0  0  0  0  0  0  0  0  0
    4.7159    6.3981  -17.6239 C   0  0  2  0  0  0  0  0  0  0  0  0
    4.9236    3.1771  -19.2531 C   0  0  1  0  0  0  0  0  0  0  0  0
    4.7082   -2.9330  -17.6296 N   0  0  0  0  0  0  0  0  0  0  0  0
    5.0312    2.1768  -18.1902 N   0  0  0  0  0  0  0  0  0  0  0  0
    5.3348    7.9718  -19.5026 N   0  0  0  0  0  0  0  0  0  0  0  0
    8.1239   -0.1420  -13.4550 N   0  0  0  0  0  0  0  0  0  0  0  0
    4.6097    4.9314  -17.5754 N   0  0  0  0  0  0  0  0  0  0  0  0
    6.4645   -3.8496  -16.5213 O   0  0  0  0  0  0  0  0  0  0  0  0
    6.9201    3.0331  -17.2567 O   0  0  0  0  0  0  0  0  0  0  0  0
    6.7312    6.2615  -18.9319 O   0  0  0  0  0  0  0  0  0  0  0  0
    9.0649   -2.2560  -12.2827 O   0  0  0  0  0  0  0  0  0  0  0  0
    6.5430   -1.9254  -12.3811 O   0  0  0  0  0  0  0  0  0  0  0  0
   -0.5307   -5.0288  -14.8092 F   0  0  0  0  0  0  0  0  0  0  0  0
    7.8963   -1.3658  -12.2353 S   0  0  0  0  0  0  0  0  0  0  0  0
    6.9070   -2.1883  -21.5391 H   0  0  0  0  0  0  0  0  0  0  0  0
    8.2335   -0.1551  -20.9926 H   0  0  0  0  0  0  0  0  0  0  0  0
    4.4249   -2.0626  -21.6489 H   0  0  0  0  0  0  0  0  0  0  0  0
    7.0792    2.0057  -20.5678 H   0  0  0  0  0  0  0  0  0  0  0  0
    3.2626    0.0833  -21.1771 H   0  0  0  0  0  0  0  0  0  0  0  0
    1.9198   -2.5461  -17.7192 H   0  0  0  0  0  0  0  0  0  0  0  0
    3.5556   -6.2977  -16.3458 H   0  0  0  0  0  0  0  0  0  0  0  0
   -0.1013   -2.9157  -16.3192 H   0  0  0  0  0  0  0  0  0  0  0  0
    1.5280   -6.6672  -14.9530 H   0  0  0  0  0  0  0  0  0  0  0  0
    5.2480   -0.3977  -17.9040 H   0  0  0  0  0  0  0  0  0  0  0  0
    7.4000   -2.3553  -14.7342 H   0  0  0  0  0  0  0  0  0  0  0  0
    7.3342    1.9356  -14.9483 H   0  0  0  0  0  0  0  0  0  0  0  0
    6.1624    9.7364  -22.3077 H   0  0  0  0  0  0  0  0  0  0  0  0
    4.8559    8.5186  -22.1175 H   0  0  0  0  0  0  0  0  0  0  0  0
    4.8054   10.0451  -21.1721 H   0  0  0  0  0  0  0  0  0  0  0  0
    4.6564   -3.9913  -20.0833 H   0  0  0  0  0  0  0  0  0  0  0  0
    3.2656   -5.0909  -19.7954 H   0  0  0  0  0  0  0  0  0  0  0  0
    3.0435   -3.3123  -19.6782 H   0  0  0  0  0  0  0  0  0  0  0  0
    4.5522    6.5506  -15.4666 H   0  0  0  0  0  0  0  0  0  0  0  0
    6.2376    6.4520  -16.0799 H   0  0  0  0  0  0  0  0  0  0  0  0
    5.3045    7.9765  -16.2585 H   0  0  0  0  0  0  0  0  0  0  0  0
    9.3204    0.9781  -12.0979 H   0  0  0  0  0  0  0  0  0  0  0  0
    9.5475    1.3936  -13.8306 H   0  0  0  0  0  0  0  0  0  0  0  0
    8.0665    1.9275  -12.9656 H   0  0  0  0  0  0  0  0  0  0  0  0
    7.7601   -1.2794   -9.8378 H   0  0  0  0  0  0  0  0  0  0  0  0
    8.8639   -0.0234  -10.4938 H   0  0  0  0  0  0  0  0  0  0  0  0
    7.0848    0.1988  -10.6029 H   0  0  0  0  0  0  0  0  0  0  0  0
    4.4683    3.1748  -21.3674 H   0  0  0  0  0  0  0  0  0  0  0  0
    3.2898    2.2794  -20.3495 H   0  0  0  0  0  0  0  0  0  0  0  0
    6.9136    7.8290  -20.8943 H   0  0  0  0  0  0  0  0  0  0  0  0
    6.8631    9.3556  -19.9489 H   0  0  0  0  0  0  0  0  0  0  0  0
    3.9689    5.0879  -19.5881 H   0  0  0  0  0  0  0  0  0  0  0  0
    3.0213    3.9480  -18.5735 H   0  0  0  0  0  0  0  0  0  0  0  0
    4.7960   -5.0251  -17.8360 H   0  0  0  0  0  0  0  0  0  0  0  0
    3.7234    6.8383  -17.8001 H   0  0  0  0  0  0  0  0  0  0  0  0
    5.9215    3.5755  -19.4888 H   0  0  0  0  0  0  0  0  0  0  0  0
    4.2854   -2.0855  -17.9504 H   0  0  0  0  0  0  0  0  0  0  0  0
    4.2972    1.5052  -18.0900 H   0  0  0  0  0  0  0  0  0  0  0  0
    4.4260    8.3716  -19.3828 H   0  0  0  0  0  0  0  0  0  0  0  0
    4.0328    4.6836  -16.7971 H   0  0  0  0  0  0  0  0  0  0  0  0
    5.5265    4.5541  -17.4443 H   0  0  0  0  0  0  0  0  0  0  0  0
  1  2  2  0
  1  3  1  0
  2  4  1  0
  3  5  2  0
  4 15  2  0
  5 15  1  0
  6  8  2  0
  6 16  1  0
  7  9  1  0
  7 16  2  0
  8 18  1  0
  9 18  2  0
 10 13  2  0
 10 14  1  0
 11 13  1  0
 11 17  2  0
 12 14  2  0
 12 17  1  0
 13 19  1  0
 14 20  1  0
 15 27  1  0
 16 30  1  0
 17 36  1  0
 18 43  1  0
 19 33  1  0
 19 38  2  0
 20 34  1  0
 20 39  2  0
 21 31  1  0
 21 35  1  0
 21 40  2  0
 22 28  1  0
 23 30  1  0
 24 31  1  0
 25 36  1  0
 26 44  1  0
 27 32  1  0
 28 35  1  0
 29 32  1  0
 29 37  1  0
 30 33  1  0
 31 37  1  0
 32 34  1  0
 36 44  1  0
 41 44  2  0
 42 44  2  0
  1 45  1  0
  2 46  1  0
  3 47  1  0
  4 48  1  0
  5 49  1  0
  6 50  1  0
  7 51  1  0
  8 52  1  0
  9 53  1  0
 10 54  1  0
 11 55  1  0
 12 56  1  0
 22 57  1  0
 22 58  1  0
 22 59  1  0
 23 60  1  0
 23 61  1  0
 23 62  1  0
 24 63  1  0
 24 64  1  0
 24 65  1  0
 25 66  1  0
 25 67  1  0
 25 68  1  0
 26 69  1  0
 26 70  1  0
 26 71  1  0
 27 72  1  0
 27 73  1  0
 28 74  1  0
 28 75  1  0
 29 76  1  0
 29 77  1  0
 30 78  1  6
 31 79  1  6
 32 80  1  6
 33 81  1  0
 34 82  1  0
 35 83  1  0
 37 84  1  0
 37 85  1  0
M  CHG  1  37   1
M  END
>  <OMEGA_C>  (240) 
E/XMQP8/oL/pwqrBBPzkQDQ1z701SqjBgfefQFRJl7/0NavBewnQQJRLjz9hRqbBlOaKQJSYCz0Y
FanBImnqPwtkXMADAInBPIgwQOU2ssByyYLBnlMwPx+5acByqYLBdm3OP/rauMAu7njB3w68QB2i
sb4POIjBYa7hQGlUub9PSnPBuXzhQJQQeT+6gnXBz0rIQIKFw7/m34LBtkPKQDy3Zj9HWYTBMMGi
QBksmD9Cg6bBB1o3QNwTjcBTJ4nBvtvsQHJ5Tr5oeGrBRl0TP1dOmsCx53jBwRS7QDz0NcCo1IbB
R0fDQMSkB0DjjIrBw2e1QGQu20DRAJbBhNeuQB1cFEFlxKzB0U9vQAOghMDd9pvB1qunQAAc3EDc
FILBvvMMQcGfjz9++1DBatv8QNR2Cb8yMSrBd2iLQHepH0CHFKTBYijIQAuXCUEAvKPBqfCAQGiG
ikCRWpbBlOCCQO1dhsDJC5DB4uiWQDK9zECn/YzBe46dQC5VS0BmBprBP6mWQMO1O8BWCY3Brf+g
QPlQC0CUhZHBX7aqQEMZ/0BgBZzBg/sBQSppEb6IR1fBxIKTQL3NnUB5mozB2tzOQChgdsCyK4TB
dHHdQDYeQkDDDYrBVmbXQNddyECYdJfBvgkRQdVhEMAehkTBBGDRQPJx9r8AGUbBzNsHvzvsoMBg
8mzBPq78QCHUrr/Rw0PBYQbdQKgMDMD6T6zBi7wDQTnYHr7A8KfBLJmNQMcBBMAHMa3BsojiQMBd
AEDwiqTBG85QQKaVqj3DaqnBd7v1P+XzIsAFwY3BlY9jQIaGycBDxILBj2/PveyaOsC1jYLBlpbD
PxRa1cB4P2/B2e+nQNKhy75cO4/Bf8zsQGu9FsAwv2vBFLLqQKjA9z9eLG/BczLFQG7IG0E9drLB
lWObQP5LCEGS8LDBMMaZQLW4IEFhYKnB4gCVQKZxf8CLqqDB5f5QQATposABXZ7BTslCQHz8U8Di
bJ3BoquRQFme0UAOd3fBGZrHQL12zkC2o4DBVL6pQJA//0BuEYLBNyAVQfBjej8TkUHBhMIYQVNh
sj8YSl3BaxABQRK59j/rck/BXFL4QHnEo7/UZx3Br9INQazGv7x45ifBiLbiQIKPSz5SpSnBOfyO
QI4vS0BZ8KrBH4xSQAThEUDAy6LBKDzdQGCH+kBwJ6fBw57bQGawFUE/l5/BrgF+QDHQokBvtJzB
Ml1BQFqsfEB4lpTBJnmZQPXNoMAYsI7BjktuQDnT2kCBZo7BFn29QH3UZED66JvBpCGJQCh4BcB/
mo/BWIKJQOGowD9fuJDBA6KNQCryBUHhD5vBuwyBQP/flUB4YIbB19iwQNm6kUDojYvB

>  <OMEGA_E>  (240) 
MObTPg==

>  <OMEGA_NBR>  (240) 
      1699

$$$$
30274
     RDKit          3D

 95 97  0  0  1  0  0  0  0  0999 V2000
    6.3221   -1.2758  -21.4857 C   0  0  0  0  0  0  0  0  0  0  0  0
    7.0996   -0.1418  -21.1780 C   0  0  0  0  0  0  0  0  0  0  0  0
    4.9170   -1.1810  -21.5211 C   0  0  0  0  0  0  0  0  0  0  0  0
    6.4720    1.0885  -20.9080 C   0  0  0  0  0  0  0  0  0  0  0  0
    4.2865    0.0424  -21.2353 C   0  0  0  0  0  0  0  0  0  0  0  0
    1.8793   -3.3522  -17.1604 C   0  0  0  0  0  0  0  0  0  0  0  0
    2.7624   -5.5224  -16.4607 C   0  0  0  0  0  0  0  0  0  0  0  0
    0.7383   -3.5597  -16.3646 C   0  0  0  0  0  0  0  0  0  0  0  0
    1.6204   -5.7276  -15.6649 C   0  0  0  0  0  0  0  0  0  0  0  0
    5.9755   -0.3576  -17.0588 C   0  0  0  0  0  0  0  0  0  0  0  0
    7.0737   -1.4062  -15.1540 C   0  0  0  0  0  0  0  0  0  0  0  0
    7.1411    1.0090  -15.4168 C   0  0  0  0  0  0  0  0  0  0  0  0
    6.3138   -1.5194  -16.3363 C   0  0  0  0  0  0  0  0  0  0  0  0
    6.4151    0.9028  -16.6125 C   0  0  0  0  0  0  0  0  0  0  0  0
    5.0594    1.1786  -20.9205 C   0  0  0  0  0  0  0  0  0  0  0  0
    2.8922   -4.3382  -17.2166 C   0  0  0  0  0  0  0  0  0  0  0  0
    7.4585   -0.1372  -14.6632 C   0  0  0  0  0  0  0  0  0  0  0  0
    0.6071   -4.7491  -15.6207 C   0  0  0  0  0  0  0  0  0  0  0  0
    5.8553   -2.8371  -16.8062 C   0  0  0  0  0  0  0  0  0  0  0  0
    6.1507    2.1043  -17.4049 C   0  0  0  0  0  0  0  0  0  0  0  0
    5.6519    6.7461  -18.7304 C   0  0  0  0  0  0  0  0  0  0  0  0
    3.7385   -4.0335  -19.5648 C   0  0  0  0  0  0  0  0  0  0  0  0
    6.6905    9.5562  -22.5417 C   0  0  0  0  0  0  0  0  0  0  0  0
    4.6223   10.0813  -21.2001 C   0  0  0  0  0  0  0  0  0  0  0  0
    8.9281    1.2318  -13.1607 C   0  0  0  0  0  0  0  0  0  0  0  0
    8.8877   -2.4381  -12.1546 C   0  0  0  0  0  0  0  0  0  0  0  0
    4.3566    2.4836  -20.6037 C   0  0  0  0  0  0  0  0  0  0  0  0
    4.8414    6.8589  -16.3502 C   0  0  0  0  0  0  0  0  0  0  0  0
    6.4491    8.6089  -20.2323 C   0  0  0  0  0  0  0  0  0  0  0  0
    3.9332    4.2030  -18.8607 C   0  0  0  0  0  0  0  0  0  0  0  0
    6.1049    6.2416  -15.7186 C   0  0  0  0  0  0  0  0  0  0  0  0
    4.1171   -4.1321  -18.0813 C   0  0  1  0  0  0  0  0  0  0  0  0
    4.5589    6.2941  -17.7483 C   0  0  2  0  0  0  0  0  0  0  0  0
    5.6899    9.0076  -21.5109 C   0  0  0  0  0  0  0  0  0  0  0  0
    4.9052    3.1285  -19.3258 C   0  0  1  0  0  0  0  0  0  0  0  0
    4.7778   -2.8932  -17.6781 N   0  0  0  0  0  0  0  0  0  0  0  0
    5.0764    2.1125  -18.2803 N   0  0  0  0  0  0  0  0  0  0  0  0
    5.5116    8.0059  -19.2834 N   0  0  0  0  0  0  0  0  0  0  0  0
    8.1324    0.0005  -13.4371 N   0  0  0  0  0  0  0  0  0  0  0  0
    4.4565    4.8337  -17.6488 N   0  0  0  0  0  0  0  0  0  0  0  0
    6.3996   -3.8624  -16.4095 O   0  0  0  0  0  0  0  0  0  0  0  0
    6.9110    3.0646  -17.3265 O   0  0  0  0  0  0  0  0  0  0  0  0
    6.6431    6.0552  -18.9494 O   0  0  0  0  0  0  0  0  0  0  0  0
    6.3882   -1.5570  -12.2783 O   0  0  0  0  0  0  0  0  0  0  0  0
    8.0656   -0.2873  -10.8633 O   0  0  0  0  0  0  0  0  0  0  0  0
    6.2884    6.8107  -14.4350 O   0  0  0  0  0  0  0  0  0  0  0  0
   -0.4935   -4.9523  -14.8636 F   0  0  0  0  0  0  0  0  0  0  0  0
    7.7488   -1.0307  -12.0904 S   0  0  0  0  0  0  0  0  0  0  0  0
    6.8041   -2.2194  -21.6948 H   0  0  0  0  0  0  0  0  0  0  0  0
    8.1766   -0.2167  -21.1493 H   0  0  0  0  0  0  0  0  0  0  0  0
    4.3238   -2.0490  -21.7680 H   0  0  0  0  0  0  0  0  0  0  0  0
    7.0675    1.9631  -20.6915 H   0  0  0  0  0  0  0  0  0  0  0  0
    3.2089    0.1120  -21.2569 H   0  0  0  0  0  0  0  0  0  0  0  0
    1.9822   -2.4396  -17.7289 H   0  0  0  0  0  0  0  0  0  0  0  0
    3.5397   -6.2714  -16.4929 H   0  0  0  0  0  0  0  0  0  0  0  0
   -0.0363   -2.8083  -16.3238 H   0  0  0  0  0  0  0  0  0  0  0  0
    1.5203   -6.6351  -15.0879 H   0  0  0  0  0  0  0  0  0  0  0  0
    5.3786   -0.4345  -17.9556 H   0  0  0  0  0  0  0  0  0  0  0  0
    7.3647   -2.2975  -14.6181 H   0  0  0  0  0  0  0  0  0  0  0  0
    7.4603    1.9809  -15.0705 H   0  0  0  0  0  0  0  0  0  0  0  0
    4.6471   -3.8842  -20.1665 H   0  0  0  0  0  0  0  0  0  0  0  0
    3.2397   -4.9624  -19.8783 H   0  0  0  0  0  0  0  0  0  0  0  0
    3.0567   -3.1831  -19.7133 H   0  0  0  0  0  0  0  0  0  0  0  0
    7.4489    8.7903  -22.7610 H   0  0  0  0  0  0  0  0  0  0  0  0
    6.1567    9.8189  -23.4669 H   0  0  0  0  0  0  0  0  0  0  0  0
    7.1817   10.4524  -22.1348 H   0  0  0  0  0  0  0  0  0  0  0  0
    3.9081    9.6863  -20.4627 H   0  0  0  0  0  0  0  0  0  0  0  0
    5.1121   10.9779  -20.7923 H   0  0  0  0  0  0  0  0  0  0  0  0
    4.0871   10.3443  -22.1244 H   0  0  0  0  0  0  0  0  0  0  0  0
    9.3794    1.1605  -12.1601 H   0  0  0  0  0  0  0  0  0  0  0  0
    9.7225    1.3318  -13.9149 H   0  0  0  0  0  0  0  0  0  0  0  0
    8.2690    2.1115  -13.2037 H   0  0  0  0  0  0  0  0  0  0  0  0
    8.6783   -3.1185  -11.3161 H   0  0  0  0  0  0  0  0  0  0  0  0
    8.7532   -2.9754  -13.1050 H   0  0  0  0  0  0  0  0  0  0  0  0
    9.9235   -2.0750  -12.0822 H   0  0  0  0  0  0  0  0  0  0  0  0
    4.5007    3.1789  -21.4438 H   0  0  0  0  0  0  0  0  0  0  0  0
    3.2826    2.2867  -20.4707 H   0  0  0  0  0  0  0  0  0  0  0  0
    3.9798    6.6451  -15.7007 H   0  0  0  0  0  0  0  0  0  0  0  0
    4.9800    7.9473  -16.4290 H   0  0  0  0  0  0  0  0  0  0  0  0
    7.2363    7.8827  -20.4833 H   0  0  0  0  0  0  0  0  0  0  0  0
    6.9049    9.5026  -19.7814 H   0  0  0  0  0  0  0  0  0  0  0  0
    3.8179    4.9610  -19.6494 H   0  0  0  0  0  0  0  0  0  0  0  0
    2.9559    3.7465  -18.6451 H   0  0  0  0  0  0  0  0  0  0  0  0
    5.9801    5.1525  -15.6275 H   0  0  0  0  0  0  0  0  0  0  0  0
    6.9794    6.4590  -16.3495 H   0  0  0  0  0  0  0  0  0  0  0  0
    4.8018   -4.9820  -17.9449 H   0  0  0  0  0  0  0  0  0  0  0  0
    3.5969    6.6993  -18.0951 H   0  0  0  0  0  0  0  0  0  0  0  0
    5.1940    8.1185  -21.9275 H   0  0  0  0  0  0  0  0  0  0  0  0
    5.8749    3.5961  -19.5516 H   0  0  0  0  0  0  0  0  0  0  0  0
    4.4323   -2.0331  -18.0535 H   0  0  0  0  0  0  0  0  0  0  0  0
    4.3864    1.3936  -18.1959 H   0  0  0  0  0  0  0  0  0  0  0  0
    4.7121    8.5437  -19.0158 H   0  0  0  0  0  0  0  0  0  0  0  0
    3.8483    4.6099  -16.8873 H   0  0  0  0  0  0  0  0  0  0  0  0
    5.3678    4.4639  -17.4674 H   0  0  0  0  0  0  0  0  0  0  0  0
    7.0645    6.4399  -14.0317 H   0  0  0  0  0  0  0  0  0  0  0  0
  1  2  2  0
  1  3  1  0
  2  4  1  0
  3  5  2  0
  4 15  2  0
  5 15  1  0
  6  8  2  0
  6 16  1  0
  7  9  1  0
  7 16  2  0
  8 18  1  0
  9 18  2  0
 10 13  2  0
 10 14  1  0
 11 13  1  0
 11 17  2  0
 12 14  2  0
 12 17  1  0
 13 19  1  0
 14 20  1  0
 15 27  1  0
 16 32  1  0
 17 39  1  0
 18 47  1  0
 19 36  1  0
 19 41  2  0
 20 37  1  0
 20 42  2  0
 21 33  1  0
 21 38  1  0
 21 43  2  0
 22 32  1  0
 23 34  1  0
 24 34  1  0
 25 39  1  0
 26 48  1  0
 27 35  1  0
 28 31  1  0
 28 33  1  0
 29 34  1  0
 29 38  1  0
 30 35  1  0
 30 40  1  0
 31 46  1  0
 32 36  1  0
 33 40  1  0
 35 37  1  0
 39 48  1  0
 44 48  2  0
 45 48  2  0
  1 49  1  0
  2 50  1  0
  3 51  1  0
  4 52  1  0
  5 53  1  0
  6 54  1  0
  7 55  1  0
  8 56  1  0
  9 57  1  0
 10 58  1  0
 11 59  1  0
 12 60  1  0
 22 61  1  0
 22 62  1  0
 22 63  1  0
 23 64  1  0
 23 65  1  0
 23 66  1  0
 24 67  1  0
 24 68  1  0
 24 69  1  0
 25 70  1  0
 25 71  1  0
 25 72  1  0
 26 73  1  0
 26 74  1  0
 26 75  1  0
 27 76  1  0
 27 77  1  0
 28 78  1  0
 28 79  1  0
 29 80  1  0
 29 81  1  0
 30 82  1  0
 30 83  1  0
 31 84  1  0
 31 85  1  0
 32 86  1  6
 33 87  1  6
 34 88  1  0
 35 89  1  6
 36 90  1  0
 37 91  1  0
 38 92  1  0
 40 93  1  0
 40 94  1  0
 46 95  1  0
M  CHG  1  40   1
M  END
>  <OMEGA_C>  (241) 
VE7KQJ9No7+/4qvBBjDjQNQzEb53bKnBTFidQK0ql787K6zBYBrPQJ1Tiz+TQ6fBtiqJQLrKLT3j
4anBpozwP6uJVsCZSInBwcowQB63sMCCr4PBiAE9PxzSY8DA6oLB9WjPP7VIt8Bbo3rBiDe/QMYc
t753eIjBylviQHv9s7/zdnLBTITkQGQmgT9Dq3bBiArKQAV7wr/DsILBekjNQMAfZz9N5oTBxOah
QP7alj9CXafBLho5QG/SisCcu4nB1KvuQDyJDL6pnGrBSmobP2v4l8BQ7nnBYl67QESSNcArc4bB
4tLEQECtBkAxPYvBoNy0QPff10DO15XBOkNvQDwSgcCthJzBshjWQFDmGEFtVbTBLuqTQBRNIUHf
manBUNkOQfCsnT9EklLBGzQOQT8KHMBeeULBoGmLQNzyHkBs1KTBxuyaQCx820AyzYLByl7OQOG9
CUHG26HB07l7QA5/hkCn4pbBKFvDQGS7x0Bhf3vBHr+DQNQ5hMCYppDBbOKRQP5oyUBv/I3B3hO2
QBsfEEFPFqzBWPecQCA5SEBUm5rB/uOYQHQqOcCzbI3BtHGiQGEzB0AmPpLB9F6wQF4YAEFpRJrB
IR4CQcCABzoq/lbB9JuOQAuumkDFMI3BRMnMQFMyd8CeRoPBIifdQNciREC6nIrBbpTUQFLEwUBp
mJfBVGzMQLZLx78XdETBoAwBQbgUk7400C3BSDrJQP/w2UCv9WbBKqf8vvt4nsBg0W3BUPb3QKHu
g78uckHBTLvZQP4JDsAIj63BedMCQTHoXb6zManBK1yKQNUiA8D2JK7BtCjiQOZF+z8ciKXBBl9N
QLZw5T0RDqrBPbj9PywjHMDO1I3B34piQGWvyMCF8YPBKOMUvbC6M8Awl4LBHJnCP3hS1MD0Z3HB
0B2sQNB63r4RpY/B56vrQB0KE8Cp42nBw7ruQIaN/T+bIHHBTbWUQIKXeMAFVaHBVVdPQCfMnsC9
Bp/BSqFDQPO3S8DttJ3Bwl3uQOekDEF2FrbBYwPFQAQaHUFHvLvBJtDlQCw9J0EJFLHBDx56QB/7
GkGas6PBI5ajQGOlL0GdVqbBYMmCQDqCJUHb/rDB/BEWQUWLlD/Mj0LBi48bQdx3qj9qo17Btk0E
QX0iB0ApQlPBXdoKQdKVR8CODjXB8gwMQZJtPsANrlHB0MYeQW/NBMCTUEHBegWQQNxyS0D7jKvB
URZSQC1ZEkD/w6PBV7R+QF2k1EAUNnvBS1yfQDpQ/kB+boPBoI/nQCY//EDY3aPBWPXcQNYKGEFR
QJ7B81d0QLPAnkD+MZ3Bfi09QCPHb0AeKZXBT12/QH/hpEAZCnrB9FbfQD6wzkC9y4LBq6iZQOts
n8AVj4/BzDJmQItg1kC1wpDB/DSmQGDlAUF2a6/BYP+7QLEmZkCaaZzBlNWNQBofAsB4bZDBuF2M
QO5gsj9EkZHBtsmWQCmzCEFIIJjBqkp2QK+Ek0AZGYfBwcSrQJzYjkBGvYvBkhDiQKkTzkD7gWDB

>  <OMEGA_E>  (241) 
QLigPg==

>  <OMEGA_NBR>  (241) 
      3557

$$$$
50220574
     RDKit          3D

 95 97  0  0  1  0  0  0  0  0999 V2000
    6.3214   -1.2327  -21.4875 C   0  0  0  0  0  0  0  0  0  0  0  0
    0.5859   -4.7401  -15.5946 C   0  0  0  0  0  0  0  0  0  0  0  0
    7.0810   -0.0811  -21.2031 C   0  0  0  0  0  0  0  0  0  0  0  0
    4.9144   -1.1646  -21.5069 C   0  0  0  0  0  0  0  0  0  0  0  0
    0.7049   -3.5574  -16.3515 C   0  0  0  0  0  0  0  0  0  0  0  0
    1.6068   -5.7106  -15.6346 C   0  0  0  0  0  0  0  0  0  0  0  0
    6.4332    1.1395  -20.9406 C   0  0  0  0  0  0  0  0  0  0  0  0
    4.2633    0.0493  -21.2251 C   0  0  0  0  0  0  0  0  0  0  0  0
    1.8435   -3.3463  -17.1518 C   0  0  0  0  0  0  0  0  0  0  0  0
    2.7469   -5.5015  -16.4331 C   0  0  0  0  0  0  0  0  0  0  0  0
    5.9719   -0.3269  -17.0757 C   0  0  0  0  0  0  0  0  0  0  0  0
    7.0780   -1.3595  -15.1682 C   0  0  0  0  0  0  0  0  0  0  0  0
    7.1279    1.0549  -15.4387 C   0  0  0  0  0  0  0  0  0  0  0  0
    6.3154   -1.4814  -16.3460 C   0  0  0  0  0  0  0  0  0  0  0  0
    6.4104    0.9361  -16.6393 C   0  0  0  0  0  0  0  0  0  0  0  0
    5.0183    1.2032  -20.9339 C   0  0  0  0  0  0  0  0  0  0  0  0
    2.8673   -4.3221  -17.1981 C   0  0  0  0  0  0  0  0  0  0  0  0
    7.4440   -0.0864  -14.6761 C   0  0  0  0  0  0  0  0  0  0  0  0
    5.8543   -2.8007  -16.8002 C   0  0  0  0  0  0  0  0  0  0  0  0
    6.1593    2.1236  -17.4523 C   0  0  0  0  0  0  0  0  0  0  0  0
    5.7377    6.6730  -18.6687 C   0  0  0  0  0  0  0  0  0  0  0  0
    3.7527   -4.0024  -19.5358 C   0  0  0  0  0  0  0  0  0  0  0  0
    6.6312    9.5753  -22.4878 C   0  0  0  0  0  0  0  0  0  0  0  0
    4.5342   10.0054  -21.1595 C   0  0  0  0  0  0  0  0  0  0  0  0
    5.3308    7.9801  -15.8956 C   0  0  0  0  0  0  0  0  0  0  0  0
    8.8835    1.2908  -13.1520 C   0  0  0  0  0  0  0  0  0  0  0  0
    8.9300   -2.3432  -12.1377 C   0  0  0  0  0  0  0  0  0  0  0  0
    4.2966    2.4971  -20.6101 C   0  0  0  0  0  0  0  0  0  0  0  0
    6.4019    8.5785  -20.1943 C   0  0  0  0  0  0  0  0  0  0  0  0
    3.9530    4.2625  -18.8795 C   0  0  0  0  0  0  0  0  0  0  0  0
    4.1024   -4.1043  -18.0464 C   0  0  1  0  0  0  0  0  0  0  0  0
    4.7432    6.1993  -17.5802 C   0  0  2  0  0  0  0  0  0  0  0  0
    5.6404    8.9742  -21.4746 C   0  0  0  0  0  0  0  0  0  0  0  0
    4.8815    3.1548  -19.3574 C   0  0  1  0  0  0  0  0  0  0  0  0
    5.2664    6.4750  -16.1594 C   0  0  1  0  0  0  0  0  0  0  0  0
    4.7466   -2.8621  -17.6309 N   0  0  0  0  0  0  0  0  0  0  0  0
    5.0623    2.1427  -18.3030 N   0  0  0  0  0  0  0  0  0  0  0  0
    5.4928    7.9049  -19.2586 N   0  0  0  0  0  0  0  0  0  0  0  0
    8.0990    0.0559  -13.4409 N   0  0  0  0  0  0  0  0  0  0  0  0
    4.4861    4.7629  -17.6140 N   0  0  0  0  0  0  0  0  0  0  0  0
    6.4176   -3.8215  -16.4188 O   0  0  0  0  0  0  0  0  0  0  0  0
    6.9547    3.0576  -17.4183 O   0  0  0  0  0  0  0  0  0  0  0  0
    6.7604    6.0395  -18.9147 O   0  0  0  0  0  0  0  0  0  0  0  0
    6.3955   -1.5880  -12.3290 O   0  0  0  0  0  0  0  0  0  0  0  0
    7.9645   -0.2359  -10.8700 O   0  0  0  0  0  0  0  0  0  0  0  0
    6.5544    5.8843  -15.9577 O   0  0  0  0  0  0  0  0  0  0  0  0
    7.7225   -0.9939  -12.1048 S   0  0  0  0  0  0  0  0  0  0  0  0
    6.8185   -2.1697  -21.6910 H   0  0  0  0  0  0  0  0  0  0  0  0
   -0.2892   -4.9029  -14.9829 H   0  0  0  0  0  0  0  0  0  0  0  0
    8.1595   -0.1353  -21.1866 H   0  0  0  0  0  0  0  0  0  0  0  0
    4.3350   -2.0460  -21.7386 H   0  0  0  0  0  0  0  0  0  0  0  0
   -0.0771   -2.8133  -16.3176 H   0  0  0  0  0  0  0  0  0  0  0  0
    1.5145   -6.6154  -15.0522 H   0  0  0  0  0  0  0  0  0  0  0  0
    7.0147    2.0282  -20.7443 H   0  0  0  0  0  0  0  0  0  0  0  0
    3.1844    0.0975  -21.2319 H   0  0  0  0  0  0  0  0  0  0  0  0
    1.9358   -2.4393  -17.7308 H   0  0  0  0  0  0  0  0  0  0  0  0
    3.5302   -6.2445  -16.4603 H   0  0  0  0  0  0  0  0  0  0  0  0
    5.3722   -0.4113  -17.9699 H   0  0  0  0  0  0  0  0  0  0  0  0
    7.3859   -2.2474  -14.6360 H   0  0  0  0  0  0  0  0  0  0  0  0
    7.4404    2.0304  -15.0965 H   0  0  0  0  0  0  0  0  0  0  0  0
    4.6721   -3.8449  -20.1189 H   0  0  0  0  0  0  0  0  0  0  0  0
    3.2663   -4.9333  -19.8627 H   0  0  0  0  0  0  0  0  0  0  0  0
    3.0685   -3.1559  -19.6946 H   0  0  0  0  0  0  0  0  0  0  0  0
    7.4186    8.8404  -22.7116 H   0  0  0  0  0  0  0  0  0  0  0  0
    6.0969    9.8335  -23.4139 H   0  0  0  0  0  0  0  0  0  0  0  0
    7.0861   10.4817  -22.0620 H   0  0  0  0  0  0  0  0  0  0  0  0
    3.8266    9.5751  -20.4355 H   0  0  0  0  0  0  0  0  0  0  0  0
    4.9887   10.9119  -20.7335 H   0  0  0  0  0  0  0  0  0  0  0  0
    3.9994   10.2637  -22.0854 H   0  0  0  0  0  0  0  0  0  0  0  0
    5.7062    8.1586  -14.8772 H   0  0  0  0  0  0  0  0  0  0  0  0
    6.0076    8.4512  -16.6236 H   0  0  0  0  0  0  0  0  0  0  0  0
    4.3247    8.4133  -15.9965 H   0  0  0  0  0  0  0  0  0  0  0  0
    9.3201    1.2213  -12.1447 H   0  0  0  0  0  0  0  0  0  0  0  0
    9.6887    1.3956  -13.8940 H   0  0  0  0  0  0  0  0  0  0  0  0
    8.2204    2.1669  -13.2043 H   0  0  0  0  0  0  0  0  0  0  0  0
    8.7299   -3.0355  -11.3066 H   0  0  0  0  0  0  0  0  0  0  0  0
    8.8497   -2.8838  -13.0924 H   0  0  0  0  0  0  0  0  0  0  0  0
    9.9442   -1.9301  -12.0345 H   0  0  0  0  0  0  0  0  0  0  0  0
    4.3988    3.1881  -21.4599 H   0  0  0  0  0  0  0  0  0  0  0  0
    3.2316    2.2815  -20.4389 H   0  0  0  0  0  0  0  0  0  0  0  0
    7.2257    7.8980  -20.4557 H   0  0  0  0  0  0  0  0  0  0  0  0
    6.8100    9.4825  -19.7188 H   0  0  0  0  0  0  0  0  0  0  0  0
    3.9221    5.0738  -19.6217 H   0  0  0  0  0  0  0  0  0  0  0  0
    2.9387    3.8644  -18.7291 H   0  0  0  0  0  0  0  0  0  0  0  0
    4.7921   -4.9488  -17.9007 H   0  0  0  0  0  0  0  0  0  0  0  0
    3.7975    6.7447  -17.7149 H   0  0  0  0  0  0  0  0  0  0  0  0
    5.1797    8.0758  -21.9112 H   0  0  0  0  0  0  0  0  0  0  0  0
    5.8564    3.5954  -19.6133 H   0  0  0  0  0  0  0  0  0  0  0  0
    4.5519    6.0368  -15.4470 H   0  0  0  0  0  0  0  0  0  0  0  0
    4.3646   -2.0012  -17.9669 H   0  0  0  0  0  0  0  0  0  0  0  0
    4.3625    1.4366  -18.1947 H   0  0  0  0  0  0  0  0  0  0  0  0
    4.6359    8.3669  -19.0301 H   0  0  0  0  0  0  0  0  0  0  0  0
    3.8273    4.5483  -16.8929 H   0  0  0  0  0  0  0  0  0  0  0  0
    5.3472    4.2888  -17.4307 H   0  0  0  0  0  0  0  0  0  0  0  0
    6.9828    5.7636  -16.7970 H   0  0  0  0  0  0  0  0  0  0  0  0
  1  3  2  0
  1  4  1  0
  2  5  2  0
  2  6  1  0
  3  7  1  0
  4  8  2  0
  5  9  1  0
  6 10  2  0
  7 16  2  0
  8 16  1  0
  9 17  2  0
 10 17  1  0
 11 14  2  0
 11 15  1  0
 12 14  1  0
 12 18  2  0
 13 15  2  0
 13 18  1  0
 14 19  1  0
 15 20  1  0
 16 28  1  0
 17 31  1  0
 18 39  1  0
 19 36  1  0
 19 41  2  0
 20 37  1  0
 20 42  2  0
 21 32  1  0
 21 38  1  0
 21 43  2  0
 22 31  1  0
 23 33  1  0
 24 33  1  0
 25 35  1  0
 26 39  1  0
 27 47  1  0
 28 34  1  0
 29 33  1  0
 29 38  1  0
 30 34  1  0
 30 40  1  0
 31 36  1  0
 32 35  1  0
 32 40  1  0
 34 37  1  0
 35 46  1  0
 39 47  1  0
 44 47  2  0
 45 47  2  0
  1 48  1  0
  2 49  1  0
  3 50  1  0
  4 51  1  0
  5 52  1  0
  6 53  1  0
  7 54  1  0
  8 55  1  0
  9 56  1  0
 10 57  1  0
 11 58  1  0
 12 59  1  0
 13 60  1  0
 22 61  1  0
 22 62  1  0
 22 63  1  0
 23 64  1  0
 23 65  1  0
 23 66  1  0
 24 67  1  0
 24 68  1  0
 24 69  1  0
 25 70  1  0
 25 71  1  0
 25 72  1  0
 26 73  1  0
 26 74  1  0
 26 75  1  0
 27 76  1  0
 27 77  1  0
 27 78  1  0
 28 79  1  0
 28 80  1  0
 29 81  1  0
 29 82  1  0
 30 83  1  0
 30 84  1  0
 31 85  1  6
 32 86  1  6
 33 87  1  0
 34 88  1  6
 35 89  1  1
 36 90  1  0
 37 91  1  0
 38 92  1  0
 40 93  1  0
 40 94  1  0
 46 95  1  0
M  CHG  1  40   1
M  END
>  <OMEGA_C>  (242) 
60jKQG7Jnb9j5qvBhvwVP5Oul8Bmg3nBzpfiQLUVpr3+n6nBYUKdQPsPlb8vDqzBonU0P2WsY8Df
z4LBPq3NP2W9tsA2J3rBzdzNQCXckT9yhqfBHm2IQIDZST0azanBGvnrP3cpVsD5NonBf80vQF8M
sMAAd4PBBRq/QOxYp77/mojB037iQMYCrr/FsHLBnhfkQLoGhz/3BHfBlBfKQOOdvb+cxILBMCLN
QFuhbz83HYXBA5agQAwCmj+HeKfBqII3QFBOisColYnBPjXuQC0Gsb1C0WrBGVa7QDY+M8C+ZobB
MRnFQGfoB0BXnovBmpu3QPyI1UB+WZXBBi1wQKgTgMBiSZzBqTLUQD00GUHz5rPB3ReRQP8VIEG+
RqnBoZWqQLlc/0BQVH7BwiIOQY86pT9zblLBS+EOQcD3FcAQNELBwH2JQNPQH0Bo4aTBVtzMQGFB
CUHVjaHBqP18QK5miEAuCZfBNUeDQNBWg8AUX5DBQciXQIZgxkBSpIzBjX60QEGWD0EUzKvBGzWc
QNDoSUAA3JrBIYaoQDEzz0B/RoHBEOSXQLosN8AqDI3BkP6hQMciCUB5bJLBTsWvQNL0/ECrEZrB
gpUBQcLdZD3PDVfB542PQL1pmECG6YzBq1zNQA2UdMDJWYPBkIzeQJSvQ0C/WIvBVFXYQK9DwUBL
UZfBKajMQIxCy7+dQ0XBj93+QIOKcb5T6y3BQb3RQIFMvEDZUn/BUh73QOtwfr87rUHBTDHaQI3b
CsAuh63BywuUvpXknMDTuW/Bf40CQYGECr47fqnBEriKQGTyAsCy6K3BKuOdvdcMNMBpioLBrdnB
P3+x08Cm1XDBTHjgQPrNAUBT9KXBgs1LQDOtxz302qnBMcf3P8ccHMCy2I3BNu9hQEDTx8C2roPB
vOirQCaV0r5Ewo/BcFnsQCzVD8AqLWrB/hfuQC/yAUBli3HB34GVQCwTdsCJ86DBzwtRQJrdncDJ
5p7BZ2JEQML5ScB9jp3Bz2TtQHlyDUFisbXBcRnDQDFWHUG8T7vBl8HiQC21J0HhfrDB4OZ0QKcz
GUHue6PBfKOfQEWXLkEl3qXBq/Z/QEk4JEEAr7DBNZm2QJyJAkHfCG7BGz7AQA04B0EV/YTBBWSK
QLycBkHV8X/BFx8VQQNTnD/JUELB2QQbQamisj8ETl7Bo4YDQS2vCkDbRFPBmK0LQd5EQsCy5zTB
RZgNQUyQOMBHelHBiRsfQc4M979ZjUDBUsOMQCMJTEDKravBqNJOQH0EEkDMgqPBnDjnQDi8/EBE
paPBn+vZQIG4F0EQwJ3BMgR7QNJcokAv+ZzB/hI8QKBRd0BF1ZXBuViZQONcnsCmNI/BowlzQHzU
10AJuI3B/r+lQFs2AUEVSq/BXWe7QHIbZkAP6JzBk6mRQCMtwUDoJnfB1qqLQAITAMAvvI/B7ZmL
QBPktz+3jpHBQFmUQMbeBUG5PZjBm/J0QGCLkUDAJIfBrByrQBo+iUD9cYvB9XLfQCFvuEA8YIbB

>  <OMEGA_E>  (242) 
+JeQPg==

>  <OMEGA_NBR>  (242) 
      5425

$$$$
50220579
     RDKit          3D

 94 96  0  0  1  0  0  0  0  0999 V2000
    6.3376   -1.2833  -21.4660 C   0  0  0  0  0  0  0  0  0  0  0  0
    0.6413   -4.8792  -15.5710 C   0  0  0  0  0  0  0  0  0  0  0  0
    7.1145   -0.1485  -21.1594 C   0  0  0  0  0  0  0  0  0  0  0  0
    4.9324   -1.1890  -21.4985 C   0  0  0  0  0  0  0  0  0  0  0  0
    0.7332   -3.6899  -16.3212 C   0  0  0  0  0  0  0  0  0  0  0  0
    1.6768   -5.8336  -15.6290 C   0  0  0  0  0  0  0  0  0  0  0  0
    6.4864    1.0811  -20.8852 C   0  0  0  0  0  0  0  0  0  0  0  0
    4.3015    0.0349  -21.2107 C   0  0  0  0  0  0  0  0  0  0  0  0
    1.8565   -3.4581  -17.1367 C   0  0  0  0  0  0  0  0  0  0  0  0
    2.8033   -5.6025  -16.4415 C   0  0  0  0  0  0  0  0  0  0  0  0
    5.9210   -0.3548  -17.0222 C   0  0  0  0  0  0  0  0  0  0  0  0
    6.9762   -1.4389  -15.1170 C   0  0  0  0  0  0  0  0  0  0  0  0
    7.2702    0.9420  -15.4606 C   0  0  0  0  0  0  0  0  0  0  0  0
    6.2186   -1.5243  -16.2978 C   0  0  0  0  0  0  0  0  0  0  0  0
    6.4383    0.8849  -16.5958 C   0  0  0  0  0  0  0  0  0  0  0  0
    5.0739    1.1718  -20.8929 C   0  0  0  0  0  0  0  0  0  0  0  0
    2.8930   -4.4182  -17.2044 C   0  0  0  0  0  0  0  0  0  0  0  0
    7.5606   -0.2208  -14.7095 C   0  0  0  0  0  0  0  0  0  0  0  0
    5.7687   -2.8406  -16.7741 C   0  0  0  0  0  0  0  0  0  0  0  0
    6.1773    2.1011  -17.3777 C   0  0  0  0  0  0  0  0  0  0  0  0
    5.6986    6.7236  -18.6601 C   0  0  0  0  0  0  0  0  0  0  0  0
    6.1169    6.2593  -15.6027 C   0  0  0  0  0  0  0  0  0  0  0  0
    3.7289   -4.1013  -19.5622 C   0  0  0  0  0  0  0  0  0  0  0  0
    4.4059    9.7380  -21.3342 C   0  0  0  0  0  0  0  0  0  0  0  0
    6.6115    9.6678  -22.5436 C   0  0  0  0  0  0  0  0  0  0  0  0
    8.6352    1.1956  -12.9409 C   0  0  0  0  0  0  0  0  0  0  0  0
    7.8616   -2.0411  -11.5444 C   0  0  0  0  0  0  0  0  0  0  0  0
    4.3718    2.4805  -20.5716 C   0  0  0  0  0  0  0  0  0  0  0  0
    4.8723    6.8799  -16.2738 C   0  0  0  0  0  0  0  0  0  0  0  0
    6.2678    8.1597  -20.5942 C   0  0  0  0  0  0  0  0  0  0  0  0
    3.9617    4.2202  -18.8251 C   0  0  0  0  0  0  0  0  0  0  0  0
    4.1057   -4.1777  -18.0789 C   0  0  1  0  0  0  0  0  0  0  0  0
    4.5967    6.3039  -17.6753 C   0  0  2  0  0  0  0  0  0  0  0  0
    5.9307    9.5456  -21.1684 C   0  0  0  0  0  0  0  0  0  0  0  0
    4.9289    3.1365  -19.2973 C   0  0  1  0  0  0  0  0  0  0  0  0
    4.7276   -2.9160  -17.6822 N   0  0  0  0  0  0  0  0  0  0  0  0
    5.0993    2.1217  -18.2509 N   0  0  0  0  0  0  0  0  0  0  0  0
    5.5185    7.8952  -19.3689 N   0  0  0  0  0  0  0  0  0  0  0  0
    8.4000   -0.1381  -13.5724 N   0  0  0  0  0  0  0  0  0  0  0  0
    4.4670    4.8392  -17.5895 N   0  0  0  0  0  0  0  0  0  0  0  0
    6.3241   -3.8597  -16.3750 O   0  0  0  0  0  0  0  0  0  0  0  0
    6.9408    3.0586  -17.2979 O   0  0  0  0  0  0  0  0  0  0  0  0
    6.6815    6.0149  -18.8585 O   0  0  0  0  0  0  0  0  0  0  0  0
   10.2683   -1.0894  -12.0144 O   0  0  0  0  0  0  0  0  0  0  0  0
    9.2460   -2.6542  -13.7084 O   0  0  0  0  0  0  0  0  0  0  0  0
    9.0873   -1.5384  -12.7638 S   0  0  0  0  0  0  0  0  0  0  0  0
    6.8199   -2.2264  -21.6763 H   0  0  0  0  0  0  0  0  0  0  0  0
   -0.2240   -5.0596  -14.9505 H   0  0  0  0  0  0  0  0  0  0  0  0
    8.1917   -0.2221  -21.1347 H   0  0  0  0  0  0  0  0  0  0  0  0
    4.3389   -2.0571  -21.7446 H   0  0  0  0  0  0  0  0  0  0  0  0
   -0.0581   -2.9567  -16.2704 H   0  0  0  0  0  0  0  0  0  0  0  0
    1.6062   -6.7425  -15.0500 H   0  0  0  0  0  0  0  0  0  0  0  0
    7.0824    1.9554  -20.6689 H   0  0  0  0  0  0  0  0  0  0  0  0
    3.2239    0.1042  -21.2331 H   0  0  0  0  0  0  0  0  0  0  0  0
    1.9272   -2.5463  -17.7113 H   0  0  0  0  0  0  0  0  0  0  0  0
    3.5990   -6.3317  -16.4811 H   0  0  0  0  0  0  0  0  0  0  0  0
    5.2979   -0.4073  -17.9027 H   0  0  0  0  0  0  0  0  0  0  0  0
    7.1137   -2.3218  -14.5104 H   0  0  0  0  0  0  0  0  0  0  0  0
    7.6931    1.8889  -15.1589 H   0  0  0  0  0  0  0  0  0  0  0  0
    6.2610    6.7089  -14.6092 H   0  0  0  0  0  0  0  0  0  0  0  0
    5.9732    5.1739  -15.4965 H   0  0  0  0  0  0  0  0  0  0  0  0
    7.0034    6.4527  -16.2246 H   0  0  0  0  0  0  0  0  0  0  0  0
    4.6339   -3.9263  -20.1624 H   0  0  0  0  0  0  0  0  0  0  0  0
    3.2617   -5.0481  -19.8709 H   0  0  0  0  0  0  0  0  0  0  0  0
    3.0200   -3.2747  -19.7182 H   0  0  0  0  0  0  0  0  0  0  0  0
    3.9160    9.6513  -20.3532 H   0  0  0  0  0  0  0  0  0  0  0  0
    4.2059   10.7336  -21.7570 H   0  0  0  0  0  0  0  0  0  0  0  0
    4.0105    8.9661  -22.0109 H   0  0  0  0  0  0  0  0  0  0  0  0
    7.6970    9.5314  -22.4293 H   0  0  0  0  0  0  0  0  0  0  0  0
    6.2142    8.8960  -23.2192 H   0  0  0  0  0  0  0  0  0  0  0  0
    6.4096   10.6635  -22.9653 H   0  0  0  0  0  0  0  0  0  0  0  0
    9.3054    1.0795  -12.0764 H   0  0  0  0  0  0  0  0  0  0  0  0
    9.0974    1.8723  -13.6747 H   0  0  0  0  0  0  0  0  0  0  0  0
    7.6757    1.6173  -12.6068 H   0  0  0  0  0  0  0  0  0  0  0  0
    8.2290   -2.9209  -10.9957 H   0  0  0  0  0  0  0  0  0  0  0  0
    7.6867   -1.2157  -10.8386 H   0  0  0  0  0  0  0  0  0  0  0  0
    6.9199   -2.2938  -12.0538 H   0  0  0  0  0  0  0  0  0  0  0  0
    4.5075    3.1727  -21.4156 H   0  0  0  0  0  0  0  0  0  0  0  0
    3.2993    2.2821  -20.4289 H   0  0  0  0  0  0  0  0  0  0  0  0
    3.9968    6.6864  -15.6365 H   0  0  0  0  0  0  0  0  0  0  0  0
    5.0270    7.9652  -16.3646 H   0  0  0  0  0  0  0  0  0  0  0  0
    6.0160    7.3920  -21.3407 H   0  0  0  0  0  0  0  0  0  0  0  0
    7.3442    8.1162  -20.3722 H   0  0  0  0  0  0  0  0  0  0  0  0
    3.8665    4.9893  -19.6057 H   0  0  0  0  0  0  0  0  0  0  0  0
    2.9767    3.7705  -18.6312 H   0  0  0  0  0  0  0  0  0  0  0  0
    4.8187   -5.0032  -17.9371 H   0  0  0  0  0  0  0  0  0  0  0  0
    3.6445    6.7233  -18.0325 H   0  0  0  0  0  0  0  0  0  0  0  0
    6.3234   10.3236  -20.4972 H   0  0  0  0  0  0  0  0  0  0  0  0
    5.8994    3.5989  -19.5301 H   0  0  0  0  0  0  0  0  0  0  0  0
    4.3847   -2.0678  -18.0859 H   0  0  0  0  0  0  0  0  0  0  0  0
    4.4033    1.4091  -18.1628 H   0  0  0  0  0  0  0  0  0  0  0  0
    4.8636    8.5743  -19.0372 H   0  0  0  0  0  0  0  0  0  0  0  0
    3.8360    4.6206  -16.8452 H   0  0  0  0  0  0  0  0  0  0  0  0
    5.3671    4.4532  -17.3875 H   0  0  0  0  0  0  0  0  0  0  0  0
  1  3  2  0
  1  4  1  0
  2  5  2  0
  2  6  1  0
  3  7  1  0
  4  8  2  0
  5  9  1  0
  6 10  2  0
  7 16  2  0
  8 16  1  0
  9 17  2  0
 10 17  1  0
 11 14  2  0
 11 15  1  0
 12 14  1  0
 12 18  2  0
 13 15  2  0
 13 18  1  0
 14 19  1  0
 15 20  1  0
 16 28  1  0
 17 32  1  0
 18 39  1  0
 19 36  1  0
 19 41  2  0
 20 37  1  0
 20 42  2  0
 21 33  1  0
 21 38  1  0
 21 43  2  0
 22 29  1  0
 23 32  1  0
 24 34  1  0
 25 34  1  0
 26 39  1  0
 27 46  1  0
 28 35  1  0
 29 33  1  0
 30 34  1  0
 30 38  1  0
 31 35  1  0
 31 40  1  0
 32 36  1  0
 33 40  1  0
 35 37  1  0
 39 46  1  0
 44 46  2  0
 45 46  2  0
  1 47  1  0
  2 48  1  0
  3 49  1  0
  4 50  1  0
  5 51  1  0
  6 52  1  0
  7 53  1  0
  8 54  1  0
  9 55  1  0
 10 56  1  0
 11 57  1  0
 12 58  1  0
 13 59  1  0
 22 60  1  0
 22 61  1  0
 22 62  1  0
 23 63  1  0
 23 64  1  0
 23 65  1  0
 24 66  1  0
 24 67  1  0
 24 68  1  0
 25 69  1  0
 25 70  1  0
 25 71  1  0
 26 72  1  0
 26 73  1  0
 26 74  1  0
 27 75  1  0
 27 76  1  0
 27 77  1  0
 28 78  1  0
 28 79  1  0
 29 80  1  0
 29 81  1  0
 30 82  1  0
 30 83  1  0
 31 84  1  0
 31 85  1  0
 32 86  1  6
 33 87  1  6
 34 88  1  0
 35 89  1  6
 36 90  1  0
 37 91  1  0
 38 92  1  0
 40 93  1  0
 40 94  1  0
M  CHG  1  40   1
M  END
>  <OMEGA_C>  (243) 
Sc3KQL9CpL9euqvBji0kPy4inMDNInnB36njQEoWGL5wRqnB89WdQEsxmL/5/KvBCrU7P9wnbMDd
kYLBlKLWP4WsusB9EHrB6pDPQM1iij/jFKfBu6WJQEDMDj2Ur6nBuKDtP/BQXcD3F4nB8mgzQN5H
s8A0iIPBHnm9QEKntb58LYjBOD3fQCEuuL8133HBgKXoQDcpcT+fXnfBc/7GQNAcw7/QYYLBLQbO
QAmKYj8lxITBWV2iQAP/lT/CJKfBVyY5QEZijcCaoonBZ/DxQPMkYr42WmvBC5m4QJPMNcBsMYbB
hqzFQMN3BkB7BYvB3Vq2QIwn10DxR5XB073DQFRMyEClpHnByKVuQOU9g8Bnf5zBFv2MQPfOG0GA
rKrBipHTQHyvGkFJWbTBsikKQVUKmT/YDU/BJpL7QDGiAsC9tTjBneWLQN+/HkCPkqTBv+mbQBIo
3ECrMILBb5HIQCCOAkEBwaTBw4x9QIILh0C7mZbB4WGDQGyvhcCNoZDBFBiTQIy5yUAdZ43BCci9
QNe6GEHVWKnBgbmdQDu8SEDRYJrBOUiXQGSfOsAzdY3Bwy2jQFjKB0DLAZLBoZewQGml/EBu85rB
e2YGQb1xDb5sKFnBvfGOQJ/amkA8t4zBXF/KQAMGd8ACAIPBMxveQOW/Q0AHYorBzs7VQL95wEBK
3pbB4EokQWJyi78oO0DBz+8TQe3dKcDFVVvBbGURQQ/pxL9/OEzBhTzaQON9DsAZaa3BmWZlvpjo
ocBFNW/BLhEDQWJxY771E6nBitiKQECoA8AB9a3Bicdtvec5PcDQKYLB9JjNP3/C18DazHDBZqPi
QKxL+j/nWaXBGFVOQCGA1T1b3anBHa32Pwr3IsCzsI3BMlZmQACdysA02YPBVoipQO2I0L7QOI/B
QaPjQLCYFMCKKmjBIC72QFHG8T+0inLBBFrIQJOv1kArv2nByyS/QMyQpUCg8XfB6BvgQKl8zkDx
y4HB70iUQBRIe8CtTKHBVcBQQE+KocCp957BS0hBQE2VUcDxvp3Bkp96QLhrGkFM06LBA5eGQP+8
K0FrDq7BC1aAQFh1D0FMFrDBBk72QKWAGEFEb7PBsdrGQBxWDkHowLnBqhvNQMSdKkEIubfB+eIU
QaUuij/3OEHBv44RQVWm7z/Fy1rBYJ/1QK0Czz9YtUnBy6kDQU3wOsBU7i/BYvn1QA2dm7/0ai3B
MnDdQPLMEsBD3EDBgD2QQHYNS0AiU6vBJydTQOgNEkBLbqPBAcx/QMT21UAKL3rBHt2gQKLi/kCm
6oLBI4PAQOOK7EC+uarB/gPrQP7bAUFS+qLBcnR3QBGon0B72JzBVoI+QP5PcUDEDJXBcDKaQJga
oMAsf4/BSkBpQPgk10CUQpDBkVnKQH8tJUFJ+qPBJci8QC1VZkCPPZzBJU+MQFpWBMDxr5DB++eM
QEJetD9cTZHB/6KbQDUwCUEpTJjBRoB1QN/bk0DowobBor+rQNWAjkCXGYvB

>  <OMEGA_E>  (243) 
zK38Pg==

>  <OMEGA_NBR>  (243) 
      7274

$$$$
50161012
     RDKit          3D

 83 84  0  0  1  0  0  0  0  0999 V2000
    6.3672   -1.9731  -21.2203 C   0  0  0  0  0  0  0  0  0  0  0  0
    7.1282   -0.7875  -21.2544 C   0  0  0  0  0  0  0  0  0  0  0  0
    4.9854   -1.9187  -20.9512 C   0  0  0  0  0  0  0  0  0  0  0  0
    6.5078    0.4541  -21.0205 C   0  0  0  0  0  0  0  0  0  0  0  0
    4.3652   -0.6804  -20.7042 C   0  0  0  0  0  0  0  0  0  0  0  0
    5.1252    0.5086  -20.7324 C   0  0  0  0  0  0  0  0  0  0  0  0
    6.5415    1.5281  -17.4544 C   0  0  0  0  0  0  0  0  0  0  0  0
    4.3791   -3.6625  -17.0627 C   0  0  0  0  0  0  0  0  0  0  0  0
    5.5119    6.7333  -18.6464 C   0  0  0  0  0  0  0  0  0  0  0  0
    7.9962   -0.4286  -14.4143 C   0  0  0  0  0  0  0  0  0  0  0  0
    7.8639    0.7014  -15.4429 C   0  0  0  0  0  0  0  0  0  0  0  0
    8.1164   -1.7894  -15.1191 C   0  0  0  0  0  0  0  0  0  0  0  0
    6.7621   -0.9002  -17.0698 C   0  0  0  0  0  0  0  0  0  0  0  0
    6.6450    0.4612  -16.3679 C   0  0  2  0  0  0  0  0  0  0  0  0
    6.8841   -2.0408  -16.0295 C   0  0  1  0  0  0  0  0  0  0  0  0
    3.2394   -3.6337  -18.0761 C   0  0  0  0  0  0  0  0  0  0  0  0
    6.5660    9.9956  -22.8529 C   0  0  0  0  0  0  0  0  0  0  0  0
    4.8444    6.5922  -16.2332 C   0  0  0  0  0  0  0  0  0  0  0  0
    7.0282   -4.5949  -15.6812 C   0  0  0  0  0  0  0  0  0  0  0  0
    8.0994   -3.6046  -17.7117 C   0  0  0  0  0  0  0  0  0  0  0  0
    4.4512    1.8312  -20.4378 C   0  0  0  0  0  0  0  0  0  0  0  0
    5.5565   10.5749  -21.8455 C   0  0  0  0  0  0  0  0  0  0  0  0
    4.7901    9.4711  -21.0945 C   0  0  0  0  0  0  0  0  0  0  0  0
    4.9695    4.4960  -17.6282 C   0  0  0  0  0  0  0  0  0  0  0  0
    5.7360    8.6225  -20.2396 C   0  0  0  0  0  0  0  0  0  0  0  0
    4.6282    5.9940  -17.6294 C   0  0  2  0  0  0  0  0  0  0  0  0
    5.1492    2.5714  -19.2746 C   0  0  1  0  0  0  0  0  0  0  0  0
    4.3605    3.8303  -18.8790 C   0  0  1  0  0  0  0  0  0  0  0  0
    6.9094   -3.4519  -16.7253 C   0  0  0  0  0  0  0  0  0  0  0  0
    5.3283    1.6745  -18.1186 N   0  0  0  0  0  0  0  0  0  0  0  0
    4.9373    7.7219  -19.4196 N   0  0  0  0  0  0  0  0  0  0  0  0
    5.6883   -3.6375  -17.5414 N   0  0  0  0  0  0  0  0  0  0  0  0
    7.5316    2.1735  -17.7859 O   0  0  0  0  0  0  0  0  0  0  0  0
    4.1174   -3.5634  -15.8690 O   0  0  0  0  0  0  0  0  0  0  0  0
    6.7209    6.5233  -18.6978 O   0  0  0  0  0  0  0  0  0  0  0  0
    2.9954    3.5281  -18.5912 O   0  0  0  0  0  0  0  0  0  0  0  0
    6.8441   -2.9252  -21.4008 H   0  0  0  0  0  0  0  0  0  0  0  0
    8.1875   -0.8316  -21.4600 H   0  0  0  0  0  0  0  0  0  0  0  0
    4.4023   -2.8276  -20.9346 H   0  0  0  0  0  0  0  0  0  0  0  0
    7.0878    1.3642  -21.0611 H   0  0  0  0  0  0  0  0  0  0  0  0
    3.3069   -0.6395  -20.4928 H   0  0  0  0  0  0  0  0  0  0  0  0
    8.8944   -0.2575  -13.8027 H   0  0  0  0  0  0  0  0  0  0  0  0
    7.1071   -0.4340  -13.7666 H   0  0  0  0  0  0  0  0  0  0  0  0
    7.7330    1.6571  -14.9142 H   0  0  0  0  0  0  0  0  0  0  0  0
    8.7779    0.7423  -16.0536 H   0  0  0  0  0  0  0  0  0  0  0  0
    9.0287   -1.7995  -15.7337 H   0  0  0  0  0  0  0  0  0  0  0  0
    8.1755   -2.5852  -14.3620 H   0  0  0  0  0  0  0  0  0  0  0  0
    5.8666   -1.0674  -17.6862 H   0  0  0  0  0  0  0  0  0  0  0  0
    7.6548   -0.9000  -17.7124 H   0  0  0  0  0  0  0  0  0  0  0  0
    5.7283    0.4743  -15.7599 H   0  0  0  0  0  0  0  0  0  0  0  0
    5.9884   -2.0064  -15.3920 H   0  0  0  0  0  0  0  0  0  0  0  0
    2.2812   -3.5200  -17.5479 H   0  0  0  0  0  0  0  0  0  0  0  0
    3.3816   -2.7869  -18.7637 H   0  0  0  0  0  0  0  0  0  0  0  0
    3.2335   -4.5733  -18.6479 H   0  0  0  0  0  0  0  0  0  0  0  0
    7.0880   10.8181  -23.3638 H   0  0  0  0  0  0  0  0  0  0  0  0
    7.2985    9.3715  -22.3201 H   0  0  0  0  0  0  0  0  0  0  0  0
    6.0330    9.3828  -23.5948 H   0  0  0  0  0  0  0  0  0  0  0  0
    4.2119    6.0631  -15.5051 H   0  0  0  0  0  0  0  0  0  0  0  0
    5.9011    6.4839  -15.9477 H   0  0  0  0  0  0  0  0  0  0  0  0
    4.5753    7.6587  -16.2457 H   0  0  0  0  0  0  0  0  0  0  0  0
    7.0432   -5.5652  -16.1991 H   0  0  0  0  0  0  0  0  0  0  0  0
    7.9582   -4.4715  -15.1069 H   0  0  0  0  0  0  0  0  0  0  0  0
    6.1674   -4.5576  -14.9974 H   0  0  0  0  0  0  0  0  0  0  0  0
    8.0711   -4.6045  -18.1692 H   0  0  0  0  0  0  0  0  0  0  0  0
    8.0240   -2.8393  -18.4983 H   0  0  0  0  0  0  0  0  0  0  0  0
    9.0462   -3.4777  -17.1663 H   0  0  0  0  0  0  0  0  0  0  0  0
    4.4905    2.4616  -21.3384 H   0  0  0  0  0  0  0  0  0  0  0  0
    3.4016    1.6456  -20.1657 H   0  0  0  0  0  0  0  0  0  0  0  0
    6.0994   11.1908  -21.1135 H   0  0  0  0  0  0  0  0  0  0  0  0
    4.8339   11.2021  -22.3882 H   0  0  0  0  0  0  0  0  0  0  0  0
    4.0378    9.9376  -20.4415 H   0  0  0  0  0  0  0  0  0  0  0  0
    4.2881    8.8214  -21.8265 H   0  0  0  0  0  0  0  0  0  0  0  0
    6.0620    4.3686  -17.6399 H   0  0  0  0  0  0  0  0  0  0  0  0
    4.5552    4.0260  -16.7240 H   0  0  0  0  0  0  0  0  0  0  0  0
    6.4015    8.0381  -20.8918 H   0  0  0  0  0  0  0  0  0  0  0  0
    6.3386    9.2769  -19.5925 H   0  0  0  0  0  0  0  0  0  0  0  0
    3.5731    6.1204  -17.9138 H   0  0  0  0  0  0  0  0  0  0  0  0
    6.1405    2.8917  -19.6278 H   0  0  0  0  0  0  0  0  0  0  0  0
    4.4150    4.5474  -19.7114 H   0  0  0  0  0  0  0  0  0  0  0  0
    4.5417    1.1472  -17.7973 H   0  0  0  0  0  0  0  0  0  0  0  0
    3.9424    7.8228  -19.4167 H   0  0  0  0  0  0  0  0  0  0  0  0
    5.8141   -3.7558  -18.5263 H   0  0  0  0  0  0  0  0  0  0  0  0
    2.5955    3.1158  -19.3480 H   0  0  0  0  0  0  0  0  0  0  0  0
  1  2  2  0
  1  3  1  0
  2  4  1  0
  3  5  2  0
  4  6  2  0
  5  6  1  0
  6 21  1  0
  7 14  1  0
  7 30  1  0
  7 33  2  0
  8 16  1  0
  8 32  1  0
  8 34  2  0
  9 26  1  0
  9 31  1  0
  9 35  2  0
 10 11  1  0
 10 12  1  0
 11 14  1  0
 12 15  1  0
 13 14  1  0
 13 15  1  0
 15 29  1  0
 17 22  1  0
 18 26  1  0
 19 29  1  0
 20 29  1  0
 21 27  1  0
 22 23  1  0
 23 25  1  0
 24 26  1  0
 24 28  1  0
 25 31  1  0
 27 28  1  0
 27 30  1  0
 28 36  1  0
 29 32  1  0
  1 37  1  0
  2 38  1  0
  3 39  1  0
  4 40  1  0
  5 41  1  0
 10 42  1  0
 10 43  1  0
 11 44  1  0
 11 45  1  0
 12 46  1  0
 12 47  1  0
 13 48  1  0
 13 49  1  0
 14 50  1  1
 15 51  1  1
 16 52  1  0
 16 53  1  0
 16 54  1  0
 17 55  1  0
 17 56  1  0
 17 57  1  0
 18 58  1  0
 18 59  1  0
 18 60  1  0
 19 61  1  0
 19 62  1  0
 19 63  1  0
 20 64  1  0
 20 65  1  0
 20 66  1  0
 21 67  1  0
 21 68  1  0
 22 69  1  0
 22 70  1  0
 23 71  1  0
 23 72  1  0
 24 73  1  0
 24 74  1  0
 25 75  1  0
 25 76  1  0
 26 77  1  6
 27 78  1  6
 28 79  1  6
 30 80  1  0
 31 81  1  0
 32 82  1  0
 36 83  1  0
M  END
>  <OMEGA_C>  (244) 
v7/LQKSP/L81w6nBBxrkQA+aSb8ACarBroifQOGX9b8fnKfBEUDQQFZ86D7oKajBCbCLQO4uLr8j
oqXBuwGkQKgxAj/c26XBsFPRQCWawz+soovB+yGMQN5lasBjgIjBKGGwQJR310DAK5XBHOH/QB5r
277moGbB7KT7QNmMMz//FXfB1NwBQYwL5b+853HBLmPYQJxyZr/hjojBkaPUQGoo7D5t8YLBikrc
QMibAsB3PIDBw1FPQMKNaMDXm5DB4RzSQA/uH0HE0rbBHgWbQDbz0kCO3YHB9ubgQD0Jk8AT5nrB
L5cBQWKxZsCbsY3B4m+OQL9k6j+ZgKPBos6xQLgyKUGbw67BqEiZQMuJF0F2wajBygWfQDPfj0CM
Bo3B9Iy3QNf1CUGg6qHB6xmUQPfOv0AECY3BQcakQFqRJEBMMprBkomLQBIjdUA+CJfBwxndQF7r
XMBUzYXBLoGqQPtU1j/k8pDBZP6dQPAZ90BPW5vB6Qa2QFnMaMCwVIzBoALxQOgaC0CHSY7BXMGD
QIMPZMBh533BdhHXQAq/0EAWlZXBsLQ/QKzMYUDZupTBswLbQOs1O8DdNKvBAwADQTTiVL8krqvB
jt+MQA73NMAVeqfB+87iQJyfrj8XfajBeKRTQPu4I79A8aPBV08OQfjSg76411zBpm3jQPMy3r4G
RFzBz3T3QNIb1D+6oG7BF3IMQdMHPj/BbYDBY3UQQUlW5r8LvXvB7c4CQYp0JcC7ymXB0bq7QH2f
iL9qfY3BdfT0QOllZr8Ss43BfE63QKjS8j6rKHzBqqC/QJtoAMCDRXbB+/4RQCNIYcAbYozBUmtY
QCFcMsD6G5bBoPFOQI5YksD8LpXB69DiQP4WLUEk6brBtY3pQNPxFUF7j7LBZw7BQBcgFkEjwrzB
JciGQC8FwkDaFHjBLNa8QFZ8z0ClKX/BMmmSQCUU9UAf94HBqWHhQCIWssDAl4HB6Kn+QMkWj8DS
tXHBAFvFQBzYkcBA9W/BMyMBQStYk8CcWpHBR2IAQYW3NcCE/JPBTb0QQQWTXsCeVInB6bGPQEyL
HUD0tKrBYLRZQLeh0j9WU6HBhy7DQGMNM0Fj6KjBOq+aQKc7M0ELG7PBVDWBQIsAH0E5iKPB9jeJ
QJMkDUGcnK7B2fvBQKrLi0B+Ho3B8MORQGTVgEDRyoXBYNnMQPibAEFwIqfB69XKQPttFEF/vZzB
3a1kQOrZw0CLT4/BnX7EQEgSOUC7BZ3BxUeNQPyDkUDlsJ3BRVWRQKLXkj/aYI7Bf1B8QKlU+kBf
VZvB9Qy6QK9ecMDvNZTBHB0mQOZpR0CcyJrBTUrKQNY/+r+KAKrBO/fgQLTHPr8WGqvBurKeQKAX
+L+cIafBhg/MQCLA9j6aWKnB3MyJQExkNr9ZRqXBT2mgQJaYAD8oXqbBs83RQOV8xj98N43BdlGM
QFGSZMDC5ofB33yzQE1t3ED0xpHBgzMBQRmBhb52+mjBGcP9QMheUD+qU3rB08sCQZQl1L+RJHPB
twzZQF5DXL8CS4nBGwvWQIKdCD8jMoTBpYndQJxV+b/WiYDBhgVPQHUOZ8Cb6I/BdLuTQN2ANEE4
8qrBJNmMQBH9yECauIDB8X7hQLaHj8AOhnnB3JYBQSmzZsBre43BLSGKQAfl6D/UAKTBSe2hQEwZ
HUE7UKvBYoa9QMsbGEEqfqHBCdahQJuqkEBKOo7Br73NQBkFAUGpD6LBmVCSQNsFv0AdsozBvUKi
QHTKJUCQKpvBGwGKQI6KdkAalZfB85TdQH8oWcDTh4XBD/upQMXa2T/V+ZHBq+6vQIt85UBel5zB
eRG2QB39ZsBD1YvBkkvxQKn8CUDPh5DBTl6EQJ5yV8AZ4HzBblPTQLEb50DirYzBgno/QBxWYkBd
DJTB9FbaQMRdOcBtXKvBWjIBQT5qQr/iSq3BV0uNQPFvN8CQWqbBQGHdQNFjtD9VRqrBFOVQQEiW
M79MA6PBk8MPQRZmgr14nF/BUVbmQKX3Z76fXl7BKzv6QAks5j9uq3LB+EUNQUoXUD+BOoLBCzAR
Qf4z2r/0Pn3BbO0DQc5xGsDCZ2bBEOu7QMW2hr/U/I3BhyL1QDDHZb/plo7BpUO5QH3lEz86SH7B
s1LBQEob8L/knXbBODMSQNjmW8C7s4vBlXxYQHv6NMDB+pXBLUpNQAILk8CX0pPBidd/QH8VOEEO
/7HBs/uAQC1VN0FMoqPB7xWwQOTuPkEF8arBEo5pQARZs0DAhnrBrpirQNBrxEBbL3nB5ESCQC1V
6kC5fH/Bm2zhQNlYr8CvhoDBro7/QFkFi8A7pnDB4kfGQBz9jMAbb27BW+cAQVUFlMBRvZDBNU4A
QcM4OMB5D5TBCuAQQcxnXcAgR4nBb1GJQBd8G0DXUqvBh3RSQMAxzz/cUaHBqpKFQF6rEkF2UavB
5qy0QBRFGkEwoLLBcADZQOoZI0EkSKHBqkGqQEwyGkHmM5rBUl3EQFrTkEAe8I/B2c2bQJzhfEAL
2obBc4zQQA9U+ECOfarB7UvtQFEAAEH5MZ7B0s9mQDwqw0DxxpDBZUrBQJoKOkD2dZ7Bhb2IQGzb
kUAUU57BplSRQPlVlz8JBY/B2DWYQI0M2ECjx6DB76W5QBgzc8CLopPBUr8gQCLJR0BFtJnBJFPP
QH456r+Mu6zBWMzZQNNMGr8poLHBQlmvQJ0T8L8mzaTB9EfEQM47FD/ImK7B8OCZQGkKMr+vu6HB
I+6jQOx/CT+As6bBD7PUQI9lvD+RUo3BpUEEQcGomMAXtY3BF/GpQPDM4ECWNpPB1UYAQZoGyL22
DWbBMCX/QI6JWD+uaXnBANr/QLHwyL8rS23BSmvVQPK+Zb8UQ4fBbsLWQDJMET+heIPBJrjXQMmO
8b/6UXvBBjYZQWKFmcAoBJTBG4iaQNnpPkE+6KrBF8mYQHlYzkBRpX/B7oitQLWRasBP+ofBs/PY
QJnSisBUcW/BIlWMQGQm6D8WdKPBpzytQOVKKEEDNazB3m+aQNL+GEFjvaPB5C6jQGYvk0Cmk43B
aW2sQPpFAkHmTqXB+VuSQK9twUAuq4vBJt+kQJWRJ0C/vprBRiyMQNFPeUA0IZfB+lDXQN+xWMBP
kIHBhnisQHDB4D/YbZHBebuZQML25kAed53BsGD9QO72ZcC8dYjB2Ij1QJaa7j88t5HB5NXzQA2+
ucCfqIzBaFTLQBcu8kD1YJDBlyVDQPrFY0Df35PBpsvfQPryLsDuD6/BelXyQCQYEb8gtLfBaUCn
QFM1NMDgD6HBwI/MQG5awj/1UrLB566BQKCIO78okpvBLQUPQc43uT3Q7FzBNJrkQPM+xD070FvB
4nz+QEWk8T8hyHPB3uQNQQ57Lz9zqIHBdG8OQUtG478PsnbBK2L/QMXTDcB9DV/B3Wq3QJ/SiL/I
p4vB3MXwQCR+ir+omYzBXmi6QDIrQj8A+HzBexy7QIKD3b9kYHHBETocQW8vusC27ZbBEwkYQYCL
g8CH3ZrBSnMmQQZxj8BNy47BcVGoQB6PSUE8ArHB1iRvQAdLPkG74qvBOlKiQF8QRUEy5aLBe8GH
QKict0A+QHXBFB+7QEnczUARx3vBzg2MQGjB7kDUEX3Bc1itQP3ElsDWsIrBvJ+RQIL6XsCx0ILB
aR2sQJLLP8BM9Y7BoKrYQPdBrMCq8XTBY2T2QMTAhMDiSGbBG/S8QO/8hMC4LmXBpWuIQDrEHEBR
karB3E9ZQJIjxT8ETaDBu3KlQG08IkGmPLTBijLQQMUBKUEdP6vB4vuiQB3GHkH6tJvBr8puQGuW
GEG5jKTB86zFQDSvlEC3So/BN9adQOY9gED8R4bB/62kQDJn+UCBba3BUGDPQB6gAkESRqTBjepf
QJ5FwkBWhY3BtMXDQCS4O0DEH57BcSqLQPMfk0Al5p3BmxGTQIaLrD8D0o3Biqh/QNdE1kDMnp/B
tXcIQS/pM8DsbonBLj8mQIlCSEDYm5nB

>  <OMEGA_E>  (244) 
wMrHPLB22z6wvE0/

>  <OMEGA_NBR>  (244) 
      4162

$$$$
50161015
     RDKit          3D

 86 88  0  0  1  0  0  0  0  0999 V2000
    6.3788   -1.9391  -21.2457 C   0  0  0  0  0  0  0  0  0  0  0  0
    7.1184   -0.7438  -21.3489 C   0  0  0  0  0  0  0  0  0  0  0  0
    5.0118   -1.9000  -20.9071 C   0  0  0  0  0  0  0  0  0  0  0  0
    7.5677    8.4028  -16.6296 C   0  0  0  0  0  0  0  0  0  0  0  0
    6.4914    0.4926  -21.1171 C   0  0  0  0  0  0  0  0  0  0  0  0
    4.3840   -0.6653  -20.6665 C   0  0  0  0  0  0  0  0  0  0  0  0
    6.5042    7.6249  -16.1486 C   0  0  0  0  0  0  0  0  0  0  0  0
    7.5325    8.9147  -17.9433 C   0  0  0  0  0  0  0  0  0  0  0  0
    5.3325    7.9260  -18.2784 C   0  0  0  0  0  0  0  0  0  0  0  0
    5.1240    0.5314  -20.7745 C   0  0  0  0  0  0  0  0  0  0  0  0
    5.3949    7.3816  -16.9708 C   0  0  0  0  0  0  0  0  0  0  0  0
    6.4237    8.6669  -18.7862 C   0  0  0  0  0  0  0  0  0  0  0  0
    6.5675    1.5756  -17.5323 C   0  0  0  0  0  0  0  0  0  0  0  0
    4.3383   -3.5792  -17.0571 C   0  0  0  0  0  0  0  0  0  0  0  0
    8.0561   -0.3642  -14.4935 C   0  0  0  0  0  0  0  0  0  0  0  0
    7.9268    0.7471  -15.5428 C   0  0  0  0  0  0  0  0  0  0  0  0
    8.1349   -1.7412  -15.1717 C   0  0  0  0  0  0  0  0  0  0  0  0
    6.7545   -0.8630  -17.1116 C   0  0  0  0  0  0  0  0  0  0  0  0
    6.6815    0.5164  -16.4334 C   0  0  2  0  0  0  0  0  0  0  0  0
    6.8806   -1.9890  -16.0527 C   0  0  1  0  0  0  0  0  0  0  0  0
    3.2005   -3.6078  -18.0729 C   0  0  0  0  0  0  0  0  0  0  0  0
    5.3989   10.0539  -20.6943 C   0  0  0  0  0  0  0  0  0  0  0  0
    6.4005    7.7851  -21.1314 C   0  0  0  0  0  0  0  0  0  0  0  0
    6.9681   -4.5409  -15.6541 C   0  0  0  0  0  0  0  0  0  0  0  0
    8.0589   -3.6137  -17.7044 C   0  0  0  0  0  0  0  0  0  0  0  0
    4.4528    1.8491  -20.5057 C   0  0  0  0  0  0  0  0  0  0  0  0
    4.2918    6.5229  -16.4336 C   0  0  0  0  0  0  0  0  0  0  0  0
    4.8932    4.5870  -17.8194 C   0  0  0  0  0  0  0  0  0  0  0  0
    6.4971    9.0579  -20.2678 C   0  0  0  0  0  0  0  0  0  0  0  0
    5.1411    2.6017  -19.3445 C   0  0  1  0  0  0  0  0  0  0  0  0
    4.2635    3.7802  -18.9432 C   0  0  1  0  0  0  0  0  0  0  0  0
    6.8732   -3.4160  -16.7203 C   0  0  0  0  0  0  0  0  0  0  0  0
    5.3511    1.7086  -18.1883 N   0  0  0  0  0  0  0  0  0  0  0  0
    5.6490   -3.5987  -17.5321 N   0  0  0  0  0  0  0  0  0  0  0  0
    3.8758    5.5859  -17.4637 N   0  0  0  0  0  0  0  0  0  0  0  0
    7.5473    2.2304  -17.8743 O   0  0  0  0  0  0  0  0  0  0  0  0
    4.0746   -3.4061  -15.8724 O   0  0  0  0  0  0  0  0  0  0  0  0
    2.9848    3.3096  -18.5056 O   0  0  0  0  0  0  0  0  0  0  0  0
    6.8615   -2.8881  -21.4268 H   0  0  0  0  0  0  0  0  0  0  0  0
    8.1668   -0.7779  -21.6060 H   0  0  0  0  0  0  0  0  0  0  0  0
    4.4469   -2.8174  -20.8323 H   0  0  0  0  0  0  0  0  0  0  0  0
    8.4151    8.6101  -15.9929 H   0  0  0  0  0  0  0  0  0  0  0  0
    7.0550    1.4100  -21.2012 H   0  0  0  0  0  0  0  0  0  0  0  0
    3.3380   -0.6328  -20.3998 H   0  0  0  0  0  0  0  0  0  0  0  0
    6.5397    7.2154  -15.1498 H   0  0  0  0  0  0  0  0  0  0  0  0
    8.3611    9.5025  -18.3098 H   0  0  0  0  0  0  0  0  0  0  0  0
    4.4524    7.7746  -18.8856 H   0  0  0  0  0  0  0  0  0  0  0  0
    8.9692   -0.1993  -13.9028 H   0  0  0  0  0  0  0  0  0  0  0  0
    7.1798   -0.3380  -13.8291 H   0  0  0  0  0  0  0  0  0  0  0  0
    7.8309    1.7166  -15.0321 H   0  0  0  0  0  0  0  0  0  0  0  0
    8.8268    0.7532  -16.1752 H   0  0  0  0  0  0  0  0  0  0  0  0
    9.0344   -1.7820  -15.8036 H   0  0  0  0  0  0  0  0  0  0  0  0
    8.1939   -2.5219  -14.3990 H   0  0  0  0  0  0  0  0  0  0  0  0
    5.8407   -1.0237  -17.7024 H   0  0  0  0  0  0  0  0  0  0  0  0
    7.6307   -0.8926  -17.7761 H   0  0  0  0  0  0  0  0  0  0  0  0
    5.7816    0.5563  -15.8019 H   0  0  0  0  0  0  0  0  0  0  0  0
    5.9985   -1.9297  -15.3982 H   0  0  0  0  0  0  0  0  0  0  0  0
    2.2418   -3.4579  -17.5547 H   0  0  0  0  0  0  0  0  0  0  0  0
    3.3477   -2.8054  -18.8107 H   0  0  0  0  0  0  0  0  0  0  0  0
    3.1916   -4.5807  -18.5860 H   0  0  0  0  0  0  0  0  0  0  0  0
    5.5114   10.2890  -21.7630 H   0  0  0  0  0  0  0  0  0  0  0  0
    4.4097    9.6057  -20.5198 H   0  0  0  0  0  0  0  0  0  0  0  0
    5.4924   10.9774  -20.1041 H   0  0  0  0  0  0  0  0  0  0  0  0
    6.4525    8.0587  -22.1956 H   0  0  0  0  0  0  0  0  0  0  0  0
    7.2340    7.1109  -20.8851 H   0  0  0  0  0  0  0  0  0  0  0  0
    5.4459    7.2770  -20.9298 H   0  0  0  0  0  0  0  0  0  0  0  0
    6.9605   -5.5212  -16.1529 H   0  0  0  0  0  0  0  0  0  0  0  0
    7.9016   -4.4272  -15.0834 H   0  0  0  0  0  0  0  0  0  0  0  0
    6.1094   -4.4709  -14.9701 H   0  0  0  0  0  0  0  0  0  0  0  0
    8.0086   -4.6216  -18.1421 H   0  0  0  0  0  0  0  0  0  0  0  0
    7.9991   -2.8626  -18.5059 H   0  0  0  0  0  0  0  0  0  0  0  0
    9.0087   -3.4965  -17.1622 H   0  0  0  0  0  0  0  0  0  0  0  0
    4.5020    2.4684  -21.4135 H   0  0  0  0  0  0  0  0  0  0  0  0
    3.4003    1.6682  -20.2419 H   0  0  0  0  0  0  0  0  0  0  0  0
    4.6513    5.9683  -15.5543 H   0  0  0  0  0  0  0  0  0  0  0  0
    3.4395    7.1556  -16.1449 H   0  0  0  0  0  0  0  0  0  0  0  0
    5.1208    3.9413  -16.9585 H   0  0  0  0  0  0  0  0  0  0  0  0
    5.8154    5.0779  -18.1636 H   0  0  0  0  0  0  0  0  0  0  0  0
    7.4753    9.5255  -20.4533 H   0  0  0  0  0  0  0  0  0  0  0  0
    6.1109    2.9823  -19.6974 H   0  0  0  0  0  0  0  0  0  0  0  0
    4.1387    4.4361  -19.8174 H   0  0  0  0  0  0  0  0  0  0  0  0
    4.5752    1.1702  -17.8596 H   0  0  0  0  0  0  0  0  0  0  0  0
    5.7736   -3.7503  -18.5127 H   0  0  0  0  0  0  0  0  0  0  0  0
    3.0631    5.1029  -17.1379 H   0  0  0  0  0  0  0  0  0  0  0  0
    3.6468    6.1063  -18.2864 H   0  0  0  0  0  0  0  0  0  0  0  0
    2.5790    2.8029  -19.1992 H   0  0  0  0  0  0  0  0  0  0  0  0
  1  2  2  0
  1  3  1  0
  2  5  1  0
  3  6  2  0
  4  7  2  0
  4  8  1  0
  5 10  2  0
  6 10  1  0
  7 11  1  0
  8 12  2  0
  9 11  2  0
  9 12  1  0
 10 26  1  0
 11 27  1  0
 12 29  1  0
 13 19  1  0
 13 33  1  0
 13 36  2  0
 14 21  1  0
 14 34  1  0
 14 37  2  0
 15 16  1  0
 15 17  1  0
 16 19  1  0
 17 20  1  0
 18 19  1  0
 18 20  1  0
 20 32  1  0
 22 29  1  0
 23 29  1  0
 24 32  1  0
 25 32  1  0
 26 30  1  0
 27 35  1  0
 28 31  1  0
 28 35  1  0
 30 31  1  0
 30 33  1  0
 31 38  1  0
 32 34  1  0
  1 39  1  0
  2 40  1  0
  3 41  1  0
  4 42  1  0
  5 43  1  0
  6 44  1  0
  7 45  1  0
  8 46  1  0
  9 47  1  0
 15 48  1  0
 15 49  1  0
 16 50  1  0
 16 51  1  0
 17 52  1  0
 17 53  1  0
 18 54  1  0
 18 55  1  0
 19 56  1  1
 20 57  1  1
 21 58  1  0
 21 59  1  0
 21 60  1  0
 22 61  1  0
 22 62  1  0
 22 63  1  0
 23 64  1  0
 23 65  1  0
 23 66  1  0
 24 67  1  0
 24 68  1  0
 24 69  1  0
 25 70  1  0
 25 71  1  0
 25 72  1  0
 26 73  1  0
 26 74  1  0
 27 75  1  0
 27 76  1  0
 28 77  1  0
 28 78  1  0
 29 79  1  0
 30 80  1  6
 31 81  1  6
 33 82  1  0
 34 83  1  0
 35 84  1  0
 35 85  1  0
 38 86  1  0
M  CHG  1  35   1
M  END
>  <OMEGA_C>  (245) 
0R7MQBE0+L8696nBssnjQLRoPr+PyqrBzWCgQK8y87+uQafB1yryQM9xBkFxCYXBJbnPQI42/D7l
76jBm0mMQMFQKr8SVaXBeyLQQA3/80BBMIHB3AnxQKqiDkHTi4/BLaSqQHCh/UAbOpLB0/ejQDQL
CD9BMqbBpaKsQDg27EAgxIfBQY/NQKWrCkEoSpbBvyjSQKeuyT82QozBZdOKQB4SZcDrdIjBzOUA
QQR8ur545WfBVaj9QMlDPz90r3jBqigCQXrf3r8qv3LBKSXYQMjtXL+L5IjBic7VQDgzBD+Pd4PB
oS3cQJGX/r8FbIDBOtVMQOrlZsA2lZDBD8SsQN7cIEH+jaXBstDMQOkf+UAzDanBkvreQKVOkcAd
d3rBGfEAQYBGZ8Cjoo3B+nyOQK+w7D+wC6TBsVaJQN670EAUeIPB65ScQNjIkkAyjo7BR+jPQETt
EEFoJKLBlYOkQJCCJkCAwZrBZW6IQObucUDDi5fBgvHbQMWfWsBAw4XB5zurQJe02j+igZHBSMS0
QFBRZsC7QYzBjw14QOu/skC5tYvBiYPxQG6+DkCg/o7B2GKCQLn9WcB/9X3BYgY/QAjRU0CHC5TB
QJHbQD/WOMAqaqvBD6sCQY8iR78m2azB5UyOQG1QNMCcqKbBMaQGQdHCCUHY4n/BisLhQFF7tD//
m6nBD6FVQAP8Ib+9MqPBPUXRQFrk5kDAZXLBBMcFQQoKGEFwepLBwXmOQLnJ+EDPFZfB7YEPQX8T
TL6qcV7B9MDlQDUMrb4jRF3B+pb6QOa62z94g3DBxToNQQnUQD/LZoHB1IwQQdoY5L9923zBYBoD
QXhmIcA6YmbBwea6QIwHg797no3BVy70QCKCZL9nNY7BHQO5QDRrDj/D1HzBgfO/QIsA978kX3bB
ZXoPQMxOXcAAcIzBc0BWQA6LM8BifJbBukNMQBmVksAzsJTBZF2wQKifJEGsGq7BJRyNQOmwGUFz
KKTBbsGvQJ+jL0Ey1aDB1XrOQGfwAEGhkLHBxHznQIOM40DFFKfBJ0WuQBXd6EBVcKfBd7zeQMyt
sMAmOYHBwNn8QGGrjcCkVXHBL4DDQPERj8C5hW/BWyMAQSTkk8AGI5HBn/j/QHM1N8AQDJTBtiMQ
QRLGX8AdTInBGRCQQM36HUDQTqvBip5ZQFeI1T9b76HB0deUQLT8vkCB3njBhyFcQFz65ECsKIHB
892jQLk+fEDyqofBFBi6QBd+okAhT5HBCDbvQHpoGEFRoKPBs4zDQA7ePkAxlJ3BnXCEQO/0jUAS
ip7BzGeSQNvHlT964I7BQ8G4QDAEcMDsGZTBXApEQJRKo0BsGonB22VpQNZmw0CJSpLBHg4lQD9i
M0D1l5nB8SXMQE4D9b/7GarB6uvjQDOIOL/W8arBypWgQELF778POKfBQrzZQKd2BkHjk5XBYCHQ
QHoTBD8Q8ajBssSMQH1zI7+DKKXBU7qzQFQq+EDLepLBJNP6QHeXCUGhAI7BDEnQQHL97kDva4DB
bYikQP41Dj+PEabBXJOvQPbx6ECi24fBlNz1QAM+AkE1T4PBqb3SQNg+yT+LGYzBj26KQAZ6ZMAH
RYjBx0MBQU/zyb6e3mfBuG3+QEBtOT+jinjBaFYCQYNH4r/N2nLB/nHYQNw/Xr9g3IjB+GjWQNmf
AT+bXIPBb2LcQPcRAMBIc4DBQhtLQJmQY8DUQ5DBKuUPQRPyHUEVw3HB06ogQc2r80AyWXrBeCDf
QN3LkcDJ2XrB/pgAQdB4Z8BQ443BmjWPQDZy7z9646PB7EKIQPNw0kB9DITBMnabQI8PkkAsII7B
b8ELQeTZBUHiMnXBHe+kQGsuJ0BBgprBcpOIQGUfckAPXJfBL7jbQNsHW8Ac34XBGaarQIXS2z+R
RJHBmCG0QD7HZcCvO4zBKtx2QItos0BDAIzB1zXyQPkDDkDP4I7B2JyCQBBKW8AcdH3B7jg+QPmB
VEAJPJTBK2PbQH1CN8DRq6vBSasCQSfNQb8sIa3BpnOOQI+DMsAemKbBtaLdQM4EDEFis53Bkz7i
QIdLtz/ImanBAeRWQDKJGr9m4qLBwP2ZQMLi80BbJZjBIvwLQcCYEUEvW5DBwprMQCf/4kDwvXDB
evAPQbk4dL6Eel7B25rmQPLiu77aKV3Bo5v7QER22D/zQ3DBsZENQb28Oj+9XIHBNbAQQSPS578k
BX3BrjwDQZFtI8AhkmbBUR67QEaTgr/Kko3BmWn0QJjtZb/5Mo7BJbe5QJLcCz+7jHzBr0DAQPRR
+L/9XXbBEF0OQKccWsDy+YvBa4dUQF4LL8BiAZbB3D5JQCFxkMD0lJTB0gUcQZoWIEFJMGXBEK0V
QQIaJUEcYoDBQu8AQUnUJUFz4mzBX2ksQQp6+UDBkG3BU2MdQckp0UD1fXvBlCAnQQ83/0Ca1YTB
lJHeQGsJscBVeoHBD0P9QB1kjsB96nHB7vbDQMGoj8AgtW/BEkn/QPPhk8DkcJHBvgD/QJwGN8DU
P5TB6esPQQ9qYMCEponB9SKRQJ3HH0DzG6vBLtxaQFyP2D923qHBDxGPQM4PwkAv5XjB7sVcQHXR
6UA52YLBoNqfQFPWekAuFYfBu1i6QItXoEDrYJDBeWcFQQOk/kDTI2bBXvnDQLD7P0B/RJ3BEZqF
QCSTjkDySJ7B+rqSQJP3lz9ZlY7BRJ63QNrPbsDcGpTBWTRBQOUxpUAceYnBzzlrQOntwkAc2JLB
5lwlQOLkNEAw75nB

>  <OMEGA_E>  (245) 
bMYxP8TdRD8=

>  <OMEGA_NBR>  (245) 
     21199

$$$$
50161014
     RDKit          3D

 86 87  0  0  1  0  0  0  0  0999 V2000
    6.5411   -1.9897  -21.4286 C   0  0  0  0  0  0  0  0  0  0  0  0
    6.9762   -0.7798  -22.0062 C   0  0  0  0  0  0  0  0  0  0  0  0
    5.4589   -1.9883  -20.5275 C   0  0  0  0  0  0  0  0  0  0  0  0
    6.3282    0.4318  -21.6843 C   0  0  0  0  0  0  0  0  0  0  0  0
    4.8145   -0.7779  -20.1970 C   0  0  0  0  0  0  0  0  0  0  0  0
    5.2360    0.4373  -20.7872 C   0  0  0  0  0  0  0  0  0  0  0  0
    6.5526    1.3432  -17.5002 C   0  0  0  0  0  0  0  0  0  0  0  0
    7.3133   -5.2796  -14.5957 C   0  0  0  0  0  0  0  0  0  0  0  0
    5.1825    6.8966  -18.6530 C   0  0  0  0  0  0  0  0  0  0  0  0
    7.6083   -0.2966  -14.1276 C   0  0  0  0  0  0  0  0  0  0  0  0
    7.6913    0.6600  -15.3267 C   0  0  0  0  0  0  0  0  0  0  0  0
    7.5451   -1.7618  -14.6033 C   0  0  0  0  0  0  0  0  0  0  0  0
    6.3944   -1.0124  -16.7428 C   0  0  0  0  0  0  0  0  0  0  0  0
    6.4817    0.4472  -16.2637 C   0  0  2  0  0  0  0  0  0  0  0  0
    6.3343   -2.0017  -15.5526 C   0  0  1  0  0  0  0  0  0  0  0  0
    7.1687   -6.1186  -13.3263 C   0  0  0  0  0  0  0  0  0  0  0  0
    3.9352    8.8902  -23.8729 C   0  0  0  0  0  0  0  0  0  0  0  0
    5.2294    6.5391  -16.1660 C   0  0  0  0  0  0  0  0  0  0  0  0
    5.1825   -5.2653  -17.5190 C   0  0  0  0  0  0  0  0  0  0  0  0
    3.7491   -3.4917  -16.4176 C   0  0  0  0  0  0  0  0  0  0  0  0
    4.5247    1.7453  -20.4444 C   0  0  0  0  0  0  0  0  0  0  0  0
    4.5035    9.3979  -22.5365 C   0  0  0  0  0  0  0  0  0  0  0  0
    4.1673    8.4172  -21.3940 C   0  0  0  0  0  0  0  0  0  0  0  0
    5.1798    4.5169  -17.6957 C   0  0  0  0  0  0  0  0  0  0  0  0
    4.7382    8.9396  -20.0623 C   0  0  0  0  0  0  0  0  0  0  0  0
    4.6999    5.9811  -17.5055 C   0  0  2  0  0  0  0  0  0  0  0  0
    6.3249   -3.4740  -16.0774 C   0  0  2  0  0  0  0  0  0  0  0  0
    5.1338   -3.7929  -17.0465 C   0  0  0  0  0  0  0  0  0  0  0  0
    5.2430    2.5215  -19.3063 C   0  0  1  0  0  0  0  0  0  0  0  0
    4.4985    3.8331  -18.9215 C   0  0  1  0  0  0  0  0  0  0  0  0
    5.3533    1.6613  -18.1214 N   0  0  0  0  0  0  0  0  0  0  0  0
    4.4193    8.0169  -18.9648 N   0  0  0  0  0  0  0  0  0  0  0  0
    6.2893   -4.3957  -14.9252 N   0  0  0  0  0  0  0  0  0  0  0  0
    7.6342    1.6902  -17.9669 O   0  0  0  0  0  0  0  0  0  0  0  0
    8.3625   -5.3180  -15.2309 O   0  0  0  0  0  0  0  0  0  0  0  0
    6.2392    6.6688  -19.2368 O   0  0  0  0  0  0  0  0  0  0  0  0
    3.1302    3.5636  -18.5975 O   0  0  0  0  0  0  0  0  0  0  0  0
    7.0369   -2.9165  -21.6768 H   0  0  0  0  0  0  0  0  0  0  0  0
    7.8070   -0.7800  -22.6963 H   0  0  0  0  0  0  0  0  0  0  0  0
    5.1218   -2.9157  -20.0886 H   0  0  0  0  0  0  0  0  0  0  0  0
    6.6679    1.3576  -22.1246 H   0  0  0  0  0  0  0  0  0  0  0  0
    3.9970   -0.7786  -19.4913 H   0  0  0  0  0  0  0  0  0  0  0  0
    8.4976   -0.1604  -13.4947 H   0  0  0  0  0  0  0  0  0  0  0  0
    6.7044   -0.0669  -13.5442 H   0  0  0  0  0  0  0  0  0  0  0  0
    7.6914    1.6984  -14.9638 H   0  0  0  0  0  0  0  0  0  0  0  0
    8.6203    0.4658  -15.8828 H   0  0  0  0  0  0  0  0  0  0  0  0
    8.4740   -2.0035  -15.1407 H   0  0  0  0  0  0  0  0  0  0  0  0
    7.4473   -2.4185  -13.7263 H   0  0  0  0  0  0  0  0  0  0  0  0
    5.4878   -1.1338  -17.3537 H   0  0  0  0  0  0  0  0  0  0  0  0
    7.2809   -1.2414  -17.3526 H   0  0  0  0  0  0  0  0  0  0  0  0
    5.5638    0.6877  -15.7072 H   0  0  0  0  0  0  0  0  0  0  0  0
    5.4056   -1.8236  -14.9907 H   0  0  0  0  0  0  0  0  0  0  0  0
    8.0978   -6.6804  -13.1497 H   0  0  0  0  0  0  0  0  0  0  0  0
    6.9723   -5.4567  -12.4699 H   0  0  0  0  0  0  0  0  0  0  0  0
    6.3317   -6.8223  -13.4454 H   0  0  0  0  0  0  0  0  0  0  0  0
    4.1856    9.6027  -24.6727 H   0  0  0  0  0  0  0  0  0  0  0  0
    4.3714    7.9080  -24.1072 H   0  0  0  0  0  0  0  0  0  0  0  0
    2.8420    8.7967  -23.7944 H   0  0  0  0  0  0  0  0  0  0  0  0
    4.8918    5.8948  -15.3408 H   0  0  0  0  0  0  0  0  0  0  0  0
    6.3289    6.5614  -16.1873 H   0  0  0  0  0  0  0  0  0  0  0  0
    4.8448    7.5587  -16.0160 H   0  0  0  0  0  0  0  0  0  0  0  0
    6.1659   -5.4757  -17.9645 H   0  0  0  0  0  0  0  0  0  0  0  0
    5.0195   -5.9318  -16.6591 H   0  0  0  0  0  0  0  0  0  0  0  0
    4.3962   -5.4357  -18.2691 H   0  0  0  0  0  0  0  0  0  0  0  0
    3.7178   -2.4443  -16.0828 H   0  0  0  0  0  0  0  0  0  0  0  0
    2.9617   -3.6607  -17.1669 H   0  0  0  0  0  0  0  0  0  0  0  0
    3.5850   -4.1567  -15.5569 H   0  0  0  0  0  0  0  0  0  0  0  0
    4.4963    2.3794  -21.3428 H   0  0  0  0  0  0  0  0  0  0  0  0
    3.4975    1.5169  -20.1242 H   0  0  0  0  0  0  0  0  0  0  0  0
    5.5961    9.4927  -22.6213 H   0  0  0  0  0  0  0  0  0  0  0  0
    4.0667   10.3814  -22.3085 H   0  0  0  0  0  0  0  0  0  0  0  0
    3.0750    8.3195  -21.3081 H   0  0  0  0  0  0  0  0  0  0  0  0
    4.6069    7.4340  -21.6174 H   0  0  0  0  0  0  0  0  0  0  0  0
    6.2690    4.5173  -17.8492 H   0  0  0  0  0  0  0  0  0  0  0  0
    4.9375    3.9431  -16.7890 H   0  0  0  0  0  0  0  0  0  0  0  0
    5.8307    9.0336  -20.1495 H   0  0  0  0  0  0  0  0  0  0  0  0
    4.3017    9.9254  -19.8439 H   0  0  0  0  0  0  0  0  0  0  0  0
    3.6001    5.9913  -17.4833 H   0  0  0  0  0  0  0  0  0  0  0  0
    7.2600   -3.6373  -16.6332 H   0  0  0  0  0  0  0  0  0  0  0  0
    5.2465   -3.1514  -17.9329 H   0  0  0  0  0  0  0  0  0  0  0  0
    6.2509    2.7894  -19.6561 H   0  0  0  0  0  0  0  0  0  0  0  0
    4.5528    4.5242  -19.7755 H   0  0  0  0  0  0  0  0  0  0  0  0
    4.5116    1.2810  -17.7382 H   0  0  0  0  0  0  0  0  0  0  0  0
    3.6082    8.2047  -18.4108 H   0  0  0  0  0  0  0  0  0  0  0  0
    5.4764   -4.3846  -14.3429 H   0  0  0  0  0  0  0  0  0  0  0  0
    2.7052    3.1467  -19.3378 H   0  0  0  0  0  0  0  0  0  0  0  0
  1  2  2  0
  1  3  1  0
  2  4  1  0
  3  5  2  0
  4  6  2  0
  5  6  1  0
  6 21  1  0
  7 14  1  0
  7 31  1  0
  7 34  2  0
  8 16  1  0
  8 33  1  0
  8 35  2  0
  9 26  1  0
  9 32  1  0
  9 36  2  0
 10 11  1  0
 10 12  1  0
 11 14  1  0
 12 15  1  0
 13 14  1  0
 13 15  1  0
 15 27  1  0
 17 22  1  0
 18 26  1  0
 19 28  1  0
 20 28  1  0
 21 29  1  0
 22 23  1  0
 23 25  1  0
 24 26  1  0
 24 30  1  0
 25 32  1  0
 27 28  1  0
 27 33  1  0
 29 30  1  0
 29 31  1  0
 30 37  1  0
  1 38  1  0
  2 39  1  0
  3 40  1  0
  4 41  1  0
  5 42  1  0
 10 43  1  0
 10 44  1  0
 11 45  1  0
 11 46  1  0
 12 47  1  0
 12 48  1  0
 13 49  1  0
 13 50  1  0
 14 51  1  1
 15 52  1  1
 16 53  1  0
 16 54  1  0
 16 55  1  0
 17 56  1  0
 17 57  1  0
 17 58  1  0
 18 59  1  0
 18 60  1  0
 18 61  1  0
 19 62  1  0
 19 63  1  0
 19 64  1  0
 20 65  1  0
 20 66  1  0
 20 67  1  0
 21 68  1  0
 21 69  1  0
 22 70  1  0
 22 71  1  0
 23 72  1  0
 23 73  1  0
 24 74  1  0
 24 75  1  0
 25 76  1  0
 25 77  1  0
 26 78  1  1
 27 79  1  6
 28 80  1  0
 29 81  1  6
 30 82  1  6
 31 83  1  0
 32 84  1  0
 33 85  1  0
 37 86  1  0
M  END
>  <OMEGA_C>  (246) 
2VDRQOmt/r/TbavBaz3fQKKhR7+7DLDBsq+uQHd//r9ROKTB4oDKQKQT3T5lea3BmhCaQAEnR79p
k6HBBo2nQIzg3z5ETKbBPq/RQP7tqz94AIzBKAbqQG3yqMDoh2nB0talQNyw3EBnOZXBHXfzQBnX
l757CmLBux72QNH3KD86OnXBZ3HxQLqC4b9Ep2nBUJ/MQOiXgb8x8YXBSGrPQKrx5D4KHILB2bLK
QI0bAMCG13jBGmblQDjLw8B0OFXBHtp7QGw+DkGm+77BF1enQA5A0UD8U4HBrNalQLt9qMDTJozB
XvFvQPB3X8A9V4PBf8qQQLhm3z8fjqPBiRyQQLldFkG0SrTBdFqFQNqsBkHpJqvBksClQFmKkEC3
kI3BLp+XQLIID0GGf6DBM2WWQGxlv0A2C4zBe2XKQE9WXsCenoDBI0ikQGG+csAsX4jBhcanQMhg
IUBPc5rBufOPQJlRdUAzX5fBO06rQF+m1D+Y+JDBJ2uNQFtFAEH4t5fBNELJQLupjMCAzW7BdUv0
QL5Y2D9HvI/B0swFQd4sqsD0sXPBOKfHQBhn1UAG5ZnBQVVIQI4RZECnx5TBry7hQK2nOsAXaq3B
39L5QPyuR78YkrXBzeWjQOqaOsCOtaDBo1/VQGLFrT89/7DBac5/QJdQR78l7pvBOPYHQbczJL4m
6lfBuorWQCESib0GtVjB4h/2QIpm2T+/a2/BjewJQcSC7j4FIH7BdJUHQQA6AMAmQHLBSlDuQOPI
GsD6nlvB/5uvQLogkb9m1IrBzfzoQEDmnr8P0orBDguyQJYOMD/eUHvBnPqsQLJq6b8I2m/BZpAB
QTbG1cBYZVLB3hzfQH2drsC3hEfBfJ3KQFtQ2sA+IFfBe/CFQKmkGUGnYcXBYuKLQC0O/UCC28DB
IuM1QC2/DEHqWr7BkImcQI2ivEDTc3XBvYbKQBv30UCmf4HBRAibQILg8UC4IIDBUU/FQPU4r8BV
t4/Bu5+gQBHRvcDfRYXBjq2MQKjxrcAoJ5LBD/FtQCRwHMCbqYDBMow9QFFIasDAVYnBi3BlQJED
hcDu6HjBmeGPQP1HGEASvqrBSdZfQDMpwj9P/qDBQhOzQAriF0F4+LTBcSKCQCAaJkHgd7LB/MxE
QJscBUEId6rBFmyTQPDi7UCJ8KzBj5vIQG+NkEApy47Bx/+dQI1cfEDGT4bB95S6QHmJEEE0MqHB
TKeJQH7OHkFXwJ7BcmhmQOS4v0C73YvBC1LoQNXIaMDaEIXBCeOnQDGwScCgdo/BWgfIQO6EMkC/
P53B1LCRQGPGkEBPNJ7BwV6QQAP5oz+9543Biu1mQGVGA0FrSZPBnD6vQGxOjMCifGXBKCItQABj
SUDTs5rB

>  <OMEGA_E>  (246) 
jtJcPw==

>  <OMEGA_NBR>  (246) 
     22920

$$$$
50161017
     RDKit          3D

 87 89  0  0  1  0  0  0  0  0999 V2000
    6.7548   -1.7396  -21.4315 C   0  0  0  0  0  0  0  0  0  0  0  0
    7.3696   -0.4739  -21.4984 C   0  0  0  0  0  0  0  0  0  0  0  0
    5.4009   -1.8479  -21.0557 C   0  0  0  0  0  0  0  0  0  0  0  0
    6.6300    0.6845  -21.1958 C   0  0  0  0  0  0  0  0  0  0  0  0
    4.6608   -0.6907  -20.7447 C   0  0  0  0  0  0  0  0  0  0  0  0
    5.2731    0.5802  -20.8128 C   0  0  0  0  0  0  0  0  0  0  0  0
    6.6013    1.5364  -17.5239 C   0  0  0  0  0  0  0  0  0  0  0  0
    4.2747   -3.5535  -17.1444 C   0  0  0  0  0  0  0  0  0  0  0  0
    5.5341    6.6830  -18.5674 C   0  0  0  0  0  0  0  0  0  0  0  0
    7.3190   -5.6663  -16.4141 C   0  0  0  0  0  0  0  0  0  0  0  0
    8.1338   -5.0638  -17.5807 C   0  0  0  0  0  0  0  0  0  0  0  0
    7.8495   -0.2345  -14.3181 C   0  0  0  0  0  0  0  0  0  0  0  0
    7.8576    0.8003  -15.4458 C   0  0  0  0  0  0  0  0  0  0  0  0
    7.9001   -1.6549  -14.8907 C   0  0  0  0  0  0  0  0  0  0  0  0
    6.8549   -4.4838  -15.5684 C   0  0  0  0  0  0  0  0  0  0  0  0
    8.0262   -3.5424  -17.4430 C   0  0  0  0  0  0  0  0  0  0  0  0
    6.7352   -0.8334  -17.0002 C   0  0  0  0  0  0  0  0  0  0  0  0
    6.6553    0.5549  -16.3780 C   0  0  2  0  0  0  0  0  0  0  0  0
    6.7321   -1.9083  -15.8989 C   0  0  1  0  0  0  0  0  0  0  0  0
    6.7697   -3.3161  -16.5720 C   0  0  0  0  0  0  0  0  0  0  0  0
    3.2416   -3.7167  -18.2563 C   0  0  0  0  0  0  0  0  0  0  0  0
    6.3221    9.8178  -22.9496 C   0  0  0  0  0  0  0  0  0  0  0  0
    4.9791    6.5053  -16.1321 C   0  0  0  0  0  0  0  0  0  0  0  0
    4.4826    1.8245  -20.4480 C   0  0  0  0  0  0  0  0  0  0  0  0
    5.4549   10.4384  -21.8417 C   0  0  0  0  0  0  0  0  0  0  0  0
    4.7161    9.3655  -21.0243 C   0  0  0  0  0  0  0  0  0  0  0  0
    5.0167    4.4407  -17.5802 C   0  0  0  0  0  0  0  0  0  0  0  0
    5.6867    8.5942  -20.1319 C   0  0  0  0  0  0  0  0  0  0  0  0
    4.6908    5.9365  -17.5277 C   0  0  2  0  0  0  0  0  0  0  0  0
    5.1762    2.5848  -19.2971 C   0  0  1  0  0  0  0  0  0  0  0  0
    4.3756    3.8132  -18.8411 C   0  0  1  0  0  0  0  0  0  0  0  0
    5.3832    1.6813  -18.1660 N   0  0  0  0  0  0  0  0  0  0  0  0
    5.6192   -3.5018  -17.4968 N   0  0  0  0  0  0  0  0  0  0  0  0
    4.9215    7.6616  -19.3197 N   0  0  0  0  0  0  0  0  0  0  0  0
    7.6214    2.0821  -17.9335 O   0  0  0  0  0  0  0  0  0  0  0  0
    3.8962   -3.3677  -15.9937 O   0  0  0  0  0  0  0  0  0  0  0  0
    6.7448    6.4925  -18.6508 O   0  0  0  0  0  0  0  0  0  0  0  0
    3.0267    3.4728  -18.5253 O   0  0  0  0  0  0  0  0  0  0  0  0
    7.3215   -2.6279  -21.6684 H   0  0  0  0  0  0  0  0  0  0  0  0
    8.4086   -0.3925  -21.7819 H   0  0  0  0  0  0  0  0  0  0  0  0
    4.9306   -2.8188  -21.0061 H   0  0  0  0  0  0  0  0  0  0  0  0
    7.0999    1.6551  -21.2563 H   0  0  0  0  0  0  0  0  0  0  0  0
    3.6241   -0.7753  -20.4539 H   0  0  0  0  0  0  0  0  0  0  0  0
    6.4525   -6.2227  -16.8008 H   0  0  0  0  0  0  0  0  0  0  0  0
    7.9498   -6.3398  -15.8154 H   0  0  0  0  0  0  0  0  0  0  0  0
    9.1856   -5.3786  -17.5125 H   0  0  0  0  0  0  0  0  0  0  0  0
    7.7155   -5.3891  -18.5447 H   0  0  0  0  0  0  0  0  0  0  0  0
    8.7257   -0.0731  -13.6728 H   0  0  0  0  0  0  0  0  0  0  0  0
    6.9307   -0.1160  -13.7251 H   0  0  0  0  0  0  0  0  0  0  0  0
    7.7884    1.8107  -15.0166 H   0  0  0  0  0  0  0  0  0  0  0  0
    8.7913    0.7091  -16.0202 H   0  0  0  0  0  0  0  0  0  0  0  0
    8.8587   -1.7965  -15.4114 H   0  0  0  0  0  0  0  0  0  0  0  0
    7.8218   -2.3765  -14.0642 H   0  0  0  0  0  0  0  0  0  0  0  0
    5.8710   -4.6863  -15.1201 H   0  0  0  0  0  0  0  0  0  0  0  0
    7.5819   -4.2631  -14.7729 H   0  0  0  0  0  0  0  0  0  0  0  0
    8.9198   -3.1333  -16.9488 H   0  0  0  0  0  0  0  0  0  0  0  0
    7.9046   -3.0710  -18.4294 H   0  0  0  0  0  0  0  0  0  0  0  0
    5.8688   -0.9865  -17.6604 H   0  0  0  0  0  0  0  0  0  0  0  0
    7.6622   -0.9163  -17.5867 H   0  0  0  0  0  0  0  0  0  0  0  0
    5.7287    0.6324  -15.7903 H   0  0  0  0  0  0  0  0  0  0  0  0
    5.7858   -1.8258  -15.3442 H   0  0  0  0  0  0  0  0  0  0  0  0
    2.2299   -3.6380  -17.8318 H   0  0  0  0  0  0  0  0  0  0  0  0
    3.3857   -2.9277  -19.0091 H   0  0  0  0  0  0  0  0  0  0  0  0
    3.3650   -4.7020  -18.7295 H   0  0  0  0  0  0  0  0  0  0  0  0
    6.8313   10.6169  -23.5083 H   0  0  0  0  0  0  0  0  0  0  0  0
    7.0717    9.1512  -22.4982 H   0  0  0  0  0  0  0  0  0  0  0  0
    5.6837    9.2409  -23.6349 H   0  0  0  0  0  0  0  0  0  0  0  0
    4.3743    5.9701  -15.3853 H   0  0  0  0  0  0  0  0  0  0  0  0
    6.0465    6.3790  -15.8982 H   0  0  0  0  0  0  0  0  0  0  0  0
    4.7235    7.5751  -16.1124 H   0  0  0  0  0  0  0  0  0  0  0  0
    4.4149    2.4817  -21.3275 H   0  0  0  0  0  0  0  0  0  0  0  0
    3.4710    1.5312  -20.1307 H   0  0  0  0  0  0  0  0  0  0  0  0
    6.1015   11.0178  -21.1662 H   0  0  0  0  0  0  0  0  0  0  0  0
    4.7135   11.1075  -22.3029 H   0  0  0  0  0  0  0  0  0  0  0  0
    3.9571    9.8522  -20.3942 H   0  0  0  0  0  0  0  0  0  0  0  0
    4.2248    8.6628  -21.7134 H   0  0  0  0  0  0  0  0  0  0  0  0
    6.1076    4.3049  -17.6181 H   0  0  0  0  0  0  0  0  0  0  0  0
    4.6167    3.9472  -16.6822 H   0  0  0  0  0  0  0  0  0  0  0  0
    6.4050    8.0414  -20.7551 H   0  0  0  0  0  0  0  0  0  0  0  0
    6.2296    9.2951  -19.4807 H   0  0  0  0  0  0  0  0  0  0  0  0
    3.6253    6.0801  -17.7601 H   0  0  0  0  0  0  0  0  0  0  0  0
    6.1544    2.9317  -19.6614 H   0  0  0  0  0  0  0  0  0  0  0  0
    4.3949    4.5610  -19.6476 H   0  0  0  0  0  0  0  0  0  0  0  0
    4.6069    1.1416  -17.8403 H   0  0  0  0  0  0  0  0  0  0  0  0
    5.8339   -3.5990  -18.4686 H   0  0  0  0  0  0  0  0  0  0  0  0
    3.9241    7.7324  -19.3068 H   0  0  0  0  0  0  0  0  0  0  0  0
    2.6111    3.0847  -19.2862 H   0  0  0  0  0  0  0  0  0  0  0  0
  1  2  2  0
  1  3  1  0
  2  4  1  0
  3  5  2  0
  4  6  2  0
  5  6  1  0
  6 24  1  0
  7 18  1  0
  7 32  1  0
  7 35  2  0
  8 21  1  0
  8 33  1  0
  8 36  2  0
  9 29  1  0
  9 34  1  0
  9 37  2  0
 10 11  1  0
 10 15  1  0
 11 16  1  0
 12 13  1  0
 12 14  1  0
 13 18  1  0
 14 19  1  0
 15 20  1  0
 16 20  1  0
 17 18  1  0
 17 19  1  0
 19 20  1  0
 20 33  1  0
 22 25  1  0
 23 29  1  0
 24 30  1  0
 25 26  1  0
 26 28  1  0
 27 29  1  0
 27 31  1  0
 28 34  1  0
 30 31  1  0
 30 32  1  0
 31 38  1  0
  1 39  1  0
  2 40  1  0
  3 41  1  0
  4 42  1  0
  5 43  1  0
 10 44  1  0
 10 45  1  0
 11 46  1  0
 11 47  1  0
 12 48  1  0
 12 49  1  0
 13 50  1  0
 13 51  1  0
 14 52  1  0
 14 53  1  0
 15 54  1  0
 15 55  1  0
 16 56  1  0
 16 57  1  0
 17 58  1  0
 17 59  1  0
 18 60  1  1
 19 61  1  1
 21 62  1  0
 21 63  1  0
 21 64  1  0
 22 65  1  0
 22 66  1  0
 22 67  1  0
 23 68  1  0
 23 69  1  0
 23 70  1  0
 24 71  1  0
 24 72  1  0
 25 73  1  0
 25 74  1  0
 26 75  1  0
 26 76  1  0
 27 77  1  0
 27 78  1  0
 28 79  1  0
 28 80  1  0
 29 81  1  6
 30 82  1  6
 31 83  1  6
 32 84  1  0
 33 85  1  0
 34 86  1  0
 38 87  1  0
M  END
>  <OMEGA_C>  (247) 
7CbYQGOs3r+mc6vB+tPrQJyh8r66/KvBfdSsQKuH7L8FcqjBECnUQOY8Lz8NkanBISWVQNrSML8t
9aXBLL2oQAaFFD+3gKbB3T3TQEKnxD8CMYzBssqIQKdsY8DIJ4nBZxexQCXb1UAZipTBIDXqQAlS
tcAZUIPB5iMCQQ4LosBIpYzBVy/7QFMWcL7vFmXBznH7QMjeTD8JInfB1838QErU07+AQG7BMFvb
QCt7j8AtGHnBYGsAQSW2YsA8i4vBHofXQJxYVb9/AIjBMPjUQFoPDj8XBoPBN23XQAxE9L/WYX7B
uqHYQIQ7VMCNk4TBJHdPQCTebcDPDJLB2k7KQMgVHUHImLfBAlWfQL0r0ECkDoHBS3GPQI2J6T93
laPBeo6uQMoDJ0HCu67BUOqWQA3ZFUGtMajBfoigQPoZjkBRpIzBbfm1QOqBCUEcDqHBFRuWQHv3
vUDBOIzBLqOlQA9tJUBxYJrB+ASMQMoLdECXupbBNEOsQJMz1z/vU5HBOdCzQOUcYMB2+YvBDn2d
QAEs9UDKjprBpuLzQL5ABUDJd4/BXFt5QOKIV8D+5X/BVdXXQJXCz0DKNJXBUrVBQAxDXkC6M5TB
6knqQKovKMDnWK3BgYkGQRD7yL5aQa7BusedQPFnNMB0DKjBETLjQL3Z0z/jDKrBbPFnQGZ3Rr+f
oaPBqHrOQJ0gx8D3Z4bB8GT+QGHfysDvC33BFPgSQWsdrMCgGYzBIuX2QFpzrMCCW5TBXZwLQfLO
lb3+w1rB7MfdQJWd7b0HmlvByjr5QGDF5z/2Q3DBPqkMQcyENT9gKYDBPr0NQTjy5b8vlXbB8Uv6
QMAYGMACB2HBLt+7QNn1lcD163HBj57yQDZriMDbXWzBXLcOQSOISMAbl4fB3vL8QPiLRMB6b5PB
Cc27QCKLfL96SI3BmzD1QOSPar+IsYzBKVG3QLflIT8opXzBDCW5QBO06b/MgXXBerYOQN3UaMCN
p47BDK9YQMlfO8CoEpjBCVxXQL92lsD81ZXBOZraQPDeKUH8ELzBe0viQGNrEkFQ/LPBF+G1QNza
E0FMFL3Ba/qLQFULv0A/KnbB8XzBQLggzEDjXn7BSSeXQNZm8kAy5oDBuEaNQCbUHkCunqrB3iRe
QAH9wz+5C6HBoD/DQMFIMEFrVKnBPNWWQDm4MUFmbLLBBEF9QKuiHUFEJ6PByjGHQOCaCkEAta3B
W3HDQGbBiUDu8YzBGLyTQBCffEARdYXBwvXMQHupAEF6CqbB3ljHQMe4FEGK2JvBOQRoQMyPwkCd
FI7Bv/DEQLKhO0CBSp3BXKOMQJLzkUBYLp3Bo2uTQMcfkj/auI7BFa+6QHdWZsDCv5PBkCR7QM5v
90BhdJrBzBsnQIBrRUA4SprB

>  <OMEGA_E>  (247) 
8GGFPg==

>  <OMEGA_NBR>  (247) 
     24657

$$$$
50024741
     RDKit          3D

 92 93  0  0  1  0  0  0  0  0999 V2000
    9.1610   -1.7267  -21.7926 C   0  0  0  0  0  0  0  0  0  0  0  0
    9.1458   -0.4524  -22.3955 C   0  0  0  0  0  0  0  0  0  0  0  0
    8.2054   -2.0511  -20.8075 C   0  0  0  0  0  0  0  0  0  0  0  0
    8.1717    0.4952  -22.0191 C   0  0  0  0  0  0  0  0  0  0  0  0
    7.2274   -1.1050  -20.4323 C   0  0  0  0  0  0  0  0  0  0  0  0
   10.7949   10.6453  -18.4600 C   0  0  0  0  0  0  0  0  0  0  0  0
   10.8517   12.4248  -20.1016 C   0  0  0  0  0  0  0  0  0  0  0  0
   12.1986   10.5508  -18.5682 C   0  0  0  0  0  0  0  0  0  0  0  0
   12.2534   12.2781  -20.1591 C   0  0  0  0  0  0  0  0  0  0  0  0
    7.1980    0.1692  -21.0478 C   0  0  0  0  0  0  0  0  0  0  0  0
   10.1115   11.6091  -19.2257 C   0  0  0  0  0  0  0  0  0  0  0  0
    6.4542    6.5013  -18.8698 C   0  0  0  0  0  0  0  0  0  0  0  0
    7.1429    9.6863  -19.3447 C   0  0  0  0  0  0  0  0  0  0  0  0
    7.6639    1.0512  -17.4090 C   0  0  0  0  0  0  0  0  0  0  0  0
    8.5414   -1.7334  -15.1808 C   0  0  0  0  0  0  0  0  0  0  0  0
    5.4745    6.1473  -16.5833 C   0  0  0  0  0  0  0  0  0  0  0  0
    7.1125    1.3455  -14.9639 C   0  0  0  0  0  0  0  0  0  0  0  0
    5.2657    8.1010  -22.4044 C   0  0  0  0  0  0  0  0  0  0  0  0
    4.5035    9.9592  -20.8589 C   0  0  0  0  0  0  0  0  0  0  0  0
    9.7531   -3.6308  -17.2622 C   0  0  0  0  0  0  0  0  0  0  0  0
   11.9873   -3.3175  -16.1045 C   0  0  0  0  0  0  0  0  0  0  0  0
    6.1449    1.2024  -20.6566 C   0  0  0  0  0  0  0  0  0  0  0  0
    8.6077   11.7375  -19.1418 C   0  0  0  0  0  0  0  0  0  0  0  0
    6.0975    4.1189  -17.9853 C   0  0  0  0  0  0  0  0  0  0  0  0
    5.5594    5.5779  -18.0145 C   0  0  2  0  0  0  0  0  0  0  0  0
    6.6101    8.5826  -20.2830 C   0  0  2  0  0  0  0  0  0  0  0  0
    7.4110    0.3303  -16.0813 C   0  0  2  0  0  0  0  0  0  0  0  0
    9.8812   -2.4578  -14.9565 C   0  0  2  0  0  0  0  0  0  0  0  0
    5.7327    9.1983  -21.4181 C   0  0  0  0  0  0  0  0  0  0  0  0
   10.5843   -2.7123  -16.3285 C   0  0  0  0  0  0  0  0  0  0  0  0
    6.6118    2.0789  -19.4629 C   0  0  1  0  0  0  0  0  0  0  0  0
    5.7288    3.3490  -19.2876 C   0  0  1  0  0  0  0  0  0  0  0  0
   12.9013   11.3595  -19.4002 N   0  0  0  0  0  0  0  0  0  0  0  0
    7.9882   10.6423  -19.8947 N   0  0  0  0  0  0  0  0  0  0  0  0
    5.8534    7.5661  -19.5298 N   0  0  0  0  0  0  0  0  0  0  0  0
    8.5907   -0.4622  -15.7320 N   0  0  0  0  0  0  0  0  0  0  0  0
    6.5704    1.2767  -18.2318 N   0  0  0  0  0  0  0  0  0  0  0  0
    9.6869   -3.7200  -14.1978 N   0  0  0  0  0  0  0  0  0  0  0  0
    7.6741    6.3567  -18.8888 O   0  0  0  0  0  0  0  0  0  0  0  0
    6.8450    9.7041  -18.1527 O   0  0  0  0  0  0  0  0  0  0  0  0
    8.7831    1.4711  -17.6939 O   0  0  0  0  0  0  0  0  0  0  0  0
    7.4731   -2.2584  -14.8771 O   0  0  0  0  0  0  0  0  0  0  0  0
    4.3438    2.9906  -19.2244 O   0  0  0  0  0  0  0  0  0  0  0  0
    9.9040   -2.4539  -22.0850 H   0  0  0  0  0  0  0  0  0  0  0  0
    9.8806   -0.2018  -23.1462 H   0  0  0  0  0  0  0  0  0  0  0  0
    8.2219   -3.0244  -20.3397 H   0  0  0  0  0  0  0  0  0  0  0  0
    8.1697    1.4742  -22.4749 H   0  0  0  0  0  0  0  0  0  0  0  0
    6.4998   -1.3540  -19.6740 H   0  0  0  0  0  0  0  0  0  0  0  0
   10.2517    9.9867  -17.7984 H   0  0  0  0  0  0  0  0  0  0  0  0
   10.3526   13.1543  -20.7223 H   0  0  0  0  0  0  0  0  0  0  0  0
   12.7254    9.8179  -17.9751 H   0  0  0  0  0  0  0  0  0  0  0  0
   12.8236   12.9116  -20.8223 H   0  0  0  0  0  0  0  0  0  0  0  0
    4.8387    5.4957  -15.9659 H   0  0  0  0  0  0  0  0  0  0  0  0
    6.4833    6.1948  -16.1472 H   0  0  0  0  0  0  0  0  0  0  0  0
    5.0413    7.1579  -16.6160 H   0  0  0  0  0  0  0  0  0  0  0  0
    6.9338    0.8103  -14.0197 H   0  0  0  0  0  0  0  0  0  0  0  0
    7.9714    2.0224  -14.8447 H   0  0  0  0  0  0  0  0  0  0  0  0
    6.2190    1.9299  -15.2288 H   0  0  0  0  0  0  0  0  0  0  0  0
    6.1415    7.5643  -22.7981 H   0  0  0  0  0  0  0  0  0  0  0  0
    4.6072    7.3930  -21.8800 H   0  0  0  0  0  0  0  0  0  0  0  0
    4.7162    8.5657  -23.2363 H   0  0  0  0  0  0  0  0  0  0  0  0
    4.8408   10.7377  -20.1588 H   0  0  0  0  0  0  0  0  0  0  0  0
    3.9529   10.4263  -21.6888 H   0  0  0  0  0  0  0  0  0  0  0  0
    3.8439    9.2536  -20.3325 H   0  0  0  0  0  0  0  0  0  0  0  0
    8.7561   -3.1923  -17.4161 H   0  0  0  0  0  0  0  0  0  0  0  0
   10.2645   -3.7275  -18.2313 H   0  0  0  0  0  0  0  0  0  0  0  0
    9.6495   -4.6243  -16.8015 H   0  0  0  0  0  0  0  0  0  0  0  0
   12.5692   -2.6600  -15.4418 H   0  0  0  0  0  0  0  0  0  0  0  0
   11.8886   -4.3103  -15.6413 H   0  0  0  0  0  0  0  0  0  0  0  0
   12.5037   -3.4135  -17.0711 H   0  0  0  0  0  0  0  0  0  0  0  0
    5.9471    1.8538  -21.5206 H   0  0  0  0  0  0  0  0  0  0  0  0
    5.2202    0.6783  -20.3732 H   0  0  0  0  0  0  0  0  0  0  0  0
    8.2920   11.6853  -18.0894 H   0  0  0  0  0  0  0  0  0  0  0  0
    8.2961   12.7013  -19.5707 H   0  0  0  0  0  0  0  0  0  0  0  0
    7.1924    4.1436  -17.8825 H   0  0  0  0  0  0  0  0  0  0  0  0
    5.6601    3.5937  -17.1235 H   0  0  0  0  0  0  0  0  0  0  0  0
    4.5489    5.5679  -18.4490 H   0  0  0  0  0  0  0  0  0  0  0  0
    7.4757    8.0975  -20.7577 H   0  0  0  0  0  0  0  0  0  0  0  0
    6.5405   -0.3320  -16.1979 H   0  0  0  0  0  0  0  0  0  0  0  0
   10.5304   -1.7925  -14.3684 H   0  0  0  0  0  0  0  0  0  0  0  0
    6.3537    9.9158  -21.9745 H   0  0  0  0  0  0  0  0  0  0  0  0
   10.7076   -1.7408  -16.8296 H   0  0  0  0  0  0  0  0  0  0  0  0
    7.6459    2.4014  -19.6542 H   0  0  0  0  0  0  0  0  0  0  0  0
    5.9063    4.0148  -20.1450 H   0  0  0  0  0  0  0  0  0  0  0  0
    8.1879   10.5790  -20.8725 H   0  0  0  0  0  0  0  0  0  0  0  0
    4.8574    7.6470  -19.4919 H   0  0  0  0  0  0  0  0  0  0  0  0
    9.4907   -0.0608  -15.9019 H   0  0  0  0  0  0  0  0  0  0  0  0
    5.6966    0.8667  -17.9704 H   0  0  0  0  0  0  0  0  0  0  0  0
   10.5703   -4.1696  -14.0661 H   0  0  0  0  0  0  0  0  0  0  0  0
    9.2816   -3.5143  -13.3070 H   0  0  0  0  0  0  0  0  0  0  0  0
    9.0776   -4.3258  -14.7093 H   0  0  0  0  0  0  0  0  0  0  0  0
    4.1020    2.5192  -20.0130 H   0  0  0  0  0  0  0  0  0  0  0  0
  1  2  2  0
  1  3  1  0
  2  4  1  0
  3  5  2  0
  4 10  2  0
  5 10  1  0
  6  8  2  0
  6 11  1  0
  7  9  1  0
  7 11  2  0
  8 33  1  0
  9 33  2  0
 10 22  1  0
 11 23  1  0
 12 25  1  0
 12 35  1  0
 12 39  2  0
 13 26  1  0
 13 34  1  0
 13 40  2  0
 14 27  1  0
 14 37  1  0
 14 41  2  0
 15 28  1  0
 15 36  1  0
 15 42  2  0
 16 25  1  0
 17 27  1  0
 18 29  1  0
 19 29  1  0
 20 30  1  0
 21 30  1  0
 22 31  1  0
 23 34  1  0
 24 25  1  0
 24 32  1  0
 26 29  1  0
 26 35  1  0
 27 36  1  0
 28 30  1  0
 28 38  1  0
 31 32  1  0
 31 37  1  0
 32 43  1  0
  1 44  1  0
  2 45  1  0
  3 46  1  0
  4 47  1  0
  5 48  1  0
  6 49  1  0
  7 50  1  0
  8 51  1  0
  9 52  1  0
 16 53  1  0
 16 54  1  0
 16 55  1  0
 17 56  1  0
 17 57  1  0
 17 58  1  0
 18 59  1  0
 18 60  1  0
 18 61  1  0
 19 62  1  0
 19 63  1  0
 19 64  1  0
 20 65  1  0
 20 66  1  0
 20 67  1  0
 21 68  1  0
 21 69  1  0
 21 70  1  0
 22 71  1  0
 22 72  1  0
 23 73  1  0
 23 74  1  0
 24 75  1  0
 24 76  1  0
 25 77  1  6
 26 78  1  6
 27 79  1  6
 28 80  1  1
 29 81  1  0
 30 82  1  0
 31 83  1  6
 32 84  1  6
 34 85  1  0
 35 86  1  0
 36 87  1  0
 37 88  1  0
 38 89  1  0
 38 90  1  0
 38 91  1  0
 43 92  1  0
M  CHG  1  38   1
M  END
>  <OMEGA_C>  (248) 
j5MSQX4E3b9CV67BA1USQeqi5770KbPBXEkDQb9FA8C8dabBT78CQbiE/T4KJ7DBtEbnQIJxjb9u
daPB47csQQJTKkEVrpPBq6AtQRfMRkEp0KDBSi1DQRTQKEGvi5TBvw1EQTNzREHARaHB4lXmQLhL
LT7gYajBhcghQQG/OUE8zpnBCInOQNAK0EBd9ZbB4pLkQAT7GkEIwprB9D71QHqMhj+vRYvBr6kI
QSrh3b9w5HLBdi+vQOK2xECJqoTBopnjQLM4rD9FbG/BwoCoQKidAUFFPLPBfhyQQAlZH0Ed36bB
0AwcQcReaMD+GIrBE8w/QTpRVMAT1oDB8KLEQKnmmT+0QKXBKLkJQbjMO0GBIpnB8B7DQPbNg0Dl
4Y/B2uaxQCB+skCaHZDBsoXTQC5SCUGjQ6LBlCbtQOwYqT6PpoDBOxkeQbRMHcCxTW/BSnK3QFAs
E0E6WKvBG1kpQUqWLcDWoILB2JPTQCoNBUD2s5vBplK3QExVVkDyTJrB3mtOQbDANUGiM5vBLJ//
QAdHKkFtKJ/B+k67QHod8kD4PJzBm3MJQY6i7L5dtnvB6EDSQOFpoz+v2pHBgP0aQa4TbsAhKmPB
nJL1QGRqy0BUHJfB6gnbQOpDG0GuOJHBwYcMQdtNvD8wjY3BuiPvQCqJEMCPCG7BqACLQMxlP0Cp
y5nB4HYeQWwNHcAArrDBChceQW6hTr5kK7nBDo0DQfqPQcCmt6LBErcCQamzvD+fzLPBvv7PQKFP
rb9PZJ3BKwckQarJH0EZY47BZqQlQdF3UkFSx6XBVZtLQUwWHUETzY/BTC1NQQmWTkEmlKbBaNaa
QPvcr0CFdH/BUnfPQI87xkCILYHBeVKhQHQN5UB87YTBhOHdQFRtTz+kUGDBVRX/QEduAUDlg23B
WQLHQN0H9z8IqXPBFYfEQKwO8kCDYrbByW2TQB6T7EBTCq/BzeqWQAgNCUH+47nB9eeaQHbNK0Ei
RaHB5Px8QEvSJkG6gq3B3AJ2QNEOFEEPqaLBAxkMQZROTMAfVIvBlzskQTOPbsCm2ZHBTWQaQTD6
k8CSaYbBlBtJQQk+KsC2EXfBsjc+QdbticDkQnrB/Q5IQX52WsCGkYjBfE6+QN5H7T87KqzB1wun
QIemLT89/KLBF6wEQdz2OkEft5DB97wEQZo4S0HbkJzBXyjmQMeYhEBCD4/BTh+1QKD+ZUDY/IjB
3ZCRQAUsskB5l5PBUDnvQDaPAUGzD6bBgkvRQNkAqr5ZlYHBcXwoQVRv5b/25GXBeVHLQB+nHkG+
y6/BgFIrQfjT3r/9oobBT6v0QJCwGUDeO53BqgC9QOR4gED8KKHByQEDQbZDKUH1+qbBwW+bQJi0
9EBq75vB/9kXQZHjeL1Vbn7Bgkq2QCjdXT9mw4/BDyApQXFthcCsDmHBboEUQQHqYMCc6VTB1D0R
QRZtisB0WWvBikODQMM5IUCMGqDBKIANQVfFEMBWNK7BxywQQQSlhL/jnLPBRdb7QBRVGMBZGabB
ZjgDQaJEjj2x9bDBOsThQH1Do7/8daPBUXYnQYcoJEFCqpDBtQMyQTW9O0GaGp/BBCs9QWN0HkHp
bI/BsmVHQXlXNUG9bJ3BxrLmQPhqQr1k9qjBL88hQUtCM0E6iJjBaHbVQFto00CdipjBvVLcQPBQ
HUG04ZvBXif8QAYQcT9RXIzBsxEGQclv6L9Gs3LBvvrHQJu2wkAxMYXBC6TtQAKsuD96wHHBVTOy
QLJ3JkGxarHB3/GQQN/NAUEZ+LDBI/0TQWj+fsACOonBYHs4QfaHfMBjXoDBpK7KQJwGlD/+PabB
f7cKQXXKOUGNG5rBebfXQHRkhUBz6ZHBWpDCQJo/skCrvpDBgj/JQEmYC0HTAKPB55LxQHBjrT53
ZoHBBZwZQfQJLsCuu27BmHSjQL0OFEGi9qnB2qUjQUyoScArSILBKiXeQLTaAEA7FZ3BhmzHQGRg
WUBF95vBmqhMQU8LJ0GkspXB3bj+QPTfKEEY7Z/B95S6QDGd80B+O5zB8K4JQbrBGb95v3zB2B7a
QIAzoj+//JLBL8oTQUNAecBMa2HBXcD7QA5B00BGxJrBDefMQA9IIUFvD5PBSakQQVcamD8X447B
KhDoQAH9CcDAGW3BeymaQOYvTUDhE5vBgGAXQT4JR8BFRLDBWigcQYmwcb9Ry7nB3un3QHBCVMAq
6KHBD3AFQatJgT/vDrXBaADKQDIDr78fO53BJlcbQQwIHUG1pIvBdh8uQXoCR0GDW6XBJ4xBQQ/9
EkEBWInBV9xTQaX6O0GlZ6LBVY66QF80q0COIn/BSjHqQApSx0AheYPB+A63QM5e4UCgS4TBsg3m
QP0gfT8HLWLBCgwGQZur/j/4lnDBSvfTQP/pCEDoTnbBmHK/QI2UM0EMkqzBaOrKQM9/IEEx7bbB
m7KWQCxiLEFeC7bB7k6GQDks6UCBzavBCixrQADhB0FFmbXB0s2pQEj990AXe7bBlTQFQUZIWsAe
jIrB0IEbQSGxhsAw+pDBfCYQQUmVncDXFIXBd3tDQXo+VsC74XbBeLk0QW5ZnMBiaHjBzBRAQUZ1
hcCKGYjBMVrHQFpu5D8Ea63Bn/SqQHImTD9qvKPB0B0DQWBAPEExRJLBsw0KQXy/SEHXu57BPJH6
QC6QiUC4k5LBuFTQQAjEZEBGvYrBiSmgQEH6rkBfa5LBSHjiQD3RBUFma6jBjNPSQDDnRL4v9YHB
z6olQewrCMBcFmbBkCOKQAEPGkHfoqTBdbsnQWY2D8AYvobBdxUAQXwQDEAy2p7Bp9TOQHzEf0An
G6PBd1cEQSxoJUELVKfBgKybQCWK8kCJLZrBz88YQZEss74pCYDBLtq8QJeWeT+dwJDB0rwgQUjW
jsA5Fl/BlywOQc0/ZcDMS1PBfIgIQfK8jcBd6GjBVwCQQCQfL0DtLKHB

>  <OMEGA_E>  (248) 
3HuIP4Cakj8=

>  <OMEGA_NBR>  (248) 
     67222

$$$$
50024727
     RDKit          3D

 90 91  0  0  1  0  0  0  0  0999 V2000
    9.1532   -1.7227  -21.7954 C   0  0  0  0  0  0  0  0  0  0  0  0
    9.1384   -0.4488  -22.3990 C   0  0  0  0  0  0  0  0  0  0  0  0
    8.1983   -2.0459  -20.8092 C   0  0  0  0  0  0  0  0  0  0  0  0
    8.1654    0.4997  -22.0223 C   0  0  0  0  0  0  0  0  0  0  0  0
    7.2211   -1.0990  -20.4340 C   0  0  0  0  0  0  0  0  0  0  0  0
   10.7961   10.6498  -18.4680 C   0  0  0  0  0  0  0  0  0  0  0  0
   10.8526   12.4289  -20.1102 C   0  0  0  0  0  0  0  0  0  0  0  0
   12.1997   10.5548  -18.5770 C   0  0  0  0  0  0  0  0  0  0  0  0
   12.2542   12.2817  -20.1684 C   0  0  0  0  0  0  0  0  0  0  0  0
    7.1921    0.1749  -21.0502 C   0  0  0  0  0  0  0  0  0  0  0  0
   10.1126   11.6137  -19.2335 C   0  0  0  0  0  0  0  0  0  0  0  0
    6.4527    6.5081  -18.8736 C   0  0  0  0  0  0  0  0  0  0  0  0
    7.1424    9.6928  -19.3495 C   0  0  0  0  0  0  0  0  0  0  0  0
    7.6615    1.0578  -17.4131 C   0  0  0  0  0  0  0  0  0  0  0  0
    8.5421   -1.7264  -15.1808 C   0  0  0  0  0  0  0  0  0  0  0  0
    5.4745    6.1546  -16.5863 C   0  0  0  0  0  0  0  0  0  0  0  0
    7.1127    1.3483  -14.9674 C   0  0  0  0  0  0  0  0  0  0  0  0
    5.2631    8.1081  -22.4079 C   0  0  0  0  0  0  0  0  0  0  0  0
    4.5016    9.9663  -20.8621 C   0  0  0  0  0  0  0  0  0  0  0  0
   12.0025   -3.3204  -16.0347 C   0  0  0  0  0  0  0  0  0  0  0  0
    9.7869   -3.6467  -17.2182 C   0  0  0  0  0  0  0  0  0  0  0  0
    6.1398    1.2089  -20.6590 C   0  0  0  0  0  0  0  0  0  0  0  0
    8.6090   11.7430  -19.1484 C   0  0  0  0  0  0  0  0  0  0  0  0
    6.0957    4.1261  -17.9885 C   0  0  0  0  0  0  0  0  0  0  0  0
    5.5581    5.5852  -18.0174 C   0  0  2  0  0  0  0  0  0  0  0  0
    6.6083    8.5892  -20.2871 C   0  0  2  0  0  0  0  0  0  0  0  0
    7.4101    0.3345  -16.0867 C   0  0  2  0  0  0  0  0  0  0  0  0
    9.8796   -2.4455  -14.9331 C   0  0  2  0  0  0  0  0  0  0  0  0
    5.7305    9.2052  -21.4217 C   0  0  0  0  0  0  0  0  0  0  0  0
   10.6055   -2.7119  -16.2899 C   0  0  0  0  0  0  0  0  0  0  0  0
    6.6078    2.0857  -19.4659 C   0  0  1  0  0  0  0  0  0  0  0  0
    5.7255    3.3560  -19.2902 C   0  0  1  0  0  0  0  0  0  0  0  0
   12.9023   11.3631  -19.4096 N   0  0  0  0  0  0  0  0  0  0  0  0
    7.9880   10.6480  -19.9003 N   0  0  0  0  0  0  0  0  0  0  0  0
    5.8518    7.5729  -19.5334 N   0  0  0  0  0  0  0  0  0  0  0  0
    8.5907   -0.4585  -15.7408 N   0  0  0  0  0  0  0  0  0  0  0  0
    6.5672    1.2839  -18.2346 N   0  0  0  0  0  0  0  0  0  0  0  0
    7.6725    6.3631  -18.8935 O   0  0  0  0  0  0  0  0  0  0  0  0
    6.8451    9.7112  -18.1573 O   0  0  0  0  0  0  0  0  0  0  0  0
    8.7802    1.4788  -17.6982 O   0  0  0  0  0  0  0  0  0  0  0  0
    7.4745   -2.2515  -14.8757 O   0  0  0  0  0  0  0  0  0  0  0  0
    9.6737   -3.6650  -14.2130 O   0  0  0  0  0  0  0  0  0  0  0  0
    4.3404    2.9981  -19.2259 O   0  0  0  0  0  0  0  0  0  0  0  0
    9.8954   -2.4507  -22.0880 H   0  0  0  0  0  0  0  0  0  0  0  0
    9.8728   -0.1991  -23.1504 H   0  0  0  0  0  0  0  0  0  0  0  0
    8.2147   -3.0188  -20.3407 H   0  0  0  0  0  0  0  0  0  0  0  0
    8.1638    1.4786  -22.4785 H   0  0  0  0  0  0  0  0  0  0  0  0
    6.4939   -1.3471  -19.6750 H   0  0  0  0  0  0  0  0  0  0  0  0
   10.2532    9.9916  -17.8059 H   0  0  0  0  0  0  0  0  0  0  0  0
   10.3534   13.1583  -20.7309 H   0  0  0  0  0  0  0  0  0  0  0  0
   12.7266    9.8219  -17.9841 H   0  0  0  0  0  0  0  0  0  0  0  0
   12.8242   12.9148  -20.8321 H   0  0  0  0  0  0  0  0  0  0  0  0
    4.8388    5.5034  -15.9685 H   0  0  0  0  0  0  0  0  0  0  0  0
    6.4836    6.2017  -16.1510 H   0  0  0  0  0  0  0  0  0  0  0  0
    5.0417    7.1654  -16.6187 H   0  0  0  0  0  0  0  0  0  0  0  0
    6.9350    0.8118  -14.0237 H   0  0  0  0  0  0  0  0  0  0  0  0
    7.9715    2.0251  -14.8482 H   0  0  0  0  0  0  0  0  0  0  0  0
    6.2188    1.9330  -15.2305 H   0  0  0  0  0  0  0  0  0  0  0  0
    6.1386    7.5713  -22.8018 H   0  0  0  0  0  0  0  0  0  0  0  0
    4.6046    7.4001  -21.8833 H   0  0  0  0  0  0  0  0  0  0  0  0
    4.7133    8.5728  -23.2396 H   0  0  0  0  0  0  0  0  0  0  0  0
    4.8393   10.7447  -20.1620 H   0  0  0  0  0  0  0  0  0  0  0  0
    3.9508   10.4336  -21.6918 H   0  0  0  0  0  0  0  0  0  0  0  0
    3.8421    9.2608  -20.3355 H   0  0  0  0  0  0  0  0  0  0  0  0
   12.5786   -2.6538  -15.3761 H   0  0  0  0  0  0  0  0  0  0  0  0
   11.8918   -4.3039  -15.5547 H   0  0  0  0  0  0  0  0  0  0  0  0
   12.5319   -3.4371  -16.9919 H   0  0  0  0  0  0  0  0  0  0  0  0
    8.7936   -3.2090  -17.3965 H   0  0  0  0  0  0  0  0  0  0  0  0
   10.3134   -3.7638  -18.1769 H   0  0  0  0  0  0  0  0  0  0  0  0
    9.6733   -4.6306  -16.7397 H   0  0  0  0  0  0  0  0  0  0  0  0
    5.9420    1.8600  -21.5232 H   0  0  0  0  0  0  0  0  0  0  0  0
    5.2149    0.6855  -20.3748 H   0  0  0  0  0  0  0  0  0  0  0  0
    8.2942   11.6914  -18.0957 H   0  0  0  0  0  0  0  0  0  0  0  0
    8.2976   12.7068  -19.5774 H   0  0  0  0  0  0  0  0  0  0  0  0
    7.1907    4.1505  -17.8867 H   0  0  0  0  0  0  0  0  0  0  0  0
    5.6589    3.6012  -17.1261 H   0  0  0  0  0  0  0  0  0  0  0  0
    4.5473    5.5755  -18.4512 H   0  0  0  0  0  0  0  0  0  0  0  0
    7.4734    8.1038  -20.7623 H   0  0  0  0  0  0  0  0  0  0  0  0
    6.5396   -0.3277  -16.2034 H   0  0  0  0  0  0  0  0  0  0  0  0
   10.5188   -1.7758  -14.3390 H   0  0  0  0  0  0  0  0  0  0  0  0
    6.3514    9.9226  -21.9783 H   0  0  0  0  0  0  0  0  0  0  0  0
   10.7371   -1.7475  -16.8022 H   0  0  0  0  0  0  0  0  0  0  0  0
    7.6418    2.4077  -19.6582 H   0  0  0  0  0  0  0  0  0  0  0  0
    5.9025    4.0215  -20.1480 H   0  0  0  0  0  0  0  0  0  0  0  0
    8.1871   10.5841  -20.8782 H   0  0  0  0  0  0  0  0  0  0  0  0
    4.8558    7.6541  -19.4952 H   0  0  0  0  0  0  0  0  0  0  0  0
    9.4904   -0.0604  -15.9198 H   0  0  0  0  0  0  0  0  0  0  0  0
    5.6933    0.8746  -17.9720 H   0  0  0  0  0  0  0  0  0  0  0  0
    8.7436   -3.7965  -14.0714 H   0  0  0  0  0  0  0  0  0  0  0  0
    4.0978    2.5265  -20.0141 H   0  0  0  0  0  0  0  0  0  0  0  0
  1  2  2  0
  1  3  1  0
  2  4  1  0
  3  5  2  0
  4 10  2  0
  5 10  1  0
  6  8  2  0
  6 11  1  0
  7  9  1  0
  7 11  2  0
  8 33  1  0
  9 33  2  0
 10 22  1  0
 11 23  1  0
 12 25  1  0
 12 35  1  0
 12 38  2  0
 13 26  1  0
 13 34  1  0
 13 39  2  0
 14 27  1  0
 14 37  1  0
 14 40  2  0
 15 28  1  0
 15 36  1  0
 15 41  2  0
 16 25  1  0
 17 27  1  0
 18 29  1  0
 19 29  1  0
 20 30  1  0
 21 30  1  0
 22 31  1  0
 23 34  1  0
 24 25  1  0
 24 32  1  0
 26 29  1  0
 26 35  1  0
 27 36  1  0
 28 30  1  0
 28 42  1  0
 31 32  1  0
 31 37  1  0
 32 43  1  0
  1 44  1  0
  2 45  1  0
  3 46  1  0
  4 47  1  0
  5 48  1  0
  6 49  1  0
  7 50  1  0
  8 51  1  0
  9 52  1  0
 16 53  1  0
 16 54  1  0
 16 55  1  0
 17 56  1  0
 17 57  1  0
 17 58  1  0
 18 59  1  0
 18 60  1  0
 18 61  1  0
 19 62  1  0
 19 63  1  0
 19 64  1  0
 20 65  1  0
 20 66  1  0
 20 67  1  0
 21 68  1  0
 21 69  1  0
 21 70  1  0
 22 71  1  0
 22 72  1  0
 23 73  1  0
 23 74  1  0
 24 75  1  0
 24 76  1  0
 25 77  1  6
 26 78  1  6
 27 79  1  6
 28 80  1  1
 29 81  1  0
 30 82  1  0
 31 83  1  6
 32 84  1  6
 34 85  1  0
 35 86  1  0
 36 87  1  0
 37 88  1  0
 42 89  1  0
 43 90  1  0
M  END
>  <OMEGA_C>  (249) 
tXMSQTyB3L/8XK7B6DYSQUDE5b4fMbPBOCwDQd3vAsBEeabBT6UCQUnb/z6cLbDBKhPnQPKrjL/L
eKPB+rwsQZ9lKkFnvpPBWKQtQcncRkGu4aDB1TFDQXfgKEGunZTBJhFEQdeBREHKWKHBXSXmQJ0j
Mz63ZqjBKc0hQdPROUE33pnBSXzOQJJC0EA6/ZbBTo7kQOEVG0G8y5rBsSr1QONkhz8bTovBaqwI
QX363L905HLBTS+vQNryxEDMsITB9ZrjQJSUrD+fem/BEmuoQKK6AUFLQ7PB9gyQQCF2H0Gg5abB
SgpAQbmBVMAWR4DBMZccQeliacDVvonBJXnEQJ67mj+IRaXBQ74JQTnjO0H8L5nB2Q/DQMsIhEBj
6I/B0NuxQK+5skCzI5DBH3fTQIRtCUH6S6LB1B/tQCc+qz6QsYDBARMeQfeCHMDj7W7BD2C3QJ9I
E0GlX6vB/K8pQVCQLcCpUYLB0HLTQIR7BUAnupvBbje3QA3IVkBjUprB1m9OQTrPNUHbRpvB3p3/
QEVeKkHZM5/B8kG7QJNV8kB/RJzBa3MJQU7E6r5G2nvBUibSQJRVpD9t4JHBWoX1QDWey0DjJZfB
TQvbQClhG0ETQpHBtnsMQTtKvT/4lY3BCS/vQBUZEMDfAm7BgscaQSeQasCQaGPB7uSKQEzgP0Cc
zpnBsFMeQZrXHMBKtLDBFfcdQYLfS74eNLnBfW8DQU80QcCruaLB154CQSVDvT8F1LPB/c3PQHxt
rL9rZp3B6AwkQczdH0Fmco7Bl6clQUiIUkHI2KXBJKBLQWImHUFf34/BDTBNQRyjTkE2qKbBsNea
QHMbsED8fn/BAXrPQA10xkBYNYHBwFWhQPdK5UAs84TBmOvdQNLPTz8xYWDB6Bb/QI6bAUA0km3B
uQDHQFJr9z9LsHPBzG/EQL9H8kAfarbBrViTQLDN7ED1EK/Be9OWQGMqCUGk6rnBgNuaQD/qK0HY
S6HBbNp8QNvvJkHTiK3B0OR1QFEsFEEkr6LBEUJJQYbYKcCEBHbB6UQ+Qcy5icDg33jBkYJIQUz5
W8Bb74fBtbIMQaxfTcAcLIvBmgMlQWjhcMBEapHB88UaQdotlMDZ6oXBliS+QKkT7j98L6zBjuCm
QGt9Lz+w/6LB2LQEQcoPO0H/w5DBAcMEQT9PS0GEnpzBIxrmQM3QhEDfF4/BbRW1QM95ZkBBAonB
MIORQDZqskANnJPBcSbvQBipAUFBGabBLETRQCbNp76KoIHBLE0oQQFO479ybGXBWD7LQCzDHkGT
06/BLcsrQeGs37/jaobB64n0QHMYGkDnQ53BheG8QO2vgEAVL6HBTf4CQZhYKUGXBqfB92KbQBru
9EAd9pvBp9gXQfWYd71/t37Byi+2QAnoXz+8xo/Bp+ULQeL5csBwJGHBOCGDQM+yIUDiHKDBjbMS
QZAcIsCemanBnioYQWC+qL9Hoa7Bc5z/QNLLJ8CheaPBi7YKQbPERr6KlK3BM43kQEjVv7+Vc6LB
MMsvQQSRMUEKcY7B7E0uQVp/N0GhkqHBkU5GQQgBMUEkO4/B4tpEQUKuNkETyqHB6yrvQAQjkL40
mKfBwI4jQRvzNEELvpfBlGbTQHjXzEBtAJnBPoDfQF3QGUE+5JvB5azqQLcQPD/LlYrB0jHnQIdK
AMDw9W3B5I+0QBVnvUAC3obBhh7LQE4soj/27nDBj4mKQEVhGkGc66jBkxnNQGuoIUHX47PBTSUn
QbSshsA0u27ByfwHQTWGh8AkU4TB/DTSQM4lcT/tm6bBpVsLQdfBNUH4OZfBgDvOQB9dfkB4PJLB
0165QPxprEDAY5LB6UrSQF5CCEE65qPB1gjWQLziGT5zfoDBkFMFQe3eOsDBLWXBUR+1QPTHEEHa
Fa3BYTQUQYQeWcDAxXfB4lndQIpz5j+WoJzBaBLHQO6ZTEDo6JzBiWxQQaSJM0E/v5jBttACQQh0
JEFX253BHx29QLUb7UDSRJ7ByJvzQH/OTb9hLHfB2sTPQOsOiT+4/JLBtbX6QNwmzEDT65jBSTvJ
QF4QHkFhE5TBcKgIQcEedT/B8IrBQlHBQGSOFMBnlmzBi6D4QBgzgcBHE1rBIRWaQIkMQkBvnZ7B
bvocQUNGWcDQb6rBJKwmQVrYn7/DSrPBgl33QDkvY8CSkJ/BOgwPQbTtPD8zXrHBva7HQOe0yL/x
u53BRAsoQVNtL0Ery4bBkF8lQfkLOkHP26jBmbRPQT5/LkEGF4jBCxdNQeqZOEH+UqnBI/6hQB5p
pkBQFoLBzG7UQHOOwUBXR4PBOtajQJpe3EBXBIfBDl28QJ6rUz8Ll2LBy5LoQKAi5j8lYmzB0p+0
QNO7/D9pW3jB4SVzQPxbDkERF6TBsWCRQGmEKEEv96PBbtxsQDsVH0H5v6/BHE7rQMzNGkHI1bbB
0Am5QKZdJkEdurrBSvzTQNTML0FS8a7BjL8vQTzPZsCyxmLB2hAhQU0IpMDyKGfBdRwyQcYxj8B6
0nvB7Qz1QA6QacDKg4fB7OgSQYsLkMBb44rBUd0BQRLipMCXjoDBFe3VQHzrxz+p0a3BNs2wQPjV
Gj8G9qXBhgsGQWKqM0EF547B4qkFQbRDRUESQ5rBydfwQDPGgkBO6JDBayzAQMk5WUBVo4vBNU2Z
QHKWqUDO8pXBUbXvQEUXAkHfnqfBzEe4QFqNur7aw4LBoR4PQRkUFcBTBFrBN0KtQGYxA0FHUrLB
wagaQcP1H8AmxH/B0BgAQScw+j/ma5zBaSjVQOYXckAXeaPBLFMLQV79H0HbQKTB8iCdQJYm7EBA
OJ7B2GEJQQFoE7+XGnfBYAyxQOt7TD8zdZLBtE3aQOQIgMAu+1rB0HWVQIzHI0CkGqXBA73pQBmD
JsCW4KzBu+7+QMYXur+CvLDBYIDDQJnxHcBQ/qbBYdjtQHp4L77av67B8UeyQGX/l7/tCqXBAGEv
QYhkK0H9vZHBzCQvQdI0REHMnqDBjO9FQXxeK0HuN5LBVbRFQZB2Q0FVo6DBNyjHQLYJBr2f/6jB
/8cjQa86OEFr9pjBEVDTQC7qyEBFqZXBbZThQJywGkGT3JrBt1DfQCrPCz9H/IzBzGXnQAp2J8Do
Y3zBGzjFQL1dvEAVI4LBAm/MQHT6Hj84xXLBIwWOQGSNFEGWK6jBGo/RQOuWF0FeSLPBDwMmQda/
lsCgDobBPSMDQcS7jsCKL5DB34e0QJIxrT920KbByZQLQb+AOEHUwZjBuLPDQFe3ekDU+47B3ue5
QFSzrUD2lY3Bo9HVQOUCBkFe36DBLVjRQPkNj76USoPBVmYGQXtzZsDliHnB8WS5QJXjCUGd7KrB
DwsSQWKsdMAcrYfBLxXHQHXP/T8YcJzBDCqzQJTwV0AA8JnBNq1QQT5KN0FMhpnBNb0DQePHJEEz
sp3B2HjAQMsV7kD3hZnBxD/xQHXMqL/3OYHBpFG/QE6Qij9BXJPBHoj3QBhEvkAhZ5jBpEnKQC7l
IUFyz5PBmK4CQffvRT8HsI7BGEvCQPLTPcCUHHnB1wn+QKXsmsAD1HDBIHSFQJSuUkCnjZnBKMz2
QI5KZcDwba7BUCUOQU06x79YOLXBU2SzQLEjVsCg+qPBgF7+QOfJND9AobHBdwiVQDsyi7+WgqDB
tRsnQY6vIUFu6YvBsLEmQWzZTUGxaabBbdlOQcKjIUHMo4zBh3BOQUbNTEEFc6bBcDSzQFQWqUDi
n3jB4LvnQBwmuECdxIDBI8q8QL9S3kAJLIHBxmPCQAuNQDwDAWXBND/rQFM3jT8lL2/B5ye0QHQy
sj+X9XXBQvp5QG/ACkGjOqLBNcOTQJKbJEEJ3aTB4gJ1QBTgFUHWdq/BaVHwQHDyD0EsNbXB7yK+
QKvqGEF9l7rBs2TXQCmmJ0Gx/a/BvYUwQeMjiMBaBIDBGAYhQfCxtsCDVIPBW7UuQZenmcBarI3B
DejpQN3DdMBkTpHBgckLQbmgkcDB0JfBfjT8QBKrrsDpeI3BMQ28QHivAED/nK3BipqRQLj5oT+S
+aXBxvAFQZJzOUFRb5DB0aYFQdBpRkGLQp3BIYbmQA0LcUB3i47BzQy0QLf7VkBAfYjBh4KXQJbo
skCq7Y7BJM/zQExE/UDzoaPBpjyyQCGvPr/rDIXBgPYRQXhUScAgcW7BmqCyQEl09ECgkK7BIlQX
QSL0NcC5rIrB/8LpQE5JB0D0hZ3B5xG9QOVvgkAzPqDBYJcMQcQnHkF6eqPBkqeiQEnl9EDFK5fB
fBAIQdLyib/YDYLBcwOhQGlCVz9Bq5HB/tLfQKj7mcDCN2/Bcf91QK2RPUARL6DBwsINQSaPEMBn
L67B4W8QQYU/hL+dmLPBwUz8QBUnGMAiGKbBZXUDQdFtkz0D9bDBXS7iQM/7or90eKPBtG0nQRA/
JEGkpJDBmwIyQebTO0GBE5/BeSI9QeqPHkEvYo/BtmRHQYt0NUEKYJ3BUx/nQLjfOb0Z+ajBG8oh
QUFWM0GIhJjBLIrVQF5300B2kpjBK1fcQN1YHUHU6ZvB61X8QA/FcT+JX4zBMi8GQZPk57+ZonLB
iu3HQNXMwkAqOoXB6qftQFGJuD/IyXHBdluyQJV7JkEYd7HBtzaRQKzKAUGVCrHByuY4QQmPfMA5
bH/Bp7UUQRcggMB20YjB7QzLQCA1lD92RabB8bEKQWXYOUHLHZrBQNLXQDF3hUA+75HB+JzCQCNN
skDMx5DB7VrJQISdC0G+CqPBp7bxQAlsrT6GbYHBerkZQVk2LcA6QG7BKJqjQD8OFEH2BarBtCgk
QZ23ScA/54HBhWjeQAgBAUCbGp3BjaHHQB56WUAf/5vB9KNMQVoqJ0FjpJXB08H+QMrpKEEy8Z/B
eqm6QGWm80AQR5zBfcUJQctuGb/xzHzBC1XaQDt/oj+iApPB2dj7QM1Y00AMx5rBWtTMQFBRIUFL
GpPBXsEQQTzBmD8l4Y7B/EvoQFnfCcCzE23Bes8TQWzGdcCIl2HBXF6aQIguTUA7IZvBjqgXQSzL
RsAIPLDBPXAcQWPTcL+nxLnBhl74QN8TVMDt5qHBfK0FQRqagT9xDrXBfV/KQLLHrr9SQJ3BqEsb
QcEcHUF7oYvBUCEuQXMWR0EZVqXBk4BBQbYZE0E0TInBgd5TQR4bPEHWV6LBYny6QLhKq0DaNX/B
rh/qQNtxx0A/foPBcvi2QFxx4UDGV4TB0gnmQC98fD8ROmLBeAkGQWK9/j/ilnDBSfXTQGbGCEAV
W3bBpoS/QEmaM0Hym6zBUCTLQLCJIEE39rbB0OCWQERhLEGNG7bBr5KGQDAg6UDw4avBMcFrQMvY
B0GBr7XBGSSqQG4C+EArirbB9ctDQVObVcD+nHXBXvk0QYr8m8Bk1nbBNbRAQU0phsBrWYfBa/kF
QU/EW8C5WorB2HYcQXYCiMDXd5DBALwQQbPVncCeiYTBLsTHQOyP5D9jc63B1E+rQFdSTD8YyKPB
CRADQQFOPEFoSJLB1AgKQUvMSEEEv57BTKz6QKqriUAVlZLBlmXQQDnoZEDQw4rBLjqgQH/+rkCC
eJLBlaHiQIjYBUHRcajBtf/SQAhoRr4pAYLBJZolQQzdBsA6fWXB2zeKQJsIGkGutaTB9lwoQfrR
D8BwcobBFzgAQUFKDEBX257BkBHPQK/if0AeIqPBJmUEQYhwJUFrVqfBCb2bQION8kANPZrBVeMY
Qehps77oGoDBIw69QB0Zej8HyZDBEtQEQb+7dMBWCl/Bo0WQQBEXL0B2O6HB

>  <OMEGA_E>  (249) 
RG2IP+mEmz9IA5k/gK6SPw==

>  <OMEGA_NBR>  (249) 
     72992

$$$$
54116
     RDKit          3D

 75 74  0  0  1  0  0  0  0  0999 V2000
    6.1359   -2.2068  -16.0348 C   0  0  0  0  0  0  0  0  0  0  0  0
    5.4797    6.5447  -18.8070 C   0  0  0  0  0  0  0  0  0  0  0  0
    6.6356    1.2514  -17.2232 C   0  0  0  0  0  0  0  0  0  0  0  0
    6.3885   10.0634  -22.9610 C   0  0  0  0  0  0  0  0  0  0  0  0
    4.6389    6.4010  -16.4531 C   0  0  0  0  0  0  0  0  0  0  0  0
    7.9587    0.3924  -15.1928 C   0  0  0  0  0  0  0  0  0  0  0  0
    2.7721   -3.3635  -18.6441 C   0  0  0  0  0  0  0  0  0  0  0  0
    4.9825   -3.8535  -19.7399 C   0  0  0  0  0  0  0  0  0  0  0  0
    6.7405    0.6037  -21.4742 C   0  0  0  0  0  0  0  0  0  0  0  0
    4.6368   -0.7484  -21.7104 C   0  0  0  0  0  0  0  0  0  0  0  0
    6.1677   -3.5653  -16.7451 C   0  0  0  0  0  0  0  0  0  0  0  0
    5.6004   10.5809  -21.7443 C   0  0  0  0  0  0  0  0  0  0  0  0
    4.7519   -3.9770  -17.2075 C   0  0  0  0  0  0  0  0  0  0  0  0
    4.7749    9.4705  -21.0618 C   0  0  0  0  0  0  0  0  0  0  0  0
    5.0722    4.2636  -17.7345 C   0  0  0  0  0  0  0  0  0  0  0  0
    4.5951    1.3093  -20.2634 C   0  0  0  0  0  0  0  0  0  0  0  0
    5.6730    8.3490  -20.5207 C   0  0  0  0  0  0  0  0  0  0  0  0
    4.5934    5.7355  -17.8375 C   0  0  2  0  0  0  0  0  0  0  0  0
    6.6957    0.2447  -16.0691 C   0  0  2  0  0  0  0  0  0  0  0  0
    4.3000   -3.2397  -18.4957 C   0  0  0  0  0  0  0  0  0  0  0  0
    5.4671    0.1185  -20.7463 C   0  0  0  0  0  0  0  0  0  0  0  0
    5.2780    2.1577  -19.1612 C   0  0  1  0  0  0  0  0  0  0  0  0
    4.4307    3.4147  -18.8502 C   0  0  1  0  0  0  0  0  0  0  0  0
    4.8898    7.4922  -19.6285 N   0  0  0  0  0  0  0  0  0  0  0  0
    6.6591   -1.0931  -16.6740 N   0  0  0  0  0  0  0  0  0  0  0  0
    5.4557    1.3270  -17.9571 N   0  0  0  0  0  0  0  0  0  0  0  0
    5.5748   -2.1057  -14.9489 O   0  0  0  0  0  0  0  0  0  0  0  0
    6.7022    6.4391  -18.7667 O   0  0  0  0  0  0  0  0  0  0  0  0
    7.6284    1.8970  -17.5443 O   0  0  0  0  0  0  0  0  0  0  0  0
    3.1117    3.0575  -18.4291 O   0  0  0  0  0  0  0  0  0  0  0  0
    6.9575   10.8913  -23.4091 H   0  0  0  0  0  0  0  0  0  0  0  0
    7.0828    9.2734  -22.6390 H   0  0  0  0  0  0  0  0  0  0  0  0
    5.6882    9.6554  -23.7047 H   0  0  0  0  0  0  0  0  0  0  0  0
    4.0102    5.8328  -15.7518 H   0  0  0  0  0  0  0  0  0  0  0  0
    5.6761    6.4147  -16.0870 H   0  0  0  0  0  0  0  0  0  0  0  0
    4.2634    7.4320  -16.5295 H   0  0  0  0  0  0  0  0  0  0  0  0
    7.9370   -0.3572  -14.3880 H   0  0  0  0  0  0  0  0  0  0  0  0
    8.8546    0.2393  -15.8123 H   0  0  0  0  0  0  0  0  0  0  0  0
    7.9844    1.4007  -14.7538 H   0  0  0  0  0  0  0  0  0  0  0  0
    2.2810   -2.9282  -17.7613 H   0  0  0  0  0  0  0  0  0  0  0  0
    2.4468   -2.8258  -19.5469 H   0  0  0  0  0  0  0  0  0  0  0  0
    2.4971   -4.4250  -18.7304 H   0  0  0  0  0  0  0  0  0  0  0  0
    6.0745   -3.7678  -19.6394 H   0  0  0  0  0  0  0  0  0  0  0  0
    4.7043   -4.9143  -19.8247 H   0  0  0  0  0  0  0  0  0  0  0  0
    4.6540   -3.3151  -20.6412 H   0  0  0  0  0  0  0  0  0  0  0  0
    7.3398    1.2242  -20.7917 H   0  0  0  0  0  0  0  0  0  0  0  0
    7.3332   -0.2658  -21.7948 H   0  0  0  0  0  0  0  0  0  0  0  0
    6.4554    1.1979  -22.3549 H   0  0  0  0  0  0  0  0  0  0  0  0
    3.7276   -1.0981  -21.1994 H   0  0  0  0  0  0  0  0  0  0  0  0
    4.3559   -0.1514  -22.5906 H   0  0  0  0  0  0  0  0  0  0  0  0
    5.2337   -1.6151  -22.0305 H   0  0  0  0  0  0  0  0  0  0  0  0
    6.8281   -3.4981  -17.6222 H   0  0  0  0  0  0  0  0  0  0  0  0
    6.5556   -4.3257  -16.0513 H   0  0  0  0  0  0  0  0  0  0  0  0
    6.3110   10.9929  -21.0126 H   0  0  0  0  0  0  0  0  0  0  0  0
    4.9163   11.3749  -22.0783 H   0  0  0  0  0  0  0  0  0  0  0  0
    4.7472   -5.0595  -17.4027 H   0  0  0  0  0  0  0  0  0  0  0  0
    4.0387   -3.7464  -16.4025 H   0  0  0  0  0  0  0  0  0  0  0  0
    4.2089    9.9088  -20.2266 H   0  0  0  0  0  0  0  0  0  0  0  0
    4.0748    9.0443  -21.7955 H   0  0  0  0  0  0  0  0  0  0  0  0
    6.1670    4.2299  -17.8363 H   0  0  0  0  0  0  0  0  0  0  0  0
    4.7823    3.8551  -16.7551 H   0  0  0  0  0  0  0  0  0  0  0  0
    4.3838    1.9599  -21.1249 H   0  0  0  0  0  0  0  0  0  0  0  0
    3.6506    0.9117  -19.8638 H   0  0  0  0  0  0  0  0  0  0  0  0
    6.0599    7.7510  -21.3589 H   0  0  0  0  0  0  0  0  0  0  0  0
    6.5143    8.7878  -19.9642 H   0  0  0  0  0  0  0  0  0  0  0  0
    3.5573    5.7469  -18.2069 H   0  0  0  0  0  0  0  0  0  0  0  0
    5.8097    0.3849  -15.4324 H   0  0  0  0  0  0  0  0  0  0  0  0
    4.5736   -2.1770  -18.4190 H   0  0  0  0  0  0  0  0  0  0  0  0
    5.7589   -0.4876  -19.8759 H   0  0  0  0  0  0  0  0  0  0  0  0
    6.2618    2.4826  -19.5308 H   0  0  0  0  0  0  0  0  0  0  0  0
    4.3770    4.0274  -19.7622 H   0  0  0  0  0  0  0  0  0  0  0  0
    3.8952    7.5941  -19.6114 H   0  0  0  0  0  0  0  0  0  0  0  0
    7.0311   -1.2068  -17.5953 H   0  0  0  0  0  0  0  0  0  0  0  0
    4.6770    0.7816  -17.6470 H   0  0  0  0  0  0  0  0  0  0  0  0
    2.6951    2.5325  -19.1024 H   0  0  0  0  0  0  0  0  0  0  0  0
  1 11  1  0
  1 25  1  0
  1 27  2  0
  2 18  1  0
  2 24  1  0
  2 28  2  0
  3 19  1  0
  3 26  1  0
  3 29  2  0
  4 12  1  0
  5 18  1  0
  6 19  1  0
  7 20  1  0
  8 20  1  0
  9 21  1  0
 10 21  1  0
 11 13  1  0
 12 14  1  0
 13 20  1  0
 14 17  1  0
 15 18  1  0
 15 23  1  0
 16 21  1  0
 16 22  1  0
 17 24  1  0
 19 25  1  0
 22 23  1  0
 22 26  1  0
 23 30  1  0
  4 31  1  0
  4 32  1  0
  4 33  1  0
  5 34  1  0
  5 35  1  0
  5 36  1  0
  6 37  1  0
  6 38  1  0
  6 39  1  0
  7 40  1  0
  7 41  1  0
  7 42  1  0
  8 43  1  0
  8 44  1  0
  8 45  1  0
  9 46  1  0
  9 47  1  0
  9 48  1  0
 10 49  1  0
 10 50  1  0
 10 51  1  0
 11 52  1  0
 11 53  1  0
 12 54  1  0
 12 55  1  0
 13 56  1  0
 13 57  1  0
 14 58  1  0
 14 59  1  0
 15 60  1  0
 15 61  1  0
 16 62  1  0
 16 63  1  0
 17 64  1  0
 17 65  1  0
 18 66  1  6
 19 67  1  1
 20 68  1  0
 21 69  1  0
 22 70  1  6
 23 71  1  6
 24 72  1  0
 25 73  1  0
 26 74  1  0
 30 75  1  0
M  END
>  <OMEGA_C>  (250) 
sVnEQHY7DcBdR4DBnlmvQPxt0UC4dJbBh1bUQOssoD8dyYnBSG7MQNsDIUEvsLfBM3KUQKvUzEAK
oIPBgq3+QA/syD6cFXPBgWoxQE1DV8AfJ5XBlnCfQBWfdsBR653BYLLXQIeJGj88y6vBkWCUQLeV
P7/lrq3Bgl3FQFMtZMDd9YXB0DazQGdLKUFE9K3BgA+YQOSGfsAMqYnBtMuYQCeHF0GgfqjBkE+i
QK9viEAo4I3BWguTQAaYpz98G6LBO4m1QKGVBUFnKqTB9fySQIyJt0Ars47BUEPWQBCVej6FjYDB
MZmJQM5WT8A395PBl/KuQM+o8j1e+KXBPuWoQIEXCkA0SpnBpciNQEGLWkA6zZbBPnmcQATA70A8
B53BrBfVQFbri79uZIXB0ZSuQCDaqT81qI/B1WSyQHvDBsCoLm/BInjWQOIMzkAsIpbBghv0QO/Q
8j+8WozB1iVHQJ+uQ0DYbpPBOqTeQOpCLkHBRbvBhabiQNhfFEG0HLXBbAW2QFt8GkE6o73BWlOA
QK+mukBSB3zB5aK1QFdFzUA9soDBdm2IQDLT7UB8PITBmvv9QNfitr5wNWbBmawNQaECdT4n/3zB
/3//QC9Lsz/BD2zB1/sRQJhnO8ArF47BKJgcQHnaNMAaYJzBGdAfQOiZjcDk15XBm2LCQJ0jccB3
HZ3BpomWQB1CncDomJ7Bru2UQOQqVMAeIaXBW9/qQGOynD9pVabBnKnqQCwViL7ZW67BaZLOQGhV
mT/P1rLBu5FuQCeOjL9JmKnBYmOLQMgFG757ubTBlXqnQGy7zr+FPrDBrH/aQFDhX8A0+ozBd8fR
QBpsisAeaYDBqfPJQBfjL0HNGajBkFKdQJr/NUFSoLDBXOmXQK7nocCiOIvBnzyBQKDFb8BFOIPB
ia+GQGWKHkER0KHBcWSCQJS1EEEiXa7ByFfFQCpbh0DGsI7BvAiZQC+6dkCBCobBE0iMQEbe+j+3
/6jBJKNpQJVkaT8K6Z7B8urBQPsH+EAV36rBR3XQQPKaDEHGtp/B+KpjQPjmt0Cip5HBQOm5QJ0V
xT4663bBnVqSQC9UC8AIWpPBSkm4QFep+b7wAZ/BlWDIQFDiHkATP5zBbRCMQGbggEALGZ7BQ0p5
QBsD80AT5JzBzP7gQJZ4mr8rw4zB4KmVQHcVSD/5LI3BUX0sQG4UIkDE0ZjBfubEQLaJ+79j84DB
nCSwQFcpzkB/LpXBCJLVQL3JrT9nl4rBOAOYQI75L0F4WrDBP6iUQOsPy0CJYoLBonL+QCaXPz9O
y3LBYBgKQeZItsCJoWvBXpIMQayZS8DaoWvBQurUQPQv9D4sS6vBSmyQQHCWVL988KzBtg3KQChH
VMD7a4bBcOSQQBJWGUF6CKzB/pvYQLtgjcCpL33B9Eu8QMawD0F47KjBbgSeQF6lhkAUFY3BzFeQ
QK5qpz/GLaLBZGC4QCg870ChPqfBRMWRQO6gtkDLh43BwCnYQEo76z6pyIDBJMsEQepkjcATcXjB
mEyrQFeihz0Uf6XBVLqmQOqFDEBnppnBYDSLQMQEXEDQw5bBViSfQODl5EDsrp3BVGDbQPumZL+m
A4XBAsOuQMgvsj+FBpDBer2uQPWS7b9ty3HBggfXQFXsykD+CJTBBrX1QKjY8z/EJY7Bk/NAQPzs
Q0CrBZTBfCByQPYKN0HEm7LBTCanQJLfOUF4I6rBRfSsQK5HL0EIa7fBYt59QCRKukC7v3nBp661
QM+TyEChzn7BjW6LQL/47EDN44LB9cr9QM+GZz2MHWXBRTYOQYeBHD90wXvBwIH8QI9h5D9h82zB
2aIEQS6L0sDMl3TBlnwbQV5LuMCYH2nBhfEBQVQmtcABC1zBM9wIQYz5EMBWpHTBEGoEQQS0ScBI
C1zBIfUdQRn+T8DfH2nBMjDoQNoBjz/xAKbBjk3nQDYn2b7eYK3BLubMQGPZgz+hobLBwn1lQDEB
kL8B1qjBR3iIQCZajb6NRrTBp9+iQLp53b/LBa/BSyOrQJz+ZsBB64nBMQ/iQAYyTsAS0IzBEP93
QAv9GUFp9aTBgc2BQChlD0H5PLLB13rHQG3eiMAV+m3B2wfQQMecrMCpCYLBcYbTQAXQEkFFWa/B
+X3HQOQsF0GVd6HBWRfBQBSzg0BJMI3Bcm2RQJ5ScUAupYXBp2OKQGmb9T8dWKnBXFZjQHZVdT8P
5J7BirWoQKgN4UBESK7BvZ7YQACV4UD0V6bBXJNhQMmUuUCtg5DBd3i6QKqPED82RHjBnHMNQfZ1
jsC14IPBYqKzQG6pAL8dQp7BrlzFQB/kIkBD9pzBCtaKQM+jg0DrtJ3BVK+AQNeX7kBeTJ3BF/fu
QFHahr9uNYvBHsOWQOtMVT/vMY3B4u0nQD95JUAZz5nB4q/YQFAU+b/ooojB6PiuQEwnz0AYFZfB
yBrXQA0+kz9Ee4rB7iTDQE7TLkFEsbLBTJWXQMNUzED694PB4+UCQXLFwj4+OnXB0As4QOy2XMBJ
yJTBANGiQAuQf8DYUp3BPpnUQOPIBz+isqzB6muRQDiaWr8UKa3BQF7NQAeDW8AoSofBEsOsQPje
GUEZw7XBKhCdQFp/a8APB4nBRQ+VQCDDD0GnMqzBrMqiQOvNhkDZ+Y3BS22SQHthnz96FKLBEEe0
QA6kBUHsNaTB5dqTQAwdtkDE4o7BlOzYQPvbuD6Ynn/BJqyMQEYXTsCmK5TBIqStQLj8Vj1UIabB
/ICpQBw5BkDoepnBb/2OQGHYV0AyE5fB5COcQDxT8EA6v5zBzmbKQHAOhb9z74DBsuqvQFmfpD+h
s4/BrlHuQDo2zL80U5DB9JPVQH2ZyEBy2ZfBMHT3QMh71z9gD47BeW9IQIVsQkDdCZTBh5PTQKxx
NUFwvLnBuD6rQBBhOkGqzK/BmaraQNavK0EsVqzBLmWEQBrVukBZDnzBBUu5QFG2zEDmb4HBYL2L
QF5g7UCcnoTBjosCQW2wRb5xNmbBj5AOQXw5kr1kH4DBDI8HQRS4tT+x1HHBaVgYQCuKOcA6RY7B
dPAfQGOaRcB7h5zB604qQNW7kMC4/JPBAJjFQFY3dcB855zB9uabQI0losDihZzBu7eWQNNtaMCl
EKXB/NboQD3Ulj+Ms6fBzkLnQKaurr6NWq/BAnPJQAYVjD9duLPBu0BrQMAmmb8agqjBAlaGQLXF
k76xLrTBziWkQByy3L/i0K/BDJXfQAiZgMAwKo3BpBfWQHX1b8AQUH7BQH6VQOwtHUGSJ7zBIurE
QLJ8DkEUsbjBdueWQKI/mMASNIjB/DSLQHRySMBp1oLBvICCQORBHEGzFqjBLHB+QCxSA0GzL6/B
AuTFQNx2hUBIjY7B0I+YQFRvc0CpN4bBhMeKQDg+8j/Z7qjBrT9pQAb0WT+HnZ7BFsvLQFae90BY
iajBCALFQF5NEkHUwJ/B4WJkQO+atkCrdJHBTQ3DQHWdXT/CcHTBtk6TQNtdCcBTHZXBvgy5QKs7
Br+GM5/BANHIQP3aGUADqpzBsWqOQBtXf0C5W57B6uB5QA0T9kDjs5vBw3O0QFW6rr9DdXfBpZyW
QLaCTj9EqIzB45UuQBA5IUBDhpnBnRzCQEIvCcCJb4fBvxqtQHyt0kCOiJXBdM7QQPLkgT+B5IrB
7bDLQAPSIkEfarnBUaSXQPyvx0BZhYLBtBzpQH1QSD9kMm/BIJYoQVz3McBOMJDBdeUaQTqamcBI
RYbB5E7aQI9RDT+oE6zBrd2UQO+sKr8IFq/BqDnYQE8hX8DDJInBmNzCQEJSI0HbYa3BLJcAQedl
UcC8CZDBdM6vQAPhDUEIvKnBLuOkQP+9hkAyHo7BOw2VQJa8sT/yc6PBUgGsQB4qDkEDk53BHROU
QFVItUA95Y3BNhTMQFA9Wj5ccoDBVsgVQX+fVcCkd4nBnz6vQAh5FD6e9KbBXE+qQJGQCkAFKJrB
XdaQQKzVXEAfnZfBGjeXQOWD9UDCq5nBDv/YQNZ0lr+Q7IHB3uSrQKxtpj8jo5DBowCgQIK1878Z
6IvB3zfUQDQP0ECnQZbB2eXzQKSJtz+Gw43Bh+9KQFjRSEB265TB21HZQFA+MkHq77vB9IDiQPLo
FUE7N7vB9pitQBvxH0Eiv73BOe+FQOAes0Bn1XnBFYK5QIn4yECdJIDBtgqKQOkl6ECXXYLBjxLl
QCTpQz4XfmDBSVkFQfXmOz+eaHTBOFHgQIck6j8ODGzBoiElQSXz3r/fgZLBHF03Qf/cM8AkaovB
+6AqQXA+WcCGa5fBeaINQaWepsC3fIHBbvocQQcOrcDUh43Bj7YpQU5dmsByhoHBZDXtQNHnkD8t
SKbB8STsQNQRtL5LYK7BTT3UQL4slT/kOLPBNV1sQHQpdb+2dKvB/9WOQPmGV73VOrbBpL2mQGvt
yL89YrHBkCvhQBSVesDbWoHBNlvCQMOLhcAlT43BZf7gQI86JkFdEqnBZxasQLhCMEFEmqvB8xoB
Qc6ogcDVPJbBPiH/QEccEsC125PBGvePQE6zC0EIU63BcuHEQBixAEHTOazBbenHQC8Kh0Ah/o7B
hDycQHg9bUCkmYbBzNSRQO0eBEBvWarBUUVqQEM9hz9W3KDBjzTMQBVLD0GEEJrBa/mYQNUlHEES
JJvBxWZkQLE1tUC9SZDBxJSqQOsehj4Zi3vBN/wTQYHLLsCaLoLBnJW1QN3s9b4w5J/BtPnKQCd8
HED6jJzBx6uRQHxQg0AwsZ7BSY9uQKP580ClAJrBNtb0QIE1ur8IWX3BZXyQQC3HYz9EIo7Bif8w
QMjDKkAZrZrB

>  <OMEGA_E>  (250) 
oD1CPloUKD94EQY/Ao09Pw==

>  <OMEGA_NBR>  (250) 
      4967

$$$$
54115
     RDKit          3D

 82 81  0  0  1  0  0  0  0  0999 V2000
    6.1639   -2.1229  -15.9975 C   0  0  0  0  0  0  0  0  0  0  0  0
    5.4786    6.4815  -18.7744 C   0  0  0  0  0  0  0  0  0  0  0  0
    6.6701    1.2473  -17.3629 C   0  0  0  0  0  0  0  0  0  0  0  0
    6.3788   10.0873  -22.8564 C   0  0  0  0  0  0  0  0  0  0  0  0
    4.7129    6.3908  -16.3902 C   0  0  0  0  0  0  0  0  0  0  0  0
    2.8431   -3.4389  -18.6162 C   0  0  0  0  0  0  0  0  0  0  0  0
    5.0943   -3.8902  -19.6399 C   0  0  0  0  0  0  0  0  0  0  0  0
    6.7147    0.5846  -21.4255 C   0  0  0  0  0  0  0  0  0  0  0  0
    4.6194   -0.7882  -21.6383 C   0  0  0  0  0  0  0  0  0  0  0  0
    9.4725   -0.7982  -11.7405 C   0  0  0  0  0  0  0  0  0  0  0  0
    6.2037   -3.5201  -16.6308 C   0  0  0  0  0  0  0  0  0  0  0  0
    5.7253   10.6007  -21.5603 C   0  0  0  0  0  0  0  0  0  0  0  0
    4.7987   -3.9555  -17.1088 C   0  0  0  0  0  0  0  0  0  0  0  0
    4.8597    9.5254  -20.8722 C   0  0  0  0  0  0  0  0  0  0  0  0
    8.0648    0.6204  -15.3571 C   0  0  0  0  0  0  0  0  0  0  0  0
    4.9951    4.2363  -17.6785 C   0  0  0  0  0  0  0  0  0  0  0  0
    4.5464    1.3140  -20.2609 C   0  0  0  0  0  0  0  0  0  0  0  0
    5.6958    8.3031  -20.4677 C   0  0  0  0  0  0  0  0  0  0  0  0
    8.0780   -0.1046  -14.0130 C   0  0  0  0  0  0  0  0  0  0  0  0
    4.5871    5.7247  -17.7695 C   0  0  2  0  0  0  0  0  0  0  0  0
    6.7758    0.3252  -16.1529 C   0  0  2  0  0  0  0  0  0  0  0  0
    4.3626   -3.2659  -18.4296 C   0  0  0  0  0  0  0  0  0  0  0  0
    5.4348    0.1146  -20.6975 C   0  0  0  0  0  0  0  0  0  0  0  0
    5.2185    2.1921  -19.1823 C   0  0  1  0  0  0  0  0  0  0  0  0
    4.3717    3.4398  -18.8476 C   0  0  1  0  0  0  0  0  0  0  0  0
    4.9055    7.4575  -19.5731 N   0  0  0  0  0  0  0  0  0  0  0  0
    6.7567   -1.0569  -16.6628 N   0  0  0  0  0  0  0  0  0  0  0  0
    5.4360    1.3793  -17.9779 N   0  0  0  0  0  0  0  0  0  0  0  0
    5.5518   -1.9541  -14.9480 O   0  0  0  0  0  0  0  0  0  0  0  0
    6.6941    6.3074  -18.7841 O   0  0  0  0  0  0  0  0  0  0  0  0
    7.6666    1.8064  -17.8120 O   0  0  0  0  0  0  0  0  0  0  0  0
    3.0397    3.0809  -18.4766 O   0  0  0  0  0  0  0  0  0  0  0  0
    9.5419    0.4510  -13.0735 S   0  0  0  0  0  0  0  0  0  0  0  0
    6.9826   10.8894  -23.3059 H   0  0  0  0  0  0  0  0  0  0  0  0
    7.0250    9.2276  -22.6254 H   0  0  0  0  0  0  0  0  0  0  0  0
    5.5956    9.7776  -23.5640 H   0  0  0  0  0  0  0  0  0  0  0  0
    4.0799    5.8574  -15.6658 H   0  0  0  0  0  0  0  0  0  0  0  0
    5.7611    6.3525  -16.0589 H   0  0  0  0  0  0  0  0  0  0  0  0
    4.3880    7.4395  -16.4585 H   0  0  0  0  0  0  0  0  0  0  0  0
    2.3151   -2.9969  -17.7584 H   0  0  0  0  0  0  0  0  0  0  0  0
    2.5275   -2.9335  -19.5409 H   0  0  0  0  0  0  0  0  0  0  0  0
    2.6016   -4.5100  -18.6829 H   0  0  0  0  0  0  0  0  0  0  0  0
    6.1805   -3.7706  -19.5140 H   0  0  0  0  0  0  0  0  0  0  0  0
    4.8485   -4.9604  -19.7047 H   0  0  0  0  0  0  0  0  0  0  0  0
    4.7744   -3.3840  -20.5626 H   0  0  0  0  0  0  0  0  0  0  0  0
    7.3015    1.2310  -20.7562 H   0  0  0  0  0  0  0  0  0  0  0  0
    7.3168   -0.2908  -21.7104 H   0  0  0  0  0  0  0  0  0  0  0  0
    6.4369    1.1481  -22.3284 H   0  0  0  0  0  0  0  0  0  0  0  0
    3.7071   -1.1253  -21.1243 H   0  0  0  0  0  0  0  0  0  0  0  0
    4.3439   -0.2231  -22.5410 H   0  0  0  0  0  0  0  0  0  0  0  0
    5.2239   -1.6620  -21.9229 H   0  0  0  0  0  0  0  0  0  0  0  0
   10.3032   -0.6328  -11.0386 H   0  0  0  0  0  0  0  0  0  0  0  0
    8.5162   -0.7092  -11.2042 H   0  0  0  0  0  0  0  0  0  0  0  0
    9.5561   -1.8046  -12.1766 H   0  0  0  0  0  0  0  0  0  0  0  0
    6.8874   -3.5046  -17.4923 H   0  0  0  0  0  0  0  0  0  0  0  0
    6.5692   -4.2419  -15.8855 H   0  0  0  0  0  0  0  0  0  0  0  0
    6.5181   10.9141  -20.8651 H   0  0  0  0  0  0  0  0  0  0  0  0
    5.0887   11.4641  -21.8037 H   0  0  0  0  0  0  0  0  0  0  0  0
    4.8050   -5.0439  -17.2680 H   0  0  0  0  0  0  0  0  0  0  0  0
    4.0689   -3.7037  -16.3252 H   0  0  0  0  0  0  0  0  0  0  0  0
    4.4011    9.9586  -19.9711 H   0  0  0  0  0  0  0  0  0  0  0  0
    4.0700    9.2039  -21.5672 H   0  0  0  0  0  0  0  0  0  0  0  0
    8.1330    1.7036  -15.1783 H   0  0  0  0  0  0  0  0  0  0  0  0
    8.9319    0.2909  -15.9482 H   0  0  0  0  0  0  0  0  0  0  0  0
    6.0911    4.1562  -17.7278 H   0  0  0  0  0  0  0  0  0  0  0  0
    4.6396    3.8197  -16.7245 H   0  0  0  0  0  0  0  0  0  0  0  0
    4.3385    1.9375  -21.1430 H   0  0  0  0  0  0  0  0  0  0  0  0
    3.6008    0.9229  -19.8573 H   0  0  0  0  0  0  0  0  0  0  0  0
    5.9718    7.7318  -21.3663 H   0  0  0  0  0  0  0  0  0  0  0  0
    6.6078    8.6356  -19.9502 H   0  0  0  0  0  0  0  0  0  0  0  0
    7.1630    0.1361  -13.4520 H   0  0  0  0  0  0  0  0  0  0  0  0
    8.1322   -1.1909  -14.1773 H   0  0  0  0  0  0  0  0  0  0  0  0
    3.5408    5.7872  -18.1032 H   0  0  0  0  0  0  0  0  0  0  0  0
    5.9082    0.4916  -15.4976 H   0  0  0  0  0  0  0  0  0  0  0  0
    4.6029   -2.1939  -18.3739 H   0  0  0  0  0  0  0  0  0  0  0  0
    5.7210   -0.4605  -19.8045 H   0  0  0  0  0  0  0  0  0  0  0  0
    6.1905    2.5302  -19.5707 H   0  0  0  0  0  0  0  0  0  0  0  0
    4.3496    4.0900  -19.7346 H   0  0  0  0  0  0  0  0  0  0  0  0
    3.9148    7.5889  -19.5367 H   0  0  0  0  0  0  0  0  0  0  0  0
    7.1975   -1.2390  -17.5417 H   0  0  0  0  0  0  0  0  0  0  0  0
    4.6541    0.8973  -17.5825 H   0  0  0  0  0  0  0  0  0  0  0  0
    2.6357    2.5893  -19.1819 H   0  0  0  0  0  0  0  0  0  0  0  0
  1 11  1  0
  1 27  1  0
  1 29  2  0
  2 20  1  0
  2 26  1  0
  2 30  2  0
  3 21  1  0
  3 28  1  0
  3 31  2  0
  4 12  1  0
  5 20  1  0
  6 22  1  0
  7 22  1  0
  8 23  1  0
  9 23  1  0
 10 33  1  0
 11 13  1  0
 12 14  1  0
 13 22  1  0
 14 18  1  0
 15 19  1  0
 15 21  1  0
 16 20  1  0
 16 25  1  0
 17 23  1  0
 17 24  1  0
 18 26  1  0
 19 33  1  0
 21 27  1  0
 24 25  1  0
 24 28  1  0
 25 32  1  0
  4 34  1  0
  4 35  1  0
  4 36  1  0
  5 37  1  0
  5 38  1  0
  5 39  1  0
  6 40  1  0
  6 41  1  0
  6 42  1  0
  7 43  1  0
  7 44  1  0
  7 45  1  0
  8 46  1  0
  8 47  1  0
  8 48  1  0
  9 49  1  0
  9 50  1  0
  9 51  1  0
 10 52  1  0
 10 53  1  0
 10 54  1  0
 11 55  1  0
 11 56  1  0
 12 57  1  0
 12 58  1  0
 13 59  1  0
 13 60  1  0
 14 61  1  0
 14 62  1  0
 15 63  1  0
 15 64  1  0
 16 65  1  0
 16 66  1  0
 17 67  1  0
 17 68  1  0
 18 69  1  0
 18 70  1  0
 19 71  1  0
 19 72  1  0
 20 73  1  6
 21 74  1  1
 22 75  1  0
 23 76  1  0
 24 77  1  6
 25 78  1  6
 26 79  1  0
 27 80  1  0
 28 81  1  0
 32 82  1  0
M  END
>  <OMEGA_C>  (251) 
Wz7FQJLdB8D29X/Bw1CvQNJoz0D+MZbBLXHVQOunnz8l54rB9B7MQKFlIUHm2bbBH9CWQDGBzEAS
H4PB0/U1QKQWXMD27ZTBtwSjQNn4eMCQHp3BNt/WQK6pFT9iZ6vBvtGTQBDHSb8yG63BdI8XQepX
TL8P2TvBi4TGQE9JYcDQC4XBqTW3QKOcKUGJe6zB646ZQIMmfcDe3ojBxIKbQNxnGEFU+qbBSwkB
QZDQHj9+tnXBHNifQJyPh0CIbY3B4HuRQNwwqD9DFqLBVES2QJvZBEHsvaPBfz8BQRs81r1xNWDB
U8mSQPcwt0D/J47BcNPYQGJ6pj4lOYHB05qLQCMEUcDEb5PBQuqtQJbH6j1hlKXBSf6mQCdLDEBB
dZnB5eSLQGkmXEDVx5bBsPmcQM+j7kCplZzBwzbYQLJJh79qTYXBwvOtQICLsD+10o/BlaixQI0f
+r8SK2/BrjXWQDDWyUDoRZbB6lT1QHk35z8Of47B/opCQEMuRUAY0JPBr6sYQb3n5j7yLFHBKXHf
QBQ7LkF/crrB5MzgQGmkE0HhALXBHA+zQDBxHEEZg7zBUI6CQNFvu0DrpnrBS1u4QLFHy0CoeIDB
oWqMQCkQ7kAJq4PBZisUQHXMP8AnEY7B08IhQDC/O8CyU5zBJIEmQKlRkMCidpXB5cbFQE1RccCq
HJzBxiabQKe7nsAzo53BnseYQCyTWMBDgKTBN6bpQMmPnT+0DKbBSSPqQHjklL7Orq3B6/rNQDj0
kj+coLLBMUFtQIsJkL+V/qjBiAGLQJd7ZL7nU7TB5imnQMm81L8ZYq/Bz9kkQQb9Ib8knjDBjUII
QaCQNb9dRDPBtuUYQZj95r9R00LBwmXcQOtLYMBB8IvBnjbSQMC9h8AQK37BCJTQQE+gLkHF66bB
P9aiQBZtN0H+ba7BjMKZQIBnocDLJIrBpDSCQIgJbcAImoLBztWMQGdWH0HhxJ/BUj2CQAhDE0Gd
iazB3yACQcUP2j932nLBN+kOQbDzlD7uK3/BUurCQL7/hECR0o3BzXeUQHd1dEDPy4XBYdWKQPL+
9z/JJKnBE3NmQCFEbD+p257Bvxi/QBhr90A/7qrBB3PTQForCkEPmp/BVTflQGZqCz48O1fBmh0C
QexvmL9l1mLBzJtiQI0wuUBP05DBrA+9QAS4+z4E9nfB5EqTQIVoDMCr/ZLBNxK3QHHH676kb57B
+RjGQLfuIUDGkJzBLDCLQArhgkCA4J3BSYx6QAPY8kBBS5zB11HmQFCXnr9/VYzBvu6UQIqyZT/d
qIzB5a4oQL+2JUCfdJnB

>  <OMEGA_E>  (251) 
AA6sPA==

>  <OMEGA_NBR>  (251) 
      8476

$$$$
54117
     RDKit          3D

 78 77  0  0  1  0  0  0  0  0999 V2000
    6.0208   -2.1698  -15.9594 C   0  0  0  0  0  0  0  0  0  0  0  0
    5.5304    6.4101  -18.7810 C   0  0  0  0  0  0  0  0  0  0  0  0
    6.6311    1.2995  -17.1718 C   0  0  0  0  0  0  0  0  0  0  0  0
    5.7096   11.0340  -22.9331 C   0  0  0  0  0  0  0  0  0  0  0  0
    4.7265    6.3657  -16.4278 C   0  0  0  0  0  0  0  0  0  0  0  0
    8.0625    0.3606  -15.2421 C   0  0  0  0  0  0  0  0  0  0  0  0
    4.9954   -3.9915  -19.5973 C   0  0  0  0  0  0  0  0  0  0  0  0
    2.7371   -3.3851  -18.6828 C   0  0  0  0  0  0  0  0  0  0  0  0
    6.6934    0.5028  -21.5186 C   0  0  0  0  0  0  0  0  0  0  0  0
    4.5471   -0.7995  -21.6854 C   0  0  0  0  0  0  0  0  0  0  0  0
    7.4969   -1.4438  -17.8294 C   0  0  0  0  0  0  0  0  0  0  0  0
    5.9757   -3.6217  -16.5148 C   0  0  0  0  0  0  0  0  0  0  0  0
    6.2298    9.7712  -22.2602 C   0  0  0  0  0  0  0  0  0  0  0  0
    4.5784   -3.9748  -17.0727 C   0  0  0  0  0  0  0  0  0  0  0  0
    5.2207    9.2499  -21.2250 C   0  0  0  0  0  0  0  0  0  0  0  0
    5.0244    4.1890  -17.6738 C   0  0  0  0  0  0  0  0  0  0  0  0
    4.5968    1.2820  -20.2732 C   0  0  0  0  0  0  0  0  0  0  0  0
    5.8711    8.0403  -20.5780 C   0  0  0  0  0  0  0  0  0  0  0  0
    4.6135    5.6764  -17.7941 C   0  0  2  0  0  0  0  0  0  0  0  0
    6.7499    0.2420  -16.0543 C   0  0  2  0  0  0  0  0  0  0  0  0
    4.2538   -3.2960  -18.4314 C   0  0  0  0  0  0  0  0  0  0  0  0
    5.4234    0.0638  -20.7581 C   0  0  0  0  0  0  0  0  0  0  0  0
    5.3009    2.1197  -19.1699 C   0  0  1  0  0  0  0  0  0  0  0  0
    4.4584    3.3831  -18.8615 C   0  0  1  0  0  0  0  0  0  0  0  0
    5.0140    7.4125  -19.5832 N   0  0  0  0  0  0  0  0  0  0  0  0
    5.4823    1.2915  -17.9620 N   0  0  0  0  0  0  0  0  0  0  0  0
    6.6523   -1.1205  -16.6557 N   0  0  0  0  0  0  0  0  0  0  0  0
    5.4449   -1.9517  -14.8982 O   0  0  0  0  0  0  0  0  0  0  0  0
    6.7360    6.1743  -18.7954 O   0  0  0  0  0  0  0  0  0  0  0  0
    7.5877    2.0162  -17.4514 O   0  0  0  0  0  0  0  0  0  0  0  0
    3.1109    3.0361  -18.5379 O   0  0  0  0  0  0  0  0  0  0  0  0
    6.4467   11.3885  -23.6686 H   0  0  0  0  0  0  0  0  0  0  0  0
    4.7602   10.8131  -23.4429 H   0  0  0  0  0  0  0  0  0  0  0  0
    5.5456   11.8128  -22.1738 H   0  0  0  0  0  0  0  0  0  0  0  0
    4.0754    5.8543  -15.7035 H   0  0  0  0  0  0  0  0  0  0  0  0
    5.7689    6.3204  -16.0794 H   0  0  0  0  0  0  0  0  0  0  0  0
    4.4163    7.4170  -16.5209 H   0  0  0  0  0  0  0  0  0  0  0  0
    8.0852   -0.4178  -14.4653 H   0  0  0  0  0  0  0  0  0  0  0  0
    8.9230    0.2319  -15.9152 H   0  0  0  0  0  0  0  0  0  0  0  0
    8.1124    1.3523  -14.7688 H   0  0  0  0  0  0  0  0  0  0  0  0
    6.0808   -3.9340  -19.4283 H   0  0  0  0  0  0  0  0  0  0  0  0
    4.6880   -5.0463  -19.6499 H   0  0  0  0  0  0  0  0  0  0  0  0
    4.7445   -3.4889  -20.5430 H   0  0  0  0  0  0  0  0  0  0  0  0
    2.1989   -2.8932  -17.8591 H   0  0  0  0  0  0  0  0  0  0  0  0
    2.4927   -2.8842  -19.6311 H   0  0  0  0  0  0  0  0  0  0  0  0
    2.4362   -4.4416  -18.7380 H   0  0  0  0  0  0  0  0  0  0  0  0
    7.3215    1.1196  -20.8591 H   0  0  0  0  0  0  0  0  0  0  0  0
    7.2574   -0.3872  -21.8347 H   0  0  0  0  0  0  0  0  0  0  0  0
    6.4063    1.0886  -22.4043 H   0  0  0  0  0  0  0  0  0  0  0  0
    3.6412   -1.1139  -21.1465 H   0  0  0  0  0  0  0  0  0  0  0  0
    4.2617   -0.2126  -22.5709 H   0  0  0  0  0  0  0  0  0  0  0  0
    5.1129   -1.6884  -22.0013 H   0  0  0  0  0  0  0  0  0  0  0  0
    7.9101   -0.5157  -18.2512 H   0  0  0  0  0  0  0  0  0  0  0  0
    8.3204   -2.1032  -17.5178 H   0  0  0  0  0  0  0  0  0  0  0  0
    6.8874   -1.9528  -18.5905 H   0  0  0  0  0  0  0  0  0  0  0  0
    6.7171   -3.7183  -17.3217 H   0  0  0  0  0  0  0  0  0  0  0  0
    6.2235   -4.3220  -15.7035 H   0  0  0  0  0  0  0  0  0  0  0  0
    6.3953    8.9973  -23.0242 H   0  0  0  0  0  0  0  0  0  0  0  0
    7.1806    9.9971  -21.7552 H   0  0  0  0  0  0  0  0  0  0  0  0
    4.5251   -5.0650  -17.2086 H   0  0  0  0  0  0  0  0  0  0  0  0
    3.8225   -3.6593  -16.3385 H   0  0  0  0  0  0  0  0  0  0  0  0
    5.0145   10.0226  -20.4697 H   0  0  0  0  0  0  0  0  0  0  0  0
    4.2816    8.9603  -21.7191 H   0  0  0  0  0  0  0  0  0  0  0  0
    6.1219    4.1140  -17.6736 H   0  0  0  0  0  0  0  0  0  0  0  0
    4.6286    3.7775  -16.7336 H   0  0  0  0  0  0  0  0  0  0  0  0
    4.4052    1.9366  -21.1362 H   0  0  0  0  0  0  0  0  0  0  0  0
    3.6406    0.9146  -19.8722 H   0  0  0  0  0  0  0  0  0  0  0  0
    6.1019    7.3028  -21.3608 H   0  0  0  0  0  0  0  0  0  0  0  0
    6.8033    8.3601  -20.0893 H   0  0  0  0  0  0  0  0  0  0  0  0
    3.5738    5.7367  -18.1482 H   0  0  0  0  0  0  0  0  0  0  0  0
    5.9075    0.3825  -15.3611 H   0  0  0  0  0  0  0  0  0  0  0  0
    4.5550   -2.2389  -18.3887 H   0  0  0  0  0  0  0  0  0  0  0  0
    5.7194   -0.5358  -19.8847 H   0  0  0  0  0  0  0  0  0  0  0  0
    6.2836    2.4383  -19.5477 H   0  0  0  0  0  0  0  0  0  0  0  0
    4.4716    4.0287  -19.7520 H   0  0  0  0  0  0  0  0  0  0  0  0
    4.0624    7.7024  -19.4806 H   0  0  0  0  0  0  0  0  0  0  0  0
    4.7335    0.6859  -17.6930 H   0  0  0  0  0  0  0  0  0  0  0  0
    2.7318    2.5370  -19.2518 H   0  0  0  0  0  0  0  0  0  0  0  0
  1 12  1  0
  1 27  1  0
  1 28  2  0
  2 19  1  0
  2 25  1  0
  2 29  2  0
  3 20  1  0
  3 26  1  0
  3 30  2  0
  4 13  1  0
  5 19  1  0
  6 20  1  0
  7 21  1  0
  8 21  1  0
  9 22  1  0
 10 22  1  0
 11 27  1  0
 12 14  1  0
 13 15  1  0
 14 21  1  0
 15 18  1  0
 16 19  1  0
 16 24  1  0
 17 22  1  0
 17 23  1  0
 18 25  1  0
 20 27  1  0
 23 24  1  0
 23 26  1  0
 24 31  1  0
  4 32  1  0
  4 33  1  0
  4 34  1  0
  5 35  1  0
  5 36  1  0
  5 37  1  0
  6 38  1  0
  6 39  1  0
  6 40  1  0
  7 41  1  0
  7 42  1  0
  7 43  1  0
  8 44  1  0
  8 45  1  0
  8 46  1  0
  9 47  1  0
  9 48  1  0
  9 49  1  0
 10 50  1  0
 10 51  1  0
 10 52  1  0
 11 53  1  0
 11 54  1  0
 11 55  1  0
 12 56  1  0
 12 57  1  0
 13 58  1  0
 13 59  1  0
 14 60  1  0
 14 61  1  0
 15 62  1  0
 15 63  1  0
 16 64  1  0
 16 65  1  0
 17 66  1  0
 17 67  1  0
 18 68  1  0
 18 69  1  0
 19 70  1  6
 20 71  1  1
 21 72  1  0
 22 73  1  0
 23 74  1  6
 24 75  1  6
 25 76  1  0
 26 77  1  0
 31 78  1  0
M  END
>  <OMEGA_C>  (252) 
yKrAQLPdCsC7WX/B9viwQFsfzUBkP5bBWjLUQOtVpj/kX4nB+rS2QBGLMEHqdrfBFj+XQDS0y0AR
bIPBFAABQT6guD6v33PBPNqfQH90f8A3x5zBCS0vQMikWMBIdpXBoDDWQBu4AD8cJqzBNIKRQNio
TL+4e63BxubvQE/NuL+Foo7BUDm/QAfKZ8BGHoTB0lrHQN9WHEHoFLLBnoKSQJNifsDPlIjB/g+n
QLn/E0HQzKnBPsigQI8MhkDZY43BxBiTQM0YpD9zL6LBTuC7QAClAEG4n6TBqqGTQPWktUBfWo7B
/v7XQNHOdz5Lb4DBAB+IQKzxUsCIc5PBdIytQKK7gj2uEKbBlKCpQGWpB0DfW5nB7KqOQPmDWEBo
5JbBpnKgQIoz7UB0qpzBaG+vQH1RpT8yso/BRN/UQHNsj7/cPoXBfDyuQHPQ+b/8Xm7BPI3XQJ2T
xUAIXZbBnM7yQOEJAUBsnIvBixlHQPBPQkC0TZTBq0vOQB83NkEyWb3BllOYQG4CLUH1irvBNnWx
QG0BPUEJZLHBxGmCQFRWu0COQXvBeZq4QBFBykCtooDBgVKNQCdY7UC1KoTBE10BQV3w1b6vcWfB
b8QOQTd2bT7CpH7BN8wBQcMYrT8TTWzBC5bCQNnGe8AwbZvB6AOWQKl7ocD2Mp3BN9OXQF9JX8AZ
WKTBL7sMQBQqOcBu347BnIgfQOqVOMB9DJ3B/ekbQO4hjsBa55XBHUrqQHZQjz9g36bBnjzoQOU5
xr5qra7BIwDNQGFWiz/3O7PBxQlpQMCVjr8VLKnBEmCIQOC5Wb5LkbTBjZyjQBYc2L++ArDBxB/9
QMsDBL9iApLBNSAFQV2bBsCGJIzBumXcQOv0+b9tuZTBE/LWQEv5bcDckorB2ybHQM5NisBzQXvB
66XMQPH0D0GWMbjBi8flQPDzH0GqCq7BQ82QQL0UosAnq4nBl6N0QHUyasA0tYLBi3agQJFcIEH+
waPBsQKJQDFdD0G5wK3BcObDQKSlg0CCY43Btx2UQNnBcUBd3oXBY/eMQJnj9z/eFqnBj/9oQG4j
aj9Z+p7BkkLDQFOw6UD54qrBdrTZQMbCBUHStqDBvLhkQD+Tt0CBL5HB1Qm9QHXXwz4Yx3XBQsKR
QB1KD8AAHJPB8gS3QBMrCb/0E5/B4xLJQIwNHEC8YZzBDRePQMPqgEAwBJ7Bif+BQAR69kBC2JvB
x3iXQAeVLz9Fi43BxdUuQKteIkDFA5rBf3vbQLOIBcDFL4DBifGsQKqC0UCBOZXBmr3OQFo6hz+f
oYrB3RS9QGaWNkFMQ6rBg4OaQLYGzUCixIHBN2PFQJMPsD+y6W3Blq9GQD9HZ8A7eZDBvwWeQJCy
aMBXRZ7BBHrZQOtPJj9YdKvBy5OUQHdUHb8k9q3Bn90GQZ7N476iYG/Buly0QPx9GsCiWofBqjaj
QInWIkEHAqfBv7+xQBYTesCVjorBlve/QJX8DkHTr6fBt32gQG/XiECOzYzB5laUQDjfvj/P26LB
8AulQItb9UDn16bBM12TQPmkuECixozB8hzHQMoDrT7jCIDBZ7mPQFAzhsBdWZPB2uSuQOFQeT7z
HqbB5RqpQH5uEkCBlJnBkS2PQH5XZEAJ+pbBRL+WQJbv7EDO55vBUDWqQNWCtj+FJ5DBS4LmQGDE
P7/50HvBVATwQI5gQMCJZXjBmP7SQAPCyUBnwpbBhm/yQKYEuz+5Jo3Bwy9GQHqEUEA4MZXBvaCo
QF/hREHCyqnBLILYQEF2OEHD06TBjbbIQCydNEF9grLBAzmIQOFFu0AAZnfBAsa8QPnuy0BXiH/B
UK+PQCSD7kAC8IHBS+S/QAn2XD82lV7BIOfjQKkI9j/ZO23BzSKrQI9WBUAU8XDBoQ0yQGRQgMDz
rYjBrshKQJcUIcAhDJDBhwkYQI2wecBEppbB/pq9QLx9gcBRWKDBx6SGQI4be8AXb6TBWgSgQJh/
IsD11J3B+U/sQMmZoT/B3aXB4a3rQNQogr4HkK3Bn83SQEV2nT+dvbLBsGZsQO+1Z7/bK6rBF++N
QB47Cb0hP7XBWs+mQFJKwr+LEbDBenEIQa7oJD+1eW3BH8cFQSrLar/lhF/BXe0UQWgkVr+o6HfB
1QyXQGGCCcDr94LBsX+2QHmh578HsI7BgpWXQAfIJEFUwp7B4smHQPHuIEEOcazBq0DRQDIbh8C5
kY3B95KpQGPWj8BIZ4PBpgvRQIMJD0GxYa/B9kjXQK1XD0HVGKHBQ5vDQJx2hkD5qozBkDmTQFs6
ckCyqYXBoWORQLHQCUDD2KnBjapoQGGLlD9cU6DBbMGIQKrQ+EDvAazB6Vq4QPYQ2kAVmanBAUxi
QDLPukA2xY7BvTenQCNa/b3bgIDBB3SMQPQdqcA3G5TBwta1QIzosr4z6p7B1snJQIPOJEB855vB
HjmSQL9hiEDVwp3BA594QFlW+0BzMZnBtUKOQDpdiT+Yd43BMXQvQEanNEAFUpvB

>  <OMEGA_E>  (252) 
OKPGPlx/KD8=

>  <OMEGA_NBR>  (252) 
     15088

$$$$
29109
     RDKit          3D

 93 93  0  0  1  0  0  0  0  0999 V2000
    5.4589    6.7027  -19.0780 C   0  0  0  0  0  0  0  0  0  0  0  0
    4.3754   -3.7460  -19.0194 C   0  0  0  0  0  0  0  0  0  0  0  0
    6.8365   -1.7602  -17.0688 C   0  0  0  0  0  0  0  0  0  0  0  0
    6.8520    1.3275  -17.3290 C   0  0  0  0  0  0  0  0  0  0  0  0
    4.8976    5.6032  -15.9470 C   0  0  0  0  0  0  0  0  0  0  0  0
    4.1450    6.4395  -16.9691 C   0  0  0  0  0  0  0  0  0  0  0  0
    4.8221    4.1875  -16.5171 C   0  0  0  0  0  0  0  0  0  0  0  0
    4.4840    5.7994  -18.3282 C   0  0  2  0  0  0  0  0  0  0  0  0
    5.0699    4.3923  -18.0256 C   0  0  2  0  0  0  0  0  0  0  0  0
    3.4267   -4.4612  -18.0358 C   0  0  0  0  0  0  0  0  0  0  0  0
    6.4937   10.2663  -22.9244 C   0  0  0  0  0  0  0  0  0  0  0  0
    8.2657   -3.8272  -14.8175 C   0  0  0  0  0  0  0  0  0  0  0  0
    6.5979   -5.6793  -14.5318 C   0  0  0  0  0  0  0  0  0  0  0  0
    6.9429    0.5697  -21.3787 C   0  0  0  0  0  0  0  0  0  0  0  0
    4.8860   -0.8403  -21.7006 C   0  0  0  0  0  0  0  0  0  0  0  0
   10.7683   -1.0349  -13.7564 C   0  0  0  0  0  0  0  0  0  0  0  0
    5.5074   10.8097  -21.8740 C   0  0  0  0  0  0  0  0  0  0  0  0
    4.7538    9.6777  -21.1654 C   0  0  0  0  0  0  0  0  0  0  0  0
    8.3329    0.6179  -15.3422 C   0  0  0  0  0  0  0  0  0  0  0  0
    6.6111   -4.3106  -16.6786 C   0  0  0  0  0  0  0  0  0  0  0  0
    4.7258    1.1933  -20.2585 C   0  0  0  0  0  0  0  0  0  0  0  0
    5.7038    8.8257  -20.3247 C   0  0  0  0  0  0  0  0  0  0  0  0
    8.2387    0.1054  -13.8952 C   0  0  0  0  0  0  0  0  0  0  0  0
    5.9529   -3.0117  -17.2037 C   0  0  2  0  0  0  0  0  0  0  0  0
    6.9376    0.5685  -15.9939 C   0  0  2  0  0  0  0  0  0  0  0  0
    4.4390    3.3403  -18.9802 C   0  0  1  0  0  0  0  0  0  0  0  0
    6.8290   -4.2793  -15.1411 C   0  0  0  0  0  0  0  0  0  0  0  0
    5.6567    0.0422  -20.7035 C   0  0  0  0  0  0  0  0  0  0  0  0
    5.3680    2.1286  -19.2115 C   0  0  1  0  0  0  0  0  0  0  0  0
    4.9068    7.7818  -19.7232 N   0  0  0  0  0  0  0  0  0  0  0  0
    5.5732   -3.1715  -18.6097 N   0  0  0  0  0  0  0  0  0  0  0  0
    6.4409   -0.8161  -16.1234 N   0  0  0  0  0  0  0  0  0  0  0  0
    5.6200    1.3754  -17.9724 N   0  0  0  0  0  0  0  0  0  0  0  0
    6.6763    6.5996  -18.9526 O   0  0  0  0  0  0  0  0  0  0  0  0
    4.1309   -3.7888  -20.2174 O   0  0  0  0  0  0  0  0  0  0  0  0
    7.8060   -1.5888  -17.8030 O   0  0  0  0  0  0  0  0  0  0  0  0
    7.8048    1.9830  -17.7388 O   0  0  0  0  0  0  0  0  0  0  0  0
    3.1506    2.9256  -18.5214 O   0  0  0  0  0  0  0  0  0  0  0  0
    9.8287    0.3637  -13.0312 S   0  0  0  0  0  0  0  0  0  0  0  0
    5.9423    5.9362  -15.8593 H   0  0  0  0  0  0  0  0  0  0  0  0
    4.4119    5.6563  -14.9615 H   0  0  0  0  0  0  0  0  0  0  0  0
    3.0620    6.3989  -16.7811 H   0  0  0  0  0  0  0  0  0  0  0  0
    4.4835    7.4857  -16.9385 H   0  0  0  0  0  0  0  0  0  0  0  0
    5.5971    3.5439  -16.0753 H   0  0  0  0  0  0  0  0  0  0  0  0
    3.8315    3.7440  -16.3382 H   0  0  0  0  0  0  0  0  0  0  0  0
    3.5617    5.6866  -18.9169 H   0  0  0  0  0  0  0  0  0  0  0  0
    6.1550    4.4197  -18.2038 H   0  0  0  0  0  0  0  0  0  0  0  0
    2.6099   -4.9399  -18.5959 H   0  0  0  0  0  0  0  0  0  0  0  0
    3.9862   -5.2265  -17.4779 H   0  0  0  0  0  0  0  0  0  0  0  0
    3.0074   -3.7274  -17.3318 H   0  0  0  0  0  0  0  0  0  0  0  0
    7.0132   11.1060  -23.4093 H   0  0  0  0  0  0  0  0  0  0  0  0
    7.2306    9.6143  -22.4326 H   0  0  0  0  0  0  0  0  0  0  0  0
    5.9420    9.6901  -23.6818 H   0  0  0  0  0  0  0  0  0  0  0  0
    8.4424   -2.8300  -15.2469 H   0  0  0  0  0  0  0  0  0  0  0  0
    8.3999   -3.7855  -13.7265 H   0  0  0  0  0  0  0  0  0  0  0  0
    8.9811   -4.5436  -15.2478 H   0  0  0  0  0  0  0  0  0  0  0  0
    5.5741   -6.0131  -14.7566 H   0  0  0  0  0  0  0  0  0  0  0  0
    7.3182   -6.3902  -14.9629 H   0  0  0  0  0  0  0  0  0  0  0  0
    6.7369   -5.6321  -13.4416 H   0  0  0  0  0  0  0  0  0  0  0  0
    7.4974    1.2015  -20.6692 H   0  0  0  0  0  0  0  0  0  0  0  0
    7.5722   -0.2798  -21.6824 H   0  0  0  0  0  0  0  0  0  0  0  0
    6.6746    1.1628  -22.2654 H   0  0  0  0  0  0  0  0  0  0  0  0
    3.9694   -1.2181  -21.2242 H   0  0  0  0  0  0  0  0  0  0  0  0
    4.6201   -0.2456  -22.5870 H   0  0  0  0  0  0  0  0  0  0  0  0
    5.5177   -1.6882  -22.0040 H   0  0  0  0  0  0  0  0  0  0  0  0
   11.7877   -1.0459  -13.3431 H   0  0  0  0  0  0  0  0  0  0  0  0
   10.2636   -1.9813  -13.5122 H   0  0  0  0  0  0  0  0  0  0  0  0
   10.8169   -0.9165  -14.8489 H   0  0  0  0  0  0  0  0  0  0  0  0
    6.0674   11.3888  -21.1250 H   0  0  0  0  0  0  0  0  0  0  0  0
    4.7788   11.4646  -22.3742 H   0  0  0  0  0  0  0  0  0  0  0  0
    3.9859   10.1131  -20.5091 H   0  0  0  0  0  0  0  0  0  0  0  0
    4.2718    9.0393  -21.9204 H   0  0  0  0  0  0  0  0  0  0  0  0
    8.7011    1.6544  -15.3412 H   0  0  0  0  0  0  0  0  0  0  0  0
    9.0269   -0.0173  -15.9122 H   0  0  0  0  0  0  0  0  0  0  0  0
    5.9607   -5.1624  -16.9267 H   0  0  0  0  0  0  0  0  0  0  0  0
    7.5860   -4.4379  -17.1719 H   0  0  0  0  0  0  0  0  0  0  0  0
    4.4609    1.7901  -21.1437 H   0  0  0  0  0  0  0  0  0  0  0  0
    3.8142    0.7570  -19.8242 H   0  0  0  0  0  0  0  0  0  0  0  0
    6.4839    8.3860  -20.9636 H   0  0  0  0  0  0  0  0  0  0  0  0
    6.1736    9.4413  -19.5434 H   0  0  0  0  0  0  0  0  0  0  0  0
    7.4444    0.6528  -13.3666 H   0  0  0  0  0  0  0  0  0  0  0  0
    8.0002   -0.9684  -13.9046 H   0  0  0  0  0  0  0  0  0  0  0  0
    5.0410   -2.8407  -16.6127 H   0  0  0  0  0  0  0  0  0  0  0  0
    6.2583    1.0879  -15.3020 H   0  0  0  0  0  0  0  0  0  0  0  0
    4.3133    3.8344  -19.9549 H   0  0  0  0  0  0  0  0  0  0  0  0
    6.1178   -3.5697  -14.6931 H   0  0  0  0  0  0  0  0  0  0  0  0
    5.9316   -0.5594  -19.8246 H   0  0  0  0  0  0  0  0  0  0  0  0
    6.3233    2.4961  -19.6144 H   0  0  0  0  0  0  0  0  0  0  0  0
    3.9106    7.8479  -19.7790 H   0  0  0  0  0  0  0  0  0  0  0  0
    6.2090   -2.8505  -19.3116 H   0  0  0  0  0  0  0  0  0  0  0  0
    5.7480   -1.1067  -15.4635 H   0  0  0  0  0  0  0  0  0  0  0  0
    4.8592    0.8673  -17.5687 H   0  0  0  0  0  0  0  0  0  0  0  0
    2.7910    2.2845  -19.1231 H   0  0  0  0  0  0  0  0  0  0  0  0
  1  8  1  0
  1 30  1  0
  1 34  2  0
  2 10  1  0
  2 31  1  0
  2 35  2  0
  3 24  1  0
  3 32  1  0
  3 36  2  0
  4 25  1  0
  4 33  1  0
  4 37  2  0
  5  6  1  0
  5  7  1  0
  6  8  1  0
  7  9  1  0
  8  9  1  0
  9 26  1  0
 11 17  1  0
 12 27  1  0
 13 27  1  0
 14 28  1  0
 15 28  1  0
 16 39  1  0
 17 18  1  0
 18 22  1  0
 19 23  1  0
 19 25  1  0
 20 24  1  0
 20 27  1  0
 21 28  1  0
 21 29  1  0
 22 30  1  0
 23 39  1  0
 24 31  1  0
 25 32  1  0
 26 29  1  0
 26 38  1  0
 29 33  1  0
  5 40  1  0
  5 41  1  0
  6 42  1  0
  6 43  1  0
  7 44  1  0
  7 45  1  0
  8 46  1  6
  9 47  1  1
 10 48  1  0
 10 49  1  0
 10 50  1  0
 11 51  1  0
 11 52  1  0
 11 53  1  0
 12 54  1  0
 12 55  1  0
 12 56  1  0
 13 57  1  0
 13 58  1  0
 13 59  1  0
 14 60  1  0
 14 61  1  0
 14 62  1  0
 15 63  1  0
 15 64  1  0
 15 65  1  0
 16 66  1  0
 16 67  1  0
 16 68  1  0
 17 69  1  0
 17 70  1  0
 18 71  1  0
 18 72  1  0
 19 73  1  0
 19 74  1  0
 20 75  1  0
 20 76  1  0
 21 77  1  0
 21 78  1  0
 22 79  1  0
 22 80  1  0
 23 81  1  0
 23 82  1  0
 24 83  1  1
 25 84  1  1
 26 85  1  6
 27 86  1  0
 28 87  1  0
 29 88  1  6
 30 89  1  0
 31 90  1  0
 32 91  1  0
 33 92  1  0
 38 93  1  0
M  END
>  <OMEGA_C>  (253) 
eK+uQN181kDRn5jB+wKMQHC+b8CsJ5jBlsTaQAhO4b/cjIjBp0PbQNbrqT+6oYrBd7mcQAJNs0Di
Jn/BCqSEQK4QzkDRwIfBp06aQM3/hUAdI4TBQH2PQNWUuUAwoJLBlzyiQNONjECBNJDBfE5bQGXC
jsBhSZDBgMzPQOhCJEE1ZbfBZUAEQVrxdMCAFG3BryHTQPO8tcAlgmjBCSzeQLvYET+QB6vBS1qc
QAQcV7/hmq3B+UosQY53hL8NGlzBhjywQHn0LEHz/a7BPR+YQMnXGkGqUqnBdlMFQbssHj+deXXB
6o3TQMLwicDObYXBDTqXQMi+mD9WEaLByoW2QCI2DUEMmaLBp9EDQSDH1z3fUl7B7X2+QOO/QMAg
oYnBAgHeQO2HET/h5n/BqQyOQKzHVUBm15fBkIfaQB7wiMAFQnLBywO1QADxLD3coKXBb8arQJ46
CEASsZnBvASdQOkE+UAhyZ3BYleyQEv6SsCw4JTBkhvOQFztUL+n/IDBBtezQDANsD98x4/BAKTV
QNgv00D1npfB/S+EQHd8csAqvaHB68r5QEpey7+HbI7BFsH5QD7T/T/26I3BgKNJQM09O0DZK5TB
UkIdQXQ0uj7df1DBkCe+QHz1vUCwv33BOC6NQFYAtUA+Ym/BX/dDQIPDzEDHP4bBlniPQBGL70D4
gYfBthuzQPDPYkBNmoDB8zZ1QBSeb0CotILBNvNjQEP4tUDhVZfB9PXEQClujUBroZHBCAgnQH4T
nsCAxJTBFh1/QLY/p8C40ovBz3lAQHqNbsBxp4rB72vgQDSyMUE/RrvB6GDnQDXUGUH0dbPByyS+
QMgKG0FIdL3BBxQHQX8fNcB283PB2WUGQYdFcsDMn1vBfLIPQQRlkcDJ9nPBNV+yQIFrwMDeGmzB
Sy7qQHZ8zMDhZ2/BBZXXQDU6tMDjEFfBuervQBLKmT+JWqXByk/yQMM+j76oda3BMpbVQNbWlD+N
H7LBLAp+QCzsm78zy6nBlteTQCN4e74csrTBLpGwQIwV2L83CLDBT5o8Qf/fhb9ufVXBrjckQQ+b
/b8SMljBNxItQU+far8KlW3B8ifCQJs4NkH6/6jB1euYQC5vN0FO/rLB9Rh/QHHPIUGkEqTBTLKI
QCShEEETXa/BvDcLQYzD0z/BdXXBUG4QQYiqjbwrmH7B8r2+QDEypcDcaYfBlsDyQDkDjsABYInB
17+OQCIi5T9UJqnBdRx0QKbHQT8BmJ7BHnzPQBUtBkFxtafBQI7FQG0PF0H7WJzBvDjuQM0bJz9r
3VXByQAAQUTrd79EeV7B40+hQCzONcDP5oTB2EPIQEBAiz/v1HTBiAaKQBFmdUCoo5/BasXDQJh2
ZMAGF2vBfc+9QB02D7/cmJ7BPVjKQMW/H0BC6pzB2UZ6QAQi+0ByO57BgrDGQIluNsAVfprBWe+3
QOqmjb9QanfBsn6bQHQEXj+mjIzBB58yQO40EkAo/JjB

>  <OMEGA_E>  (253) 
4CwpPw==

>  <OMEGA_NBR>  (253) 
      1823

$$$$
29105
     RDKit          3D

 89 89  0  0  1  0  0  0  0  0999 V2000
    5.5083    6.9479  -18.9432 C   0  0  0  0  0  0  0  0  0  0  0  0
    7.5252   -4.7643  -14.5731 C   0  0  0  0  0  0  0  0  0  0  0  0
    6.0914   -2.1534  -16.0857 C   0  0  0  0  0  0  0  0  0  0  0  0
    6.7182    1.1789  -17.4365 C   0  0  0  0  0  0  0  0  0  0  0  0
    4.8828   10.1646  -20.8525 C   0  0  0  0  0  0  0  0  0  0  0  0
    5.0228    5.6085  -15.8757 C   0  0  0  0  0  0  0  0  0  0  0  0
    4.2283    6.5122  -16.8120 C   0  0  0  0  0  0  0  0  0  0  0  0
    4.9359    4.2382  -16.5381 C   0  0  0  0  0  0  0  0  0  0  0  0
    4.5289    5.9861  -18.2316 C   0  0  2  0  0  0  0  0  0  0  0  0
    5.1087    4.5451  -18.0431 C   0  0  2  0  0  0  0  0  0  0  0  0
    7.4304   -5.9197  -13.5849 C   0  0  0  0  0  0  0  0  0  0  0  0
    6.4699    8.4210  -21.6327 C   0  0  0  0  0  0  0  0  0  0  0  0
    3.9838   -4.1747  -19.4908 C   0  0  0  0  0  0  0  0  0  0  0  0
    6.3472   -3.2945  -19.4824 C   0  0  0  0  0  0  0  0  0  0  0  0
    6.8143    0.6071  -21.3758 C   0  0  0  0  0  0  0  0  0  0  0  0
    4.6972   -0.7056  -21.7153 C   0  0  0  0  0  0  0  0  0  0  0  0
   10.5167   -0.9011  -13.6592 C   0  0  0  0  0  0  0  0  0  0  0  0
    7.9834    0.6078  -15.3153 C   0  0  0  0  0  0  0  0  0  0  0  0
    5.2774   -4.2002  -17.3684 C   0  0  0  0  0  0  0  0  0  0  0  0
    4.6176    1.3418  -20.2722 C   0  0  0  0  0  0  0  0  0  0  0  0
    7.8753   -0.1051  -13.9587 C   0  0  0  0  0  0  0  0  0  0  0  0
    6.3858   -3.6069  -16.4840 C   0  0  2  0  0  0  0  0  0  0  0  0
    6.7696    0.2755  -16.2045 C   0  0  2  0  0  0  0  0  0  0  0  0
    5.7813    9.0090  -20.3876 C   0  0  2  0  0  0  0  0  0  0  0  0
    4.4254    3.5278  -19.0048 C   0  0  1  0  0  0  0  0  0  0  0  0
    5.0423   -3.4185  -18.6697 C   0  0  0  0  0  0  0  0  0  0  0  0
    5.4994    0.1434  -20.7091 C   0  0  0  0  0  0  0  0  0  0  0  0
    5.2871    2.2557  -19.2179 C   0  0  1  0  0  0  0  0  0  0  0  0
    4.9737    7.9806  -19.7036 N   0  0  0  0  0  0  0  0  0  0  0  0
    6.3999   -4.4689  -15.3117 N   0  0  0  0  0  0  0  0  0  0  0  0
    6.8472   -1.1286  -16.6473 N   0  0  0  0  0  0  0  0  0  0  0  0
    5.4740    1.4921  -17.9717 N   0  0  0  0  0  0  0  0  0  0  0  0
    3.6495    9.9683  -21.0293 O   0  0  0  0  0  0  0  0  0  0  0  0
    6.7164    6.8866  -18.7354 O   0  0  0  0  0  0  0  0  0  0  0  0
    8.6051   -4.2306  -14.8039 O   0  0  0  0  0  0  0  0  0  0  0  0
    5.1624   -1.9091  -15.3232 O   0  0  0  0  0  0  0  0  0  0  0  0
    7.7536    1.6155  -17.9294 O   0  0  0  0  0  0  0  0  0  0  0  0
    5.4199   11.2693  -21.1326 O   0  0  0  0  0  0  0  0  0  0  0  0
    3.1129    3.1834  -18.5526 O   0  0  0  0  0  0  0  0  0  0  0  0
    9.3340    0.3045  -12.9357 S   0  0  0  0  0  0  0  0  0  0  0  0
    6.0681    5.9427  -15.8010 H   0  0  0  0  0  0  0  0  0  0  0  0
    4.5716    5.5889  -14.8727 H   0  0  0  0  0  0  0  0  0  0  0  0
    3.1522    6.4427  -16.5945 H   0  0  0  0  0  0  0  0  0  0  0  0
    4.5562    7.5572  -16.7102 H   0  0  0  0  0  0  0  0  0  0  0  0
    5.7382    3.5774  -16.1782 H   0  0  0  0  0  0  0  0  0  0  0  0
    3.9599    3.7698  -16.3431 H   0  0  0  0  0  0  0  0  0  0  0  0
    3.5927    5.9266  -18.8060 H   0  0  0  0  0  0  0  0  0  0  0  0
    6.1839    4.5723  -18.2734 H   0  0  0  0  0  0  0  0  0  0  0  0
    8.4288   -6.1373  -13.1775 H   0  0  0  0  0  0  0  0  0  0  0  0
    6.7514   -5.6453  -12.7641 H   0  0  0  0  0  0  0  0  0  0  0  0
    7.0422   -6.8112  -14.0994 H   0  0  0  0  0  0  0  0  0  0  0  0
    7.1228    7.5882  -21.3324 H   0  0  0  0  0  0  0  0  0  0  0  0
    5.7067    8.0538  -22.3346 H   0  0  0  0  0  0  0  0  0  0  0  0
    7.0722    9.2012  -22.1212 H   0  0  0  0  0  0  0  0  0  0  0  0
    3.0564   -4.2594  -18.9054 H   0  0  0  0  0  0  0  0  0  0  0  0
    3.7807   -3.6251  -20.4218 H   0  0  0  0  0  0  0  0  0  0  0  0
    4.3576   -5.1806  -19.7329 H   0  0  0  0  0  0  0  0  0  0  0  0
    7.0991   -2.7530  -18.8894 H   0  0  0  0  0  0  0  0  0  0  0  0
    6.7251   -4.2988  -19.7245 H   0  0  0  0  0  0  0  0  0  0  0  0
    6.1483   -2.7433  -20.4133 H   0  0  0  0  0  0  0  0  0  0  0  0
    7.3929    1.2139  -20.6638 H   0  0  0  0  0  0  0  0  0  0  0  0
    7.4048   -0.2723  -21.6725 H   0  0  0  0  0  0  0  0  0  0  0  0
    6.5812    1.2096  -22.2661 H   0  0  0  0  0  0  0  0  0  0  0  0
    3.7591   -1.0398  -21.2481 H   0  0  0  0  0  0  0  0  0  0  0  0
    4.4683   -0.1005  -22.6050 H   0  0  0  0  0  0  0  0  0  0  0  0
    5.2919   -1.5824  -22.0113 H   0  0  0  0  0  0  0  0  0  0  0  0
   11.4908   -0.8067  -13.1569 H   0  0  0  0  0  0  0  0  0  0  0  0
   10.1304   -1.9217  -13.5209 H   0  0  0  0  0  0  0  0  0  0  0  0
   10.6370   -0.6971  -14.7334 H   0  0  0  0  0  0  0  0  0  0  0  0
    8.0228    1.6946  -15.1498 H   0  0  0  0  0  0  0  0  0  0  0  0
    8.9029    0.2807  -15.8227 H   0  0  0  0  0  0  0  0  0  0  0  0
    5.5554   -5.2322  -17.6283 H   0  0  0  0  0  0  0  0  0  0  0  0
    4.3400   -4.2069  -16.7929 H   0  0  0  0  0  0  0  0  0  0  0  0
    4.3892    1.9473  -21.1617 H   0  0  0  0  0  0  0  0  0  0  0  0
    3.6827    0.9480  -19.8468 H   0  0  0  0  0  0  0  0  0  0  0  0
    6.9616    0.2251  -13.4429 H   0  0  0  0  0  0  0  0  0  0  0  0
    7.8335   -1.1926  -14.1186 H   0  0  0  0  0  0  0  0  0  0  0  0
    7.3476   -3.6564  -17.0154 H   0  0  0  0  0  0  0  0  0  0  0  0
    5.8519    0.4252  -15.6168 H   0  0  0  0  0  0  0  0  0  0  0  0
    6.5482    9.4008  -19.7033 H   0  0  0  0  0  0  0  0  0  0  0  0
    4.3373    4.0230  -19.9831 H   0  0  0  0  0  0  0  0  0  0  0  0
    4.6669   -2.4130  -18.4288 H   0  0  0  0  0  0  0  0  0  0  0  0
    5.7377   -0.4691  -19.8270 H   0  0  0  0  0  0  0  0  0  0  0  0
    6.2694    2.5658  -19.6039 H   0  0  0  0  0  0  0  0  0  0  0  0
    3.9789    8.0302  -19.7929 H   0  0  0  0  0  0  0  0  0  0  0  0
    5.5331   -4.8750  -15.0220 H   0  0  0  0  0  0  0  0  0  0  0  0
    7.4763   -1.3567  -17.3904 H   0  0  0  0  0  0  0  0  0  0  0  0
    4.6589    1.1813  -17.4828 H   0  0  0  0  0  0  0  0  0  0  0  0
    2.7218    2.5634  -19.1569 H   0  0  0  0  0  0  0  0  0  0  0  0
  1  9  1  0
  1 29  1  0
  1 34  2  0
  2 11  1  0
  2 30  1  0
  2 35  2  0
  3 22  1  0
  3 31  1  0
  3 36  2  0
  4 23  1  0
  4 32  1  0
  4 37  2  0
  5 24  1  0
  5 33  1  0
  5 38  2  0
  6  7  1  0
  6  8  1  0
  7  9  1  0
  8 10  1  0
  9 10  1  0
 10 25  1  0
 12 24  1  0
 13 26  1  0
 14 26  1  0
 15 27  1  0
 16 27  1  0
 17 40  1  0
 18 21  1  0
 18 23  1  0
 19 22  1  0
 19 26  1  0
 20 27  1  0
 20 28  1  0
 21 40  1  0
 22 30  1  0
 23 31  1  0
 24 29  1  0
 25 28  1  0
 25 39  1  0
 28 32  1  0
  6 41  1  0
  6 42  1  0
  7 43  1  0
  7 44  1  0
  8 45  1  0
  8 46  1  0
  9 47  1  6
 10 48  1  6
 11 49  1  0
 11 50  1  0
 11 51  1  0
 12 52  1  0
 12 53  1  0
 12 54  1  0
 13 55  1  0
 13 56  1  0
 13 57  1  0
 14 58  1  0
 14 59  1  0
 14 60  1  0
 15 61  1  0
 15 62  1  0
 15 63  1  0
 16 64  1  0
 16 65  1  0
 16 66  1  0
 17 67  1  0
 17 68  1  0
 17 69  1  0
 18 70  1  0
 18 71  1  0
 19 72  1  0
 19 73  1  0
 20 74  1  0
 20 75  1  0
 21 76  1  0
 21 77  1  0
 22 78  1  6
 23 79  1  1
 24 80  1  1
 25 81  1  6
 26 82  1  0
 27 83  1  0
 28 84  1  6
 29 85  1  0
 30 86  1  0
 31 87  1  0
 32 88  1  0
 39 89  1  0
M  CHG  1  33  -1
M  END
>  <OMEGA_C>  (254) 
5UOwQPBU3kCii5fBnM7wQDR1mMBtK2nBoOzCQLzQCcCMr4DBG/vWQKfklj/xfYvBH0CcQGOiIkHj
0abBvbqgQJ54s0DGAn7B8k2HQOhj0EASf4bB9fKdQLCfh0DuTYTBxuyQQHOOv0A42pHBHnqjQLBx
kUA0WJDB+MXtQHRuvcC4W1nBfgnPQJW8BkHCD63BSPd+QG2XhcA87ZvBlRzLQIzYUsDu25vB+Q7a
QOxqGz+zAavBPE+WQBKlNL8Dua3Bi0QoQQOxZr8rjFrB7nf/QNqaGz9vC3XBcuCoQNJnhsBi8orB
L8OTQHe/qz91LaLB0QL8QJAy173mVl/BeVjMQALXZsBH34PBqqDYQAANjT7NooHBYAC5QKkkEEHf
GaPB8JyNQJbHYUDWCZjBfFqhQLLIWsB2W5XBMvuvQAjQEj4krKXB+i+pQP5dEEBTvpnBhyifQFxh
/0DuoJ3BrcvMQFgBj8CY/HTBhxzbQL12kL+lLYXBtyqvQLP8vj8Gxo/BbpFpQBZ+H0EPPKjBvezW
QPZe3EAL4pXBr64JQfZgh8DI3GzBqDKlQCVe9L8DLHXBZR34QPfIzj9mb4/BtW+tQDFPNEGqD6nB
0DlHQCS9S0DPa5TB61cVQRzkmz6B+E7BCy7CQL4qvkDq0HzBVkqSQOnXskB59m3BCr5JQMkqzkCd
wYTBesyRQMTU8UCCroXBpZ+3QIDzZEDtbIHBNm99QN1EcUCXvoLBCO9lQA+nvUC6cpbBseLFQGxQ
kkD7L5LBLNwGQcZkxMDx1lLBmQvYQECmtMDmOUzBDVrhQPr02cAHl2HByO3jQMfS8kC2qKrBbZ22
QEPcAEE8rbLBhk/iQBA4E0En+LDBxpxDQPxMiMA3PpfBP/dxQFYCaMDYX6PBV3GLQDvHpcAN3Z3B
gyvjQJExMMCLHZfBWzTXQGCPicC1y53Bo77EQJ+SL8CATqPBCZPsQDpimz+ET6XBX/TsQMFmi75M
Ya3BMpnSQMDTmj8RIbLBF5VwQMoZhb8T/KnBFPyOQEDlzb371rTBQFepQMSLyr82F7DBIto3QYCB
Tr+IglLBRhYiQcX79b+OVVjBNTEqQS9zMr8PvGvBN10AQXno2D94ZXLBQHIOQW20jz7aKX3B9MWx
QE5up8DaBo3BHOGKQK+ehsDCV4bBh3SMQLA/+T80S6nBXLFrQFiycj86xp7BXMXeQDaKZj5RFlfB
LKz6QBCnmL+W5WHB7h/rQBUCasCbH4jBpEK7QNOt2T5v3nnBC4vRQM9pFkFyoJ3BdcuKQDy8gEBf
3Z/BYFeVQBVuGsA/bpPBfJu3QN8u8L6hnZ7B557IQLI2JEC11JzByaZ+QK97AEHmV57BYg+xQJj/
m8AiWnDBkD3vQEyprb+iH4vBlRWVQMYzlz+63IvBTzIuQG8PJEBsQZnB

>  <OMEGA_E>  (254) 
RB8iPw==

>  <OMEGA_NBR>  (254) 
      3588

$$$$
50161010
     RDKit          3D

 89 88  0  0  1  0  0  0  0  0999 V2000
    7.0794   -4.5704  -14.8772 C   0  0  0  0  0  0  0  0  0  0  0  0
    5.4577    6.5424  -18.8368 C   0  0  0  0  0  0  0  0  0  0  0  0
    6.1193   -1.7367  -15.8967 C   0  0  0  0  0  0  0  0  0  0  0  0
    6.8343    1.4646  -17.3364 C   0  0  0  0  0  0  0  0  0  0  0  0
    6.9133   -5.7156  -13.8816 C   0  0  0  0  0  0  0  0  0  0  0  0
    6.5290   10.1359  -22.7991 C   0  0  0  0  0  0  0  0  0  0  0  0
    4.6308    6.4567  -16.4814 C   0  0  0  0  0  0  0  0  0  0  0  0
    6.0339   -4.4312  -19.2579 C   0  0  0  0  0  0  0  0  0  0  0  0
    3.5843   -3.9581  -19.4950 C   0  0  0  0  0  0  0  0  0  0  0  0
    6.8864    0.4767  -21.2596 C   0  0  0  0  0  0  0  0  0  0  0  0
    4.7503   -0.7918  -21.6399 C   0  0  0  0  0  0  0  0  0  0  0  0
   10.7200   -0.9030  -13.7654 C   0  0  0  0  0  0  0  0  0  0  0  0
    5.0439    9.8863  -22.4858 C   0  0  0  0  0  0  0  0  0  0  0  0
    4.8059    9.5422  -21.0032 C   0  0  0  0  0  0  0  0  0  0  0  0
    8.2648    0.8957  -15.2973 C   0  0  0  0  0  0  0  0  0  0  0  0
    4.9938    4.2880  -17.7243 C   0  0  0  0  0  0  0  0  0  0  0  0
    4.7848   -3.0600  -17.4960 C   0  0  0  0  0  0  0  0  0  0  0  0
    4.6716    1.3031  -20.2600 C   0  0  0  0  0  0  0  0  0  0  0  0
    5.6140    8.3068  -20.5814 C   0  0  0  0  0  0  0  0  0  0  0  0
    8.1982    0.2320  -13.9135 C   0  0  0  0  0  0  0  0  0  0  0  0
    4.5582    5.7683  -17.8519 C   0  0  2  0  0  0  0  0  0  0  0  0
    6.0445   -3.0786  -16.6034 C   0  0  2  0  0  0  0  0  0  0  0  0
    6.9603    0.6303  -16.0676 C   0  0  2  0  0  0  0  0  0  0  0  0
    4.7108   -4.2425  -18.4849 C   0  0  0  0  0  0  0  0  0  0  0  0
    5.5353    0.0682  -20.6331 C   0  0  0  0  0  0  0  0  0  0  0  0
    5.3391    2.2298  -19.2143 C   0  0  1  0  0  0  0  0  0  0  0  0
    4.4481    3.4609  -18.9130 C   0  0  1  0  0  0  0  0  0  0  0  0
    4.9287    7.6476  -19.4757 N   0  0  0  0  0  0  0  0  0  0  0  0
    5.9904   -4.1936  -15.6542 N   0  0  0  0  0  0  0  0  0  0  0  0
    6.9105   -0.7682  -16.4886 N   0  0  0  0  0  0  0  0  0  0  0  0
    5.6075    1.4656  -17.9883 N   0  0  0  0  0  0  0  0  0  0  0  0
    8.1796   -4.0471  -15.0249 O   0  0  0  0  0  0  0  0  0  0  0  0
    6.6339    6.2326  -19.0052 O   0  0  0  0  0  0  0  0  0  0  0  0
    5.3799   -1.4832  -14.9511 O   0  0  0  0  0  0  0  0  0  0  0  0
    7.8008    2.0711  -17.7882 O   0  0  0  0  0  0  0  0  0  0  0  0
    3.1124    3.0671  -18.5930 O   0  0  0  0  0  0  0  0  0  0  0  0
    9.7751    0.4898  -13.0309 S   0  0  0  0  0  0  0  0  0  0  0  0
    7.8794   -5.9262  -13.3997 H   0  0  0  0  0  0  0  0  0  0  0  0
    6.1760   -5.4319  -13.1162 H   0  0  0  0  0  0  0  0  0  0  0  0
    6.5645   -6.6142  -14.4115 H   0  0  0  0  0  0  0  0  0  0  0  0
    6.6437   10.3767  -23.8663 H   0  0  0  0  0  0  0  0  0  0  0  0
    6.8953   10.9770  -22.1922 H   0  0  0  0  0  0  0  0  0  0  0  0
    7.1104    9.2325  -22.5626 H   0  0  0  0  0  0  0  0  0  0  0  0
    3.9940    5.9169  -15.7651 H   0  0  0  0  0  0  0  0  0  0  0  0
    5.6709    6.4518  -16.1234 H   0  0  0  0  0  0  0  0  0  0  0  0
    4.2798    7.4951  -16.5738 H   0  0  0  0  0  0  0  0  0  0  0  0
    6.8484   -4.6353  -18.5472 H   0  0  0  0  0  0  0  0  0  0  0  0
    5.9343   -5.2771  -19.9540 H   0  0  0  0  0  0  0  0  0  0  0  0
    6.2618   -3.5157  -19.8235 H   0  0  0  0  0  0  0  0  0  0  0  0
    2.6346   -3.8214  -18.9570 H   0  0  0  0  0  0  0  0  0  0  0  0
    3.8205   -3.0442  -20.0598 H   0  0  0  0  0  0  0  0  0  0  0  0
    3.4929   -4.8056  -20.1903 H   0  0  0  0  0  0  0  0  0  0  0  0
    7.4519    1.0918  -20.5441 H   0  0  0  0  0  0  0  0  0  0  0  0
    7.4650   -0.4263  -21.5042 H   0  0  0  0  0  0  0  0  0  0  0  0
    6.7049    1.0556  -22.1772 H   0  0  0  0  0  0  0  0  0  0  0  0
    3.7865   -1.0859  -21.1987 H   0  0  0  0  0  0  0  0  0  0  0  0
    4.5717   -0.2112  -22.5570 H   0  0  0  0  0  0  0  0  0  0  0  0
    5.3319   -1.6931  -21.8839 H   0  0  0  0  0  0  0  0  0  0  0  0
   11.7365   -0.9191  -13.3453 H   0  0  0  0  0  0  0  0  0  0  0  0
   10.2131   -1.8517  -13.5350 H   0  0  0  0  0  0  0  0  0  0  0  0
   10.7762   -0.7729  -14.8563 H   0  0  0  0  0  0  0  0  0  0  0  0
    4.4733   10.7935  -22.7338 H   0  0  0  0  0  0  0  0  0  0  0  0
    4.6883    9.0490  -23.1042 H   0  0  0  0  0  0  0  0  0  0  0  0
    5.1102   10.3983  -20.3832 H   0  0  0  0  0  0  0  0  0  0  0  0
    3.7357    9.3401  -20.8494 H   0  0  0  0  0  0  0  0  0  0  0  0
    8.4024    1.9802  -15.1756 H   0  0  0  0  0  0  0  0  0  0  0  0
    9.1126    0.4795  -15.8612 H   0  0  0  0  0  0  0  0  0  0  0  0
    6.0924    4.2327  -17.7183 H   0  0  0  0  0  0  0  0  0  0  0  0
    4.6007    3.8743  -16.7840 H   0  0  0  0  0  0  0  0  0  0  0  0
    3.8978   -3.0939  -16.8464 H   0  0  0  0  0  0  0  0  0  0  0  0
    4.7812   -2.1234  -18.0730 H   0  0  0  0  0  0  0  0  0  0  0  0
    4.4851    1.8865  -21.1737 H   0  0  0  0  0  0  0  0  0  0  0  0
    3.7147    0.9478  -19.8501 H   0  0  0  0  0  0  0  0  0  0  0  0
    5.6970    7.6125  -21.4305 H   0  0  0  0  0  0  0  0  0  0  0  0
    6.6198    8.6156  -20.2605 H   0  0  0  0  0  0  0  0  0  0  0  0
    7.3772    0.6782  -13.3331 H   0  0  0  0  0  0  0  0  0  0  0  0
    8.0185   -0.8466  -14.0335 H   0  0  0  0  0  0  0  0  0  0  0  0
    3.5204    5.8027  -18.2150 H   0  0  0  0  0  0  0  0  0  0  0  0
    6.9280   -3.1887  -17.2494 H   0  0  0  0  0  0  0  0  0  0  0  0
    6.1082    0.8516  -15.4081 H   0  0  0  0  0  0  0  0  0  0  0  0
    4.4792   -5.1645  -17.9316 H   0  0  0  0  0  0  0  0  0  0  0  0
    5.7247   -0.5229  -19.7249 H   0  0  0  0  0  0  0  0  0  0  0  0
    6.2910    2.5893  -19.6322 H   0  0  0  0  0  0  0  0  0  0  0  0
    4.4416    4.1052  -19.8046 H   0  0  0  0  0  0  0  0  0  0  0  0
    4.0471    8.0072  -19.1699 H   0  0  0  0  0  0  0  0  0  0  0  0
    5.1354   -4.7040  -15.5617 H   0  0  0  0  0  0  0  0  0  0  0  0
    7.4878   -1.0441  -17.2571 H   0  0  0  0  0  0  0  0  0  0  0  0
    4.8666    0.9161  -17.6021 H   0  0  0  0  0  0  0  0  0  0  0  0
    2.7524    2.5562  -19.3084 H   0  0  0  0  0  0  0  0  0  0  0  0
  1  5  1  0
  1 29  1  0
  1 32  2  0
  2 21  1  0
  2 28  1  0
  2 33  2  0
  3 22  1  0
  3 30  1  0
  3 34  2  0
  4 23  1  0
  4 31  1  0
  4 35  2  0
  6 13  1  0
  7 21  1  0
  8 24  1  0
  9 24  1  0
 10 25  1  0
 11 25  1  0
 12 37  1  0
 13 14  1  0
 14 19  1  0
 15 20  1  0
 15 23  1  0
 16 21  1  0
 16 27  1  0
 17 22  1  0
 17 24  1  0
 18 25  1  0
 18 26  1  0
 19 28  1  0
 20 37  1  0
 22 29  1  0
 23 30  1  0
 26 27  1  0
 26 31  1  0
 27 36  1  0
  5 38  1  0
  5 39  1  0
  5 40  1  0
  6 41  1  0
  6 42  1  0
  6 43  1  0
  7 44  1  0
  7 45  1  0
  7 46  1  0
  8 47  1  0
  8 48  1  0
  8 49  1  0
  9 50  1  0
  9 51  1  0
  9 52  1  0
 10 53  1  0
 10 54  1  0
 10 55  1  0
 11 56  1  0
 11 57  1  0
 11 58  1  0
 12 59  1  0
 12 60  1  0
 12 61  1  0
 13 62  1  0
 13 63  1  0
 14 64  1  0
 14 65  1  0
 15 66  1  0
 15 67  1  0
 16 68  1  0
 16 69  1  0
 17 70  1  0
 17 71  1  0
 18 72  1  0
 18 73  1  0
 19 74  1  0
 19 75  1  0
 20 76  1  0
 20 77  1  0
 21 78  1  6
 22 79  1  6
 23 80  1  1
 24 81  1  0
 25 82  1  0
 26 83  1  6
 27 84  1  6
 28 85  1  0
 29 86  1  0
 30 87  1  0
 31 88  1  0
 36 89  1  0
M  END
>  <OMEGA_C>  (255) 
FIriQFFAksAzCW7BO6WuQFdb0UDXsZbBN9HDQMtL3r/CWH7BjLLaQOR2uz/ksIrByTndQEjmtsAa
G17BrO3QQLksIkGMZLbB2C+UQK+dzkD42YPB5hXBQJfMjcAYEJrB9WRlQMBRfcC49ZvBqV3cQF4X
9D6iE6rBawKYQGq1Sr+BHq3BIIUrQWosZ79DP1zBomehQG0uHkHg4rPBQsqZQLasGEGGBqjBejwE
QXZLZT/SwXTBf82fQKU3iUBny43BLh2ZQCnXQ8Dm94vBxn2VQIbMpj99FKLBnaWzQKzoBEGjpqTB
7isDQWOSbT6YnV7B2tyRQAKWuEDD0I7B5mzBQIwHRcCw04TB9LreQPFaIT+MioDB1L6WQCvCh8Ap
4ZPBViGxQE6aiz2PEKXB0tmqQHK1DkDTtpnBkFaOQCt/XUDsTZfBm7edQGq59EBRzpvB/7C/QPkx
hsCOd3rBlCLdQNSoRL+Z6IPBDHGzQAyYuz8K6I/Bft8CQRKCgcABZnDBgEjUQB9xx0CQCpjBaSis
QK3avb/PN2/B1p/5QKiNBEAoTo7BYDJHQBVMRECEvpTBnWYcQcLI+j6+flDBSyT8QByjvcARZVbB
uqHFQObRrcDz21HBABDSQOin08BtlWbBUpnUQOEGJkEj7r7BpqbcQNOhL0GLibHBE4jjQHK4E0E6
gLTBa55/QF9XvUAEPnzBSni1QOB0zkC9/IDBTfSIQC7Y70Ail4TB8iXbQL5UlMC6YJTBtOW9QMjd
qMDLoZ/B7mDIQKUBYcB5lp7BqJ0oQIuRdMDmp5fBaoJ0QGDUQsBxeqDB9otfQCXHmcDDhaHBCHbu
QBjAiz9KWqTBp+HuQJ892r6BCKzBP47WQEUdhz/darHBQ1ZyQED9ir/hlqnBLkuSQFBOWL6mdLTB
lp6qQHe22L9LEq/BqMg7QUVIa794hlXB+mgjQUEE7b9ej1jBgWssQSzcRb9Ks23BXyWPQCOyLEHA
3rXBzAaWQMLIEEFv1bjBlIajQIpfJkG3EKPB6xRvQOJwFUGoy6bBQHAGQRZ4/T81z3LBO80RQXh+
9T5ox33BKPXCQHByh0ALv43B5ziTQAb0d0CYRYbB1HR5QJYCRsCExYbBvv+YQI7mB8BxlZDB1YWP
QAZ68T+7Y6nB+7xtQIilcj/4zJ7B2U22QP2Z80DDcavBW9XTQKTZCUGSFaLBBhLsQAmdLT9WVFXB
zEsAQf23WL86iWDBhE5hQH+vuUBLuJHBSLLdQMYTTMDC/onBvHbDQJ8FWj+zh3bBPFWPQFlDpcDZ
c4/BWjC3QLLdBb+fzJ3B4U/JQC23JUCuDp3BriGOQLVdg0DJb57BooGBQGIdAEH5W5nBMFWkQB+H
lsDl/HjBq5vvQBGmhb+CDorBgrubQMeGaj8c0YzBwCcwQOuYI0Czd5rB

>  <OMEGA_E>  (255) 
GJZaPg==

>  <OMEGA_NBR>  (255) 
      5347

$$$$
29148
     RDKit          3D

 85 84  0  0  1  0  0  0  0  0999 V2000
    7.0894   -4.7168  -14.9808 C   0  0  0  0  0  0  0  0  0  0  0  0
    5.4746    6.5993  -18.8485 C   0  0  0  0  0  0  0  0  0  0  0  0
    6.8020    1.4509  -17.1028 C   0  0  0  0  0  0  0  0  0  0  0  0
    6.0027   -1.8740  -15.8869 C   0  0  0  0  0  0  0  0  0  0  0  0
    7.0331   -5.7657  -13.8769 C   0  0  0  0  0  0  0  0  0  0  0  0
    6.2524    9.9626  -23.0749 C   0  0  0  0  0  0  0  0  0  0  0  0
    4.6802    6.5412  -16.4747 C   0  0  0  0  0  0  0  0  0  0  0  0
    8.1449    0.7257  -15.0127 C   0  0  0  0  0  0  0  0  0  0  0  0
    3.4321   -3.8842  -19.5643 C   0  0  0  0  0  0  0  0  0  0  0  0
    5.9226   -4.0392  -19.5125 C   0  0  0  0  0  0  0  0  0  0  0  0
    6.9344    0.6125  -21.3520 C   0  0  0  0  0  0  0  0  0  0  0  0
    4.7859   -0.6460  -21.6911 C   0  0  0  0  0  0  0  0  0  0  0  0
    7.8891   -1.2687  -17.4238 C   0  0  0  0  0  0  0  0  0  0  0  0
    5.3911   10.5551  -21.9439 C   0  0  0  0  0  0  0  0  0  0  0  0
    4.6581    9.4648  -21.1379 C   0  0  0  0  0  0  0  0  0  0  0  0
    5.1207    4.3556  -17.6773 C   0  0  0  0  0  0  0  0  0  0  0  0
    4.5895   -3.2567  -17.4402 C   0  0  0  0  0  0  0  0  0  0  0  0
    4.7790    1.3804  -20.2095 C   0  0  0  0  0  0  0  0  0  0  0  0
    5.6414    8.5590  -20.3835 C   0  0  0  0  0  0  0  0  0  0  0  0
    4.6214    5.8168  -17.8284 C   0  0  2  0  0  0  0  0  0  0  0  0
    6.8896    0.4941  -15.8900 C   0  0  2  0  0  0  0  0  0  0  0  0
    5.8807   -3.2480  -16.5881 C   0  0  2  0  0  0  0  0  0  0  0  0
    4.6391   -4.2083  -18.6636 C   0  0  0  0  0  0  0  0  0  0  0  0
    5.6178    0.1678  -20.6797 C   0  0  0  0  0  0  0  0  0  0  0  0
    5.4632    2.2408  -19.1114 C   0  0  1  0  0  0  0  0  0  0  0  0
    4.6007    3.5042  -18.8551 C   0  0  1  0  0  0  0  0  0  0  0  0
    4.8769    7.6271  -19.5575 N   0  0  0  0  0  0  0  0  0  0  0  0
    5.9085   -4.3400  -15.6164 N   0  0  0  0  0  0  0  0  0  0  0  0
    5.6446    1.4354  -17.8836 N   0  0  0  0  0  0  0  0  0  0  0  0
    6.8873   -0.9007  -16.3936 N   0  0  0  0  0  0  0  0  0  0  0  0
    8.1391   -4.1119  -15.1799 O   0  0  0  0  0  0  0  0  0  0  0  0
    6.6839    6.4062  -18.9375 O   0  0  0  0  0  0  0  0  0  0  0  0
    7.7701    2.1333  -17.4245 O   0  0  0  0  0  0  0  0  0  0  0  0
    5.2345   -1.6143  -14.9652 O   0  0  0  0  0  0  0  0  0  0  0  0
    3.2454    3.1503  -18.5733 O   0  0  0  0  0  0  0  0  0  0  0  0
    8.0139   -5.8324  -13.3833 H   0  0  0  0  0  0  0  0  0  0  0  0
    6.2697   -5.4799  -13.1383 H   0  0  0  0  0  0  0  0  0  0  0  0
    6.7747   -6.7424  -14.3121 H   0  0  0  0  0  0  0  0  0  0  0  0
    6.7538   10.7763  -23.6194 H   0  0  0  0  0  0  0  0  0  0  0  0
    7.0084    9.2888  -22.6453 H   0  0  0  0  0  0  0  0  0  0  0  0
    5.6103    9.3990  -23.7678 H   0  0  0  0  0  0  0  0  0  0  0  0
    4.0751    5.9924  -15.7380 H   0  0  0  0  0  0  0  0  0  0  0  0
    5.7235    6.5889  -16.1295 H   0  0  0  0  0  0  0  0  0  0  0  0
    4.2842    7.5612  -16.5874 H   0  0  0  0  0  0  0  0  0  0  0  0
    8.1425    0.0147  -14.1734 H   0  0  0  0  0  0  0  0  0  0  0  0
    9.0495    0.5733  -15.6196 H   0  0  0  0  0  0  0  0  0  0  0  0
    8.1344    1.7540  -14.6220 H   0  0  0  0  0  0  0  0  0  0  0  0
    2.5026   -3.9960  -18.9868 H   0  0  0  0  0  0  0  0  0  0  0  0
    3.5146   -2.8499  -19.9296 H   0  0  0  0  0  0  0  0  0  0  0  0
    3.4173   -4.5752  -20.4200 H   0  0  0  0  0  0  0  0  0  0  0  0
    6.8040   -4.2647  -18.8944 H   0  0  0  0  0  0  0  0  0  0  0  0
    5.8892   -4.7291  -20.3687 H   0  0  0  0  0  0  0  0  0  0  0  0
    5.9864   -3.0038  -19.8782 H   0  0  0  0  0  0  0  0  0  0  0  0
    7.5339    1.1942  -20.6363 H   0  0  0  0  0  0  0  0  0  0  0  0
    7.5017   -0.2748  -21.6695 H   0  0  0  0  0  0  0  0  0  0  0  0
    6.7057    1.2349  -22.2297 H   0  0  0  0  0  0  0  0  0  0  0  0
    3.8455   -0.9668  -21.2192 H   0  0  0  0  0  0  0  0  0  0  0  0
    4.5614   -0.0212  -22.5681 H   0  0  0  0  0  0  0  0  0  0  0  0
    5.3574   -1.5309  -22.0079 H   0  0  0  0  0  0  0  0  0  0  0  0
    8.4829   -0.3823  -17.6917 H   0  0  0  0  0  0  0  0  0  0  0  0
    8.5544   -2.0490  -17.0259 H   0  0  0  0  0  0  0  0  0  0  0  0
    7.3729   -1.6480  -18.3181 H   0  0  0  0  0  0  0  0  0  0  0  0
    6.0426   11.1217  -21.2623 H   0  0  0  0  0  0  0  0  0  0  0  0
    4.6445   11.2320  -22.3848 H   0  0  0  0  0  0  0  0  0  0  0  0
    3.9889    9.9481  -20.4109 H   0  0  0  0  0  0  0  0  0  0  0  0
    4.0645    8.8487  -21.8294 H   0  0  0  0  0  0  0  0  0  0  0  0
    6.2206    4.3434  -17.6748 H   0  0  0  0  0  0  0  0  0  0  0  0
    4.7472    3.9375  -16.7309 H   0  0  0  0  0  0  0  0  0  0  0  0
    3.7536   -3.5670  -16.7960 H   0  0  0  0  0  0  0  0  0  0  0  0
    4.4110   -2.2346  -17.8056 H   0  0  0  0  0  0  0  0  0  0  0  0
    4.5843    2.0236  -21.0803 H   0  0  0  0  0  0  0  0  0  0  0  0
    3.8252    1.0057  -19.8097 H   0  0  0  0  0  0  0  0  0  0  0  0
    6.2557    7.9982  -21.1033 H   0  0  0  0  0  0  0  0  0  0  0  0
    6.2937    9.1717  -19.7439 H   0  0  0  0  0  0  0  0  0  0  0  0
    3.5785    5.7989  -18.1778 H   0  0  0  0  0  0  0  0  0  0  0  0
    5.9991    0.6508  -15.2635 H   0  0  0  0  0  0  0  0  0  0  0  0
    6.7364   -3.3556  -17.2708 H   0  0  0  0  0  0  0  0  0  0  0  0
    4.5671   -5.2496  -18.3167 H   0  0  0  0  0  0  0  0  0  0  0  0
    5.8521   -0.4660  -19.8117 H   0  0  0  0  0  0  0  0  0  0  0  0
    6.4468    2.5616  -19.4851 H   0  0  0  0  0  0  0  0  0  0  0  0
    4.6352    4.1251  -19.7625 H   0  0  0  0  0  0  0  0  0  0  0  0
    3.8843    7.7359  -19.5024 H   0  0  0  0  0  0  0  0  0  0  0  0
    5.0614   -4.8270  -15.4035 H   0  0  0  0  0  0  0  0  0  0  0  0
    4.8920    0.8434  -17.5952 H   0  0  0  0  0  0  0  0  0  0  0  0
    2.9004    2.6242  -19.2851 H   0  0  0  0  0  0  0  0  0  0  0  0
  1  5  1  0
  1 28  1  0
  1 31  2  0
  2 20  1  0
  2 27  1  0
  2 32  2  0
  3 21  1  0
  3 29  1  0
  3 33  2  0
  4 22  1  0
  4 30  1  0
  4 34  2  0
  6 14  1  0
  7 20  1  0
  8 21  1  0
  9 23  1  0
 10 23  1  0
 11 24  1  0
 12 24  1  0
 13 30  1  0
 14 15  1  0
 15 19  1  0
 16 20  1  0
 16 26  1  0
 17 22  1  0
 17 23  1  0
 18 24  1  0
 18 25  1  0
 19 27  1  0
 21 30  1  0
 22 28  1  0
 25 26  1  0
 25 29  1  0
 26 35  1  0
  5 36  1  0
  5 37  1  0
  5 38  1  0
  6 39  1  0
  6 40  1  0
  6 41  1  0
  7 42  1  0
  7 43  1  0
  7 44  1  0
  8 45  1  0
  8 46  1  0
  8 47  1  0
  9 48  1  0
  9 49  1  0
  9 50  1  0
 10 51  1  0
 10 52  1  0
 10 53  1  0
 11 54  1  0
 11 55  1  0
 11 56  1  0
 12 57  1  0
 12 58  1  0
 12 59  1  0
 13 60  1  0
 13 61  1  0
 13 62  1  0
 14 63  1  0
 14 64  1  0
 15 65  1  0
 15 66  1  0
 16 67  1  0
 16 68  1  0
 17 69  1  0
 17 70  1  0
 18 71  1  0
 18 72  1  0
 19 73  1  0
 19 74  1  0
 20 75  1  6
 21 76  1  1
 22 77  1  6
 23 78  1  0
 24 79  1  0
 25 80  1  6
 26 81  1  6
 27 82  1  0
 28 83  1  0
 29 84  1  0
 35 85  1  0
M  END
>  <OMEGA_C>  (256) 
rNziQFLwlsBQsW/Bjy+vQJ0t00CoyZbBxanZQB+4uT+i0ojBRBbAQOHf77/GMH7BQg/hQPqAuMC7
B17BwBPIQLpmH0FRmbjB8MOVQD9R0UA8zIPBa1ECQTjKOT/wM3DBxKdbQGOWeMCrg5zBk4W9QINB
gcCvGZzBUebdQEbOHD/w0KrBDCaZQFZiJb9Ph63Bc3P8QGFjor/7Y4vBP4SsQLHhKEEfja/B+A6V
QLVvF0F+GqnBudyjQEZhi0Aia43BRN2SQFFtUMB6hYvBtO2YQFCvsD/+rKHBboa0QJnxCEFWEaPB
meKTQA8jukB6oI7B/3fcQL39/D6NPX7B0y68QPjeT8BZtITB1HOUQAWqhsAPT5XBTsWzQGrfKz4F
cKXBbdKuQItoD0Ak5JjBFzmTQMlEYEBB15bBKw+cQBsR9EDYdZzBXhK9QGnhisDu3HnB96C0QP65
tz+fEY/Bg2TcQKKVZr8gJoPB5DkCQZGUg8Cz4HLBX+LVQN3/zEDrf5fB2aT4QICHCEBOZYvBMoGn
QB2izr9GcW/BQbRPQEOfSUAXlpTB5zgAQdGiusD9IVbBm6HIQGZbr8BmNlLBTsrYQJLB18BX/mTB
2x7YQK5rLEGH9LzBhkTgQNWeFEGSKbXBgoezQHBiFkFbJL7BLGeCQKzBv0DwznvBACe3QEbY0kBI
CYHBJRiJQIz18UD4soTBvEcCQdtccTwVxmLB0soQQbXEEj8F6nnBbCYCQZuC4D/a82nBGCogQKq9
f8AL5ZfB3u5gQHBkNsDAb5/Bx7VaQNpnksA9XKPBwrrZQCZ4iMCiJ5fBLHS8QJtUl8Ac86LBt5C/
QPM9QMCgBp/B+hXxQLLamD85F6XB7A3wQIqwjL43W63BKJXWQNUSnj9n1rHB9xt2QLh+d7/WwKnB
JveRQMpKrbxqi7TB6m+rQCP0w787ELDB6rkHQcy5w76BiI3B/t4IQeYiA8D3NIjB7O7rQBLw0r9s
i5LBuFzBQJbyMUEzGarBtJ+UQDG2M0H8E7PBHUp/QHgrH0GGSaPBuhCCQDWUDUGnoq7BWA/HQEH9
ikABZo3BIOmXQFEAfEDh2IXBYztwQJhJZMAmXobBmSaNQCoED8DncY7BUbKSQMuCAUBkpKjBbc90
QC+7gD9Lep7BeC7IQOXw/0CM06jBG2bJQHW/EkGJ853B4AZlQDeQuUAibJHBCfm/QHWYJj9+N3TB
yJDXQKDBVsCvKorBmCWSQPz8p8CaiJLBz0S7QLeU7r5tfp7B8UvOQFnxI0Bj4ZvBjVOUQJQAhECP
GZ7Bn5h4QFWM90AABZzBU/ehQPB2msDUdHbBcoucQJDqVz8Iw4zBeKA5QPzyJ0DjR5rB

>  <OMEGA_E>  (256) 
uMrOPg==

>  <OMEGA_NBR>  (256) 
      7036

$$$$
50163097
     RDKit          3D

 80 83  0  0  1  0  0  0  0  0999 V2000
    6.9538   -1.2368  -22.4222 C   0  0  0  0  0  0  0  0  0  0  0  0
    0.3714   -5.3508  -15.4019 C   0  0  0  0  0  0  0  0  0  0  0  0
    7.4490    0.0732  -22.2888 C   0  0  0  0  0  0  0  0  0  0  0  0
    5.6331   -1.5398  -22.0333 C   0  0  0  0  0  0  0  0  0  0  0  0
    1.3806   -6.3305  -15.4801 C   0  0  0  0  0  0  0  0  0  0  0  0
    0.5284   -4.1239  -16.0763 C   0  0  0  0  0  0  0  0  0  0  0  0
    6.6213    1.0813  -21.7748 C   0  0  0  0  0  0  0  0  0  0  0  0
    4.8140   -0.5393  -21.4807 C   0  0  0  0  0  0  0  0  0  0  0  0
    2.5409   -6.0901  -16.2417 C   0  0  0  0  0  0  0  0  0  0  0  0
    1.6896   -3.8797  -16.8361 C   0  0  0  0  0  0  0  0  0  0  0  0
    6.1950   -1.0195  -17.0679 C   0  0  0  0  0  0  0  0  0  0  0  0
    7.0477   -1.9092  -14.9738 C   0  0  0  0  0  0  0  0  0  0  0  0
    7.4608    0.4187  -15.5600 C   0  0  0  0  0  0  0  0  0  0  0  0
    6.3373   -2.0960  -16.1757 C   0  0  0  0  0  0  0  0  0  0  0  0
    6.7632    0.2322  -16.7661 C   0  0  0  0  0  0  0  0  0  0  0  0
    5.3106    0.7723  -21.3461 C   0  0  0  0  0  0  0  0  0  0  0  0
    2.6989   -4.8670  -16.9285 C   0  0  0  0  0  0  0  0  0  0  0  0
    7.6013   -0.6480  -14.6549 C   0  0  0  0  0  0  0  0  0  0  0  0
    5.7350   -3.3978  -16.5068 C   0  0  0  0  0  0  0  0  0  0  0  0
    6.6003    1.3396  -17.7008 C   0  0  0  0  0  0  0  0  0  0  0  0
    4.1334    7.3503  -17.0121 C   0  0  0  0  0  0  0  0  0  0  0  0
    4.2881    5.8802  -16.6020 C   0  0  0  0  0  0  0  0  0  0  0  0
    4.8617    6.3801  -17.9333 C   0  0  0  0  0  0  0  0  0  0  0  0
    3.5724   -4.4770  -19.2622 C   0  0  0  0  0  0  0  0  0  0  0  0
    8.0035    0.8032  -12.6609 C   0  0  0  0  0  0  0  0  0  0  0  0
    8.4944   -2.7274  -11.7738 C   0  0  0  0  0  0  0  0  0  0  0  0
    4.4667    1.8386  -20.6998 C   0  0  0  0  0  0  0  0  0  0  0  0
    4.6655    4.7589  -19.7628 C   0  0  0  0  0  0  0  0  0  0  0  0
    3.9379   -4.6360  -17.7772 C   0  0  1  0  0  0  0  0  0  0  0  0
    5.2356    2.4002  -19.4870 C   0  0  1  0  0  0  0  0  0  0  0  0
    4.5233    3.5599  -18.8142 C   0  0  2  0  0  0  0  0  0  0  0  0
    4.6241   -3.4198  -17.3412 N   0  0  0  0  0  0  0  0  0  0  0  0
    5.4891    1.3406  -18.5267 N   0  0  0  0  0  0  0  0  0  0  0  0
    8.2568   -0.4384  -13.4383 N   0  0  0  0  0  0  0  0  0  0  0  0
    4.1678    6.0040  -19.1727 N   0  0  0  0  0  0  0  0  0  0  0  0
    6.2209   -4.4348  -16.0674 O   0  0  0  0  0  0  0  0  0  0  0  0
    7.4125    2.2598  -17.7209 O   0  0  0  0  0  0  0  0  0  0  0  0
   10.3302   -0.8416  -11.9616 O   0  0  0  0  0  0  0  0  0  0  0  0
    9.9320   -2.3450  -13.9741 O   0  0  0  0  0  0  0  0  0  0  0  0
    3.1495    3.2681  -18.5523 O   0  0  0  0  0  0  0  0  0  0  0  0
    9.4054   -1.5771  -12.8352 S   0  0  0  0  0  0  0  0  0  0  0  0
    7.5878   -2.0133  -22.8240 H   0  0  0  0  0  0  0  0  0  0  0  0
   -0.5220   -5.5401  -14.8254 H   0  0  0  0  0  0  0  0  0  0  0  0
    8.4632    0.3016  -22.5814 H   0  0  0  0  0  0  0  0  0  0  0  0
    5.2499   -2.5415  -22.1599 H   0  0  0  0  0  0  0  0  0  0  0  0
    1.2644   -7.2674  -14.9554 H   0  0  0  0  0  0  0  0  0  0  0  0
   -0.2420   -3.3699  -16.0108 H   0  0  0  0  0  0  0  0  0  0  0  0
    6.9859    2.0956  -21.7063 H   0  0  0  0  0  0  0  0  0  0  0  0
    3.8096   -0.7750  -21.1611 H   0  0  0  0  0  0  0  0  0  0  0  0
    3.3121   -6.8438  -16.3004 H   0  0  0  0  0  0  0  0  0  0  0  0
    1.8096   -2.9368  -17.3490 H   0  0  0  0  0  0  0  0  0  0  0  0
    5.6473   -1.1534  -17.9891 H   0  0  0  0  0  0  0  0  0  0  0  0
    7.1704   -2.7363  -14.2902 H   0  0  0  0  0  0  0  0  0  0  0  0
    7.8893    1.3826  -15.3283 H   0  0  0  0  0  0  0  0  0  0  0  0
    3.1449    7.7404  -17.2960 H   0  0  0  0  0  0  0  0  0  0  0  0
    4.6969    8.1312  -16.4805 H   0  0  0  0  0  0  0  0  0  0  0  0
    4.9641    5.6058  -15.7788 H   0  0  0  0  0  0  0  0  0  0  0  0
    3.4121    5.2150  -16.5943 H   0  0  0  0  0  0  0  0  0  0  0  0
    5.9560    6.4823  -17.9796 H   0  0  0  0  0  0  0  0  0  0  0  0
    4.4875   -4.3115  -19.8498 H   0  0  0  0  0  0  0  0  0  0  0  0
    3.0698   -5.3893  -19.6157 H   0  0  0  0  0  0  0  0  0  0  0  0
    2.8982   -3.6163  -19.3836 H   0  0  0  0  0  0  0  0  0  0  0  0
    8.6048    0.7888  -11.7399 H   0  0  0  0  0  0  0  0  0  0  0  0
    8.2819    1.6781  -13.2667 H   0  0  0  0  0  0  0  0  0  0  0  0
    6.9363    0.8616  -12.4010 H   0  0  0  0  0  0  0  0  0  0  0  0
    9.1879   -3.4763  -11.3637 H   0  0  0  0  0  0  0  0  0  0  0  0
    8.0252   -2.1715  -10.9486 H   0  0  0  0  0  0  0  0  0  0  0  0
    7.7162   -3.2331  -12.3644 H   0  0  0  0  0  0  0  0  0  0  0  0
    4.2710    2.6455  -21.4214 H   0  0  0  0  0  0  0  0  0  0  0  0
    3.5122    1.4055  -20.3663 H   0  0  0  0  0  0  0  0  0  0  0  0
    5.7291    4.8873  -20.0120 H   0  0  0  0  0  0  0  0  0  0  0  0
    4.0962    4.5516  -20.6809 H   0  0  0  0  0  0  0  0  0  0  0  0
    4.6103   -5.4999  -17.6699 H   0  0  0  0  0  0  0  0  0  0  0  0
    6.2023    2.7730  -19.8563 H   0  0  0  0  0  0  0  0  0  0  0  0
    5.0428    3.7954  -17.8736 H   0  0  0  0  0  0  0  0  0  0  0  0
    4.2689   -2.5433  -17.6663 H   0  0  0  0  0  0  0  0  0  0  0  0
    4.8378    0.5847  -18.4595 H   0  0  0  0  0  0  0  0  0  0  0  0
    3.1950    5.8922  -18.9699 H   0  0  0  0  0  0  0  0  0  0  0  0
    4.2869    6.7404  -19.8387 H   0  0  0  0  0  0  0  0  0  0  0  0
    3.0898    2.5242  -17.9644 H   0  0  0  0  0  0  0  0  0  0  0  0
  1  3  2  0
  1  4  1  0
  2  5  2  0
  2  6  1  0
  3  7  1  0
  4  8  2  0
  5  9  1  0
  6 10  2  0
  7 16  2  0
  8 16  1  0
  9 17  2  0
 10 17  1  0
 11 14  2  0
 11 15  1  0
 12 14  1  0
 12 18  2  0
 13 15  2  0
 13 18  1  0
 14 19  1  0
 15 20  1  0
 16 27  1  0
 17 29  1  0
 18 34  1  0
 19 32  1  0
 19 36  2  0
 20 33  1  0
 20 37  2  0
 21 22  1  0
 21 23  1  0
 22 23  1  0
 23 35  1  0
 24 29  1  0
 25 34  1  0
 26 41  1  0
 27 30  1  0
 28 31  1  0
 28 35  1  0
 29 32  1  0
 30 31  1  0
 30 33  1  0
 31 40  1  0
 34 41  1  0
 38 41  2  0
 39 41  2  0
  1 42  1  0
  2 43  1  0
  3 44  1  0
  4 45  1  0
  5 46  1  0
  6 47  1  0
  7 48  1  0
  8 49  1  0
  9 50  1  0
 10 51  1  0
 11 52  1  0
 12 53  1  0
 13 54  1  0
 21 55  1  0
 21 56  1  0
 22 57  1  0
 22 58  1  0
 23 59  1  0
 24 60  1  0
 24 61  1  0
 24 62  1  0
 25 63  1  0
 25 64  1  0
 25 65  1  0
 26 66  1  0
 26 67  1  0
 26 68  1  0
 27 69  1  0
 27 70  1  0
 28 71  1  0
 28 72  1  0
 29 73  1  6
 30 74  1  6
 31 75  1  1
 32 76  1  0
 33 77  1  0
 35 78  1  0
 35 79  1  0
 40 80  1  0
M  CHG  1  35   1
M  END
>  <OMEGA_C>  (257) 
IoXeQJxQnr+jYLPBsiy+Ptw5q8BHbnbBBV7uQDAAlj1zT7LBD0K0QCQXxb8pRLDB37WwP8KTysCR
rnfBvEQHP0/3g8AunIDB0eHTQLRnij+6Mq7BIAyaQIMQCr9g2KvBup4iQMHhwsAW74HBj0XYP0lM
eMBIsIbBPj3GQHyAgr8ci4jBdIbhQNph9L+nlG/Bvr7uQIZj1j7E9XjB2crKQNskBsDbZ4HBEGzY
QLS/bT74IIbBTvCpQL21RT/YxKrB2LosQIi+m8CUbYfBMT7zQH/iJb+hemrBuIS3QEt1WcDWDYTB
szXTQOx4qz8xm43By0SEQJA160C8GIjB5zeJQPYqvEDg0ITBO5ObQKApzEB+d4/BwqJkQD5Dj8Dy
GJrBeQ4AQU2bTT8Ek0rB7ugHQaWNLsCDYTzBK++OQIRY6z9ImaXBYkuVQO9ImEA3Gp7BYAZ8QBla
lMC+N47Bx4mnQCucGUBM5ZvBNL+QQM7UY0Bjg5bBS/iTQPfdWsDGuorBT6avQDGYqz+YNpTBAxwE
QQZy4L4ZA1fBX16FQCQhwECaYZnBjhHHQL3pjcAcioDBVTPtQKagEEB9xI3BdkglQR1xV7+tYj/B
UukeQR8UFsAIll/B4pFJQL4oUUAPa5TBb3wWQcDdyb/HXE3BAc/yQFzaAMCfl7bBEaAFv4ZIscDM
NG3BUWkHQVxmmj6jprTBAf+nQGyoIsCSR7HBAtmhPyKO6MBxSW/BMNh3vqmsV8AcFoDB34zfQLQd
BkBopq3BMNFzQNdoRr/YSanBLfpTQNAA28AvZ4LBc5/nP8T0O8CzyorBl7a0QOeik7+h6Y/BBXTl
QF8fL8CcpGTBCXX8QBD6sD/NQHXBTUVJQHax90AdXorBS02WQGwZAkEI2IPBQ9qeQLJis0ALdnzB
PF9aQE/hpkAbwYTBa5e+QA1vz0BK1o/BTpmPQJv3icB1zJ7BDHdEQBZ1rMDw7JzBAHw5QCVyZ8CU
EZvBHq0JQVbtST9w1jvBeoIEQYjM1j9NRFTB3PXdQDyQXD+xakbBiAETQXB7XsCU0TXBUGcAQXn6
CsCRLS/BLOv2QGzqTsB81EXB5auIQHBPKUAhX6vBKMdgQKTmsz9E7qLBC1W3QGlknECfGKDByxOD
QJ6mkUCDcqXBu4eTQCv/r8D5W43BTXnGQIl4MUC52Z7BiF6hQAHockAU/Y7BNZuIQKjFIsCFVI3B
6c6aQPiwFT8drZPBK3pMQJmMvEBTwpfBUi6JQEex10CltZ7BEb9FQDKNIUAat4/BmMv0QFjqM79w
HLDB7P2pPnxwrcCsWHfBAMD+QChKKz95rK/BGDLLQDD8kr+Pl63BpAYHPwZkhcDCnYDBVjapP3he
zcAh83jBFi/fQEQtzD/EsKzBCrmrQICgZb6mYqrBEhnbP5mFesAIYYbBKVQgQEBcxcCxQYLBNlbG
QBh6eL8d5YjBJivfQDbz7r9avm/Big7vQGTJ4D4FNHnBLJbJQMkqA8DmooHBkIHZQPj1ij7faIbB
SNa1QDlLkz+z46nBMzQtQBpMncDrPIfBhuvxQMycIL/emmrBUN62QEtVV8ALKITB7mXWQP6Dsz/T
3I3BDpnOQMzhAUFDNaLBYIm7QMqX7ED48qvB8CanQIwR50Bd2aDBb5FmQEZvk8BG35nB6R0AQZwW
Rj+nTErBQZ4GQfPrLMACeDvBnkuWQHpDCUC+XqXBQN6GQHwSoUBKXpzBdRR9QHzslcAP8I3BEOeo
QDj1LUCm0ZrBkiOLQOlmcEAbg5XBrK6TQCupW8Dt5IrBNKawQEQfyz+Kg5PBmJsDQWSY6b7wJFfB
hiKsQFzkvUAyBpvBHvvFQCw1jMB5KIDBAovzQH42DkDOYY7BCrElQWQFcr8bMkHBdPobQT9jH8B9
+l/BZTdDQF5TTEDWOJTBpV8VQRoC07/31U3ByowGQQ1Etb8eYrLByp8Tv5eos8A5im7Brk4PQUAP
gT9IobHBUHjDQMa6DMBcH67BS3psvuDTWcB0+X/BgjiWP0gA7MAWT3HBrJDmQEuaKUAIiqzBif6L
QDa0EL9+UKjBpCfuPxsOPcCeJYrBja9QQFjt3cDq4YLBezi1QGwrjL+oVZDBpGLhQIr2K8AXjmTB
pHL9QP8Osj+cW3XB7KztQCmc+UCE8p7Bo3vLQMBZE0EieKHBxcGqQFru/kAXLrLBDvPMQAHX0UB5
qK/BErOIQFQP+ECcpp/BCJyQQGoZjsCdjZ7BiYBIQJuescBkZZzBMdI5QMuaccAFOZvBBc8JQSLe
OT/RoDvBGtwEQWGu0z8kvFPB9i7eQEVhWj+cBUbB7EYRQRHDXsDoEjXBSmwAQXLHBcByNy7BfF3y
QH4uS8B69EPBCTORQCd0PUATI6vBYE5vQCZT0j+svaPBZWaEQNvYl0Ca1qTBkmVTQK5BskCO9ZnB
3KeUQLnbsMB/s4zBA4jHQMlbTUDJqZzBKJqYQBABgUBMr43BUwyIQMvtJMCC2Y3B+1GZQB2caT9K
k5LB2DvGQLQCr0BUx53BDMqvQPIpxECVO5PB0g5HQFDVGUAABJDB

>  <OMEGA_E>  (257) 
KBCBP7JWfj8=

>  <OMEGA_NBR>  (257) 
      5804

$$$$
50163076
     RDKit          3D

 80 83  0  0  1  0  0  0  0  0999 V2000
    7.6323   -0.7108  -21.9502 C   0  0  0  0  0  0  0  0  0  0  0  0
    7.9559    0.6589  -21.9128 C   0  0  0  0  0  0  0  0  0  0  0  0
    6.3252   -1.1394  -21.6413 C   0  0  0  0  0  0  0  0  0  0  0  0
    6.9749    1.5998  -21.5626 C   0  0  0  0  0  0  0  0  0  0  0  0
    5.3472   -0.2003  -21.2631 C   0  0  0  0  0  0  0  0  0  0  0  0
    1.7197   -3.9352  -16.8034 C   0  0  0  0  0  0  0  0  0  0  0  0
    2.5225   -6.1901  -16.3104 C   0  0  0  0  0  0  0  0  0  0  0  0
    0.5381   -4.2002  -16.0838 C   0  0  0  0  0  0  0  0  0  0  0  0
    1.3435   -6.4506  -15.5858 C   0  0  0  0  0  0  0  0  0  0  0  0
    6.2068   -0.9806  -17.1203 C   0  0  0  0  0  0  0  0  0  0  0  0
    7.0003   -1.8705  -14.9942 C   0  0  0  0  0  0  0  0  0  0  0  0
    7.4754    0.4384  -15.5898 C   0  0  0  0  0  0  0  0  0  0  0  0
    6.3158   -2.0572  -16.2100 C   0  0  0  0  0  0  0  0  0  0  0  0
    6.8052    0.2630  -16.8164 C   0  0  0  0  0  0  0  0  0  0  0  0
    5.6753    1.1724  -21.2189 C   0  0  0  0  0  0  0  0  0  0  0  0
    2.7182   -4.9311  -16.9200 C   0  0  0  0  0  0  0  0  0  0  0  0
    7.5690   -0.6232  -14.6718 C   0  0  0  0  0  0  0  0  0  0  0  0
    0.3503   -5.4572  -15.4744 C   0  0  0  0  0  0  0  0  0  0  0  0
    5.7173   -3.3703  -16.5129 C   0  0  0  0  0  0  0  0  0  0  0  0
    6.7080    1.3910  -17.7518 C   0  0  0  0  0  0  0  0  0  0  0  0
    6.4565    8.1339  -20.2401 C   0  0  0  0  0  0  0  0  0  0  0  0
    5.8594    7.4095  -21.4570 C   0  0  0  0  0  0  0  0  0  0  0  0
    5.2213    7.2414  -20.0697 C   0  0  0  0  0  0  0  0  0  0  0  0
    3.6147   -4.5975  -19.2443 C   0  0  0  0  0  0  0  0  0  0  0  0
    7.9238    0.8000  -12.6505 C   0  0  0  0  0  0  0  0  0  0  0  0
    8.4089   -2.7035  -11.7361 C   0  0  0  0  0  0  0  0  0  0  0  0
    4.6984    2.1799  -20.6634 C   0  0  0  0  0  0  0  0  0  0  0  0
    4.2114    5.0546  -19.5177 C   0  0  0  0  0  0  0  0  0  0  0  0
    3.9657   -4.6872  -17.7530 C   0  0  1  0  0  0  0  0  0  0  0  0
    5.2756    2.7396  -19.3366 C   0  0  1  0  0  0  0  0  0  0  0  0
    4.3451    3.7738  -18.6676 C   0  0  2  0  0  0  0  0  0  0  0  0
    4.6218   -3.4354  -17.3613 N   0  0  0  0  0  0  0  0  0  0  0  0
    5.5146    1.6016  -18.4286 N   0  0  0  0  0  0  0  0  0  0  0  0
    8.1965   -0.4298  -13.4376 N   0  0  0  0  0  0  0  0  0  0  0  0
    5.3735    5.9554  -19.3409 N   0  0  0  0  0  0  0  0  0  0  0  0
    6.1716   -4.3868  -15.9960 O   0  0  0  0  0  0  0  0  0  0  0  0
    7.6364    2.1880  -17.8436 O   0  0  0  0  0  0  0  0  0  0  0  0
   10.2717   -0.8465  -11.9632 O   0  0  0  0  0  0  0  0  0  0  0  0
    9.8390   -2.3770  -13.9472 O   0  0  0  0  0  0  0  0  0  0  0  0
    3.0471    3.2101  -18.5099 O   0  0  0  0  0  0  0  0  0  0  0  0
   -0.7823   -5.7092  -14.7801 F   0  0  0  0  0  0  0  0  0  0  0  0
    9.3302   -1.5812  -12.8194 S   0  0  0  0  0  0  0  0  0  0  0  0
    8.3877   -1.4354  -22.2163 H   0  0  0  0  0  0  0  0  0  0  0  0
    8.9570    0.9851  -22.1532 H   0  0  0  0  0  0  0  0  0  0  0  0
    6.0743   -2.1885  -21.6948 H   0  0  0  0  0  0  0  0  0  0  0  0
    7.2155    2.6527  -21.5564 H   0  0  0  0  0  0  0  0  0  0  0  0
    4.3503   -0.5283  -21.0080 H   0  0  0  0  0  0  0  0  0  0  0  0
    1.8639   -2.9703  -17.2667 H   0  0  0  0  0  0  0  0  0  0  0  0
    3.2795   -6.9552  -16.4002 H   0  0  0  0  0  0  0  0  0  0  0  0
   -0.2243   -3.4399  -15.9991 H   0  0  0  0  0  0  0  0  0  0  0  0
    1.2004   -7.4122  -15.1153 H   0  0  0  0  0  0  0  0  0  0  0  0
    5.6668   -1.1086  -18.0468 H   0  0  0  0  0  0  0  0  0  0  0  0
    7.0904   -2.6934  -14.3006 H   0  0  0  0  0  0  0  0  0  0  0  0
    7.9200    1.3937  -15.3529 H   0  0  0  0  0  0  0  0  0  0  0  0
    7.4264    7.8143  -19.8313 H   0  0  0  0  0  0  0  0  0  0  0  0
    6.3624    9.2261  -20.1496 H   0  0  0  0  0  0  0  0  0  0  0  0
    5.3372    7.9828  -22.2371 H   0  0  0  0  0  0  0  0  0  0  0  0
    6.4012    6.5710  -21.9188 H   0  0  0  0  0  0  0  0  0  0  0  0
    4.2710    7.7752  -19.9211 H   0  0  0  0  0  0  0  0  0  0  0  0
    4.5307   -4.4210  -19.8272 H   0  0  0  0  0  0  0  0  0  0  0  0
    3.1497   -5.5401  -19.5688 H   0  0  0  0  0  0  0  0  0  0  0  0
    2.9117   -3.7671  -19.4061 H   0  0  0  0  0  0  0  0  0  0  0  0
    8.5037    0.7741  -11.7161 H   0  0  0  0  0  0  0  0  0  0  0  0
    8.2147    1.6833  -13.2380 H   0  0  0  0  0  0  0  0  0  0  0  0
    6.8508    0.8538  -12.4145 H   0  0  0  0  0  0  0  0  0  0  0  0
    9.0943   -3.4560  -11.3188 H   0  0  0  0  0  0  0  0  0  0  0  0
    7.9522   -2.1292  -10.9166 H   0  0  0  0  0  0  0  0  0  0  0  0
    7.6205   -3.2067  -12.3150 H   0  0  0  0  0  0  0  0  0  0  0  0
    4.5600    2.9997  -21.3837 H   0  0  0  0  0  0  0  0  0  0  0  0
    3.7309    1.6930  -20.4717 H   0  0  0  0  0  0  0  0  0  0  0  0
    4.1378    4.7721  -20.5783 H   0  0  0  0  0  0  0  0  0  0  0  0
    3.2980    5.5883  -19.2162 H   0  0  0  0  0  0  0  0  0  0  0  0
    4.6601   -5.5275  -17.6058 H   0  0  0  0  0  0  0  0  0  0  0  0
    6.2341    3.2312  -19.5595 H   0  0  0  0  0  0  0  0  0  0  0  0
    4.7657    4.0437  -17.6877 H   0  0  0  0  0  0  0  0  0  0  0  0
    4.2581   -2.5787  -17.7271 H   0  0  0  0  0  0  0  0  0  0  0  0
    4.7738    0.9438  -18.2929 H   0  0  0  0  0  0  0  0  0  0  0  0
    6.1920    5.4912  -19.6795 H   0  0  0  0  0  0  0  0  0  0  0  0
    5.4806    6.1512  -18.3661 H   0  0  0  0  0  0  0  0  0  0  0  0
    3.1063    2.4184  -17.9882 H   0  0  0  0  0  0  0  0  0  0  0  0
  1  2  2  0
  1  3  1  0
  2  4  1  0
  3  5  2  0
  4 15  2  0
  5 15  1  0
  6  8  2  0
  6 16  1  0
  7  9  1  0
  7 16  2  0
  8 18  1  0
  9 18  2  0
 10 13  2  0
 10 14  1  0
 11 13  1  0
 11 17  2  0
 12 14  2  0
 12 17  1  0
 13 19  1  0
 14 20  1  0
 15 27  1  0
 16 29  1  0
 17 34  1  0
 18 41  1  0
 19 32  1  0
 19 36  2  0
 20 33  1  0
 20 37  2  0
 21 22  1  0
 21 23  1  0
 22 23  1  0
 23 35  1  0
 24 29  1  0
 25 34  1  0
 26 42  1  0
 27 30  1  0
 28 31  1  0
 28 35  1  0
 29 32  1  0
 30 31  1  0
 30 33  1  0
 31 40  1  0
 34 42  1  0
 38 42  2  0
 39 42  2  0
  1 43  1  0
  2 44  1  0
  3 45  1  0
  4 46  1  0
  5 47  1  0
  6 48  1  0
  7 49  1  0
  8 50  1  0
  9 51  1  0
 10 52  1  0
 11 53  1  0
 12 54  1  0
 21 55  1  0
 21 56  1  0
 22 57  1  0
 22 58  1  0
 23 59  1  0
 24 60  1  0
 24 61  1  0
 24 62  1  0
 25 63  1  0
 25 64  1  0
 25 65  1  0
 26 66  1  0
 26 67  1  0
 26 68  1  0
 27 69  1  0
 27 70  1  0
 28 71  1  0
 28 72  1  0
 29 73  1  6
 30 74  1  6
 31 75  1  1
 32 76  1  0
 33 77  1  0
 35 78  1  0
 35 79  1  0
 40 80  1  0
M  CHG  1  35   1
M  END
>  <OMEGA_C>  (258) 
2jv0QHj4Nb8Emq/BfJb+QOSuKD92Ta/Ba2jKQEDYkb9WIa3BeDLfQHbHzD9AgKzBIxyrQGAlTb7e
GqrBvSDcP+LZe8BMbYbBTHEhQPIUxsCie4LB5r8JP/JnhsCyq4DBT/irP5FrzsBUX3nBYp7GQFwG
e79c9ojBwALgQABs779P6G/BlDbvQOh34D7Rb3nBOBvKQOapA8AcroHBO8TZQKimhj7wh4bBZJy1
QNMSlj9CwKnBLPYtQNLLncA0XIfBNDXyQEyJH7+Lv2rBgFezPgChrsAhl3fBAPS2QMiyV8BeGoTB
16fWQMoNsj+WA47BypvOQHwkAkGo66HB2X+7QIAa7UDcp6vBwhSnQKq550CojqDBHFdnQMEek8BS
9JnB/I/9QCrOTD9TaErBDYsGQTQGLcAJxzvBKFmWQBGEC0CkTqXBbsOGQF2/oUA+JJzBqM19QJ79
lcA8Bo7BidGoQOpVL0BmsZrBcQuLQDSFcUA6V5XBgOWTQAzdW8De44rB4HewQNgCzT/IbZPBDCUD
QXgQ3L5cAFfB5/OrQHySvkA0uprBtn3FQI1gjMB373/BWl30QCYIDECov47B/FgkQRC0WL9qaT/B
u2wdQZQgGMCeJ1/BLgNDQBRzTUBCFJTBIEZIv12xtsA8e2zBiUgVQRxkyr8THE3B7zMGQYu6t78P
u7HB408PQQQtfD+sObHBoWDCQDMQDMDkjq3Bo+XmQGLFKUBoc6zBtDWLQMM7B79SEKjBl5XuP/cZ
PsA+IorB3OJRQLWQ3sCPM4PBMq5lvsYnXMBh/H/BpKeZP3Aw7cAc2HHBwla1QHPljb/bX5DB4OTi
QM9gLMBXz2TB7nD9QP5ksj9spXXBbaXtQOQO+kB3pp7BJJnLQEOeE0FoMqHBMsqqQOpy/0Cn5bHB
etbMQEhF0kC2Wa/BA6yIQAvO+EBWXp/BzvuQQCl5jcACnp7BgZRJQJFIscDNjJzBf1g6QD8YccCj
P5vBSg8IQTMrRj8rdTvBjG8DQc911z/0zlPBjznbQNCPWj/WoUbBFYIRQR4vXcD7GTXBmHj+QGRF
CMBGqi7BWNvzQB47TcBMCkXBIeuRQIH7P0C+EavBScZuQNGy2D8cxqPB+2iEQP20mEBCoKTBJBJT
QLHTskDaupnBYR+VQHfhsMCz2IzBgn3HQEzLTkDieZzBeICYQDlmgUBUgI3BREKIQFEJJcAk0Y3B
KcOYQBaccT/WV5LBrCTGQOC3r0C0b53BP2GvQNjWxEDg7ZLBRs5GQM3HGkDG54/B

>  <OMEGA_E>  (258) 
rC5/Pw==

>  <OMEGA_NBR>  (258) 
      7431

$$$$
50163091
     RDKit          3D

 73 75  0  0  1  0  0  0  0  0999 V2000
    6.8448   -1.0553  -22.2726 C   0  0  0  0  0  0  0  0  0  0  0  0
    7.3717    0.2312  -22.0566 C   0  0  0  0  0  0  0  0  0  0  0  0
    5.5183   -1.3506  -21.8986 C   0  0  0  0  0  0  0  0  0  0  0  0
    6.5729    1.2221  -21.4680 C   0  0  0  0  0  0  0  0  0  0  0  0
    4.7234   -0.3659  -21.2846 C   0  0  0  0  0  0  0  0  0  0  0  0
    1.7554   -3.6012  -16.8154 C   0  0  0  0  0  0  0  0  0  0  0  0
    2.2898   -5.9446  -16.3719 C   0  0  0  0  0  0  0  0  0  0  0  0
    0.5450   -3.7448  -16.1099 C   0  0  0  0  0  0  0  0  0  0  0  0
    1.0805   -6.0853  -15.6650 C   0  0  0  0  0  0  0  0  0  0  0  0
    6.2857   -1.0078  -17.0728 C   0  0  0  0  0  0  0  0  0  0  0  0
    7.1029   -1.9823  -14.9938 C   0  0  0  0  0  0  0  0  0  0  0  0
    7.5511    0.3566  -15.4977 C   0  0  0  0  0  0  0  0  0  0  0  0
    6.4205   -2.1222  -16.2187 C   0  0  0  0  0  0  0  0  0  0  0  0
    6.8610    0.2290  -16.7192 C   0  0  0  0  0  0  0  0  0  0  0  0
    5.2551    0.9197  -21.0569 C   0  0  0  0  0  0  0  0  0  0  0  0
    2.6336   -4.7032  -16.9499 C   0  0  0  0  0  0  0  0  0  0  0  0
    7.6353   -0.7332  -14.6008 C   0  0  0  0  0  0  0  0  0  0  0  0
    0.2054   -4.9880  -15.5391 C   0  0  0  0  0  0  0  0  0  0  0  0
    5.7965   -3.4072  -16.5764 C   0  0  0  0  0  0  0  0  0  0  0  0
    6.6665    1.4043  -17.5814 C   0  0  0  0  0  0  0  0  0  0  0  0
    3.5877   -4.4704  -19.2637 C   0  0  0  0  0  0  0  0  0  0  0  0
    9.1811    0.5350  -13.0805 C   0  0  0  0  0  0  0  0  0  0  0  0
    8.3726   -2.9190  -11.7024 C   0  0  0  0  0  0  0  0  0  0  0  0
    4.4085    1.9850  -20.4055 C   0  0  0  0  0  0  0  0  0  0  0  0
    5.1931    4.4827  -17.5216 C   0  0  0  0  0  0  0  0  0  0  0  0
    3.9085   -4.5845  -17.7667 C   0  0  1  0  0  0  0  0  0  0  0  0
    5.1685    2.6188  -19.2171 C   0  0  1  0  0  0  0  0  0  0  0  0
    4.3567    3.7712  -18.5997 C   0  0  2  0  0  0  0  0  0  0  0  0
    4.6577   -3.3912  -17.3689 N   0  0  0  0  0  0  0  0  0  0  0  0
    5.4562    1.5470  -18.2498 N   0  0  0  0  0  0  0  0  0  0  0  0
    8.1979   -0.5583  -13.3195 N   0  0  0  0  0  0  0  0  0  0  0  0
    4.6364    5.8156  -17.2082 N   0  0  0  0  0  0  0  0  0  0  0  0
    6.2538   -4.4607  -16.1446 O   0  0  0  0  0  0  0  0  0  0  0  0
    7.5277    2.2760  -17.6386 O   0  0  0  0  0  0  0  0  0  0  0  0
    6.0988   -1.6466  -12.1984 O   0  0  0  0  0  0  0  0  0  0  0  0
    7.8441   -0.5190  -10.7454 O   0  0  0  0  0  0  0  0  0  0  0  0
    4.0588    4.7058  -19.6374 O   0  0  0  0  0  0  0  0  0  0  0  0
   -0.9658   -5.1322  -14.8793 F   0  0  0  0  0  0  0  0  0  0  0  0
    7.5097   -1.3400  -11.9178 S   0  0  0  0  0  0  0  0  0  0  0  0
    7.4588   -1.8191  -22.7266 H   0  0  0  0  0  0  0  0  0  0  0  0
    8.3887    0.4550  -22.3432 H   0  0  0  0  0  0  0  0  0  0  0  0
    5.1118   -2.3339  -22.0837 H   0  0  0  0  0  0  0  0  0  0  0  0
    6.9656    2.2185  -21.3286 H   0  0  0  0  0  0  0  0  0  0  0  0
    3.7100   -0.5938  -20.9889 H   0  0  0  0  0  0  0  0  0  0  0  0
    2.0140   -2.6489  -17.2544 H   0  0  0  0  0  0  0  0  0  0  0  0
    2.9563   -6.7885  -16.4723 H   0  0  0  0  0  0  0  0  0  0  0  0
   -0.1229   -2.9025  -16.0063 H   0  0  0  0  0  0  0  0  0  0  0  0
    0.8233   -7.0347  -15.2190 H   0  0  0  0  0  0  0  0  0  0  0  0
    5.7403   -1.1026  -18.0001 H   0  0  0  0  0  0  0  0  0  0  0  0
    7.2206   -2.8396  -14.3477 H   0  0  0  0  0  0  0  0  0  0  0  0
    8.0202    1.2957  -15.2439 H   0  0  0  0  0  0  0  0  0  0  0  0
    4.5243   -4.3857  -19.8345 H   0  0  0  0  0  0  0  0  0  0  0  0
    3.0392   -5.3662  -19.5904 H   0  0  0  0  0  0  0  0  0  0  0  0
    2.9696   -3.5776  -19.4391 H   0  0  0  0  0  0  0  0  0  0  0  0
    9.5059    0.5135  -12.0298 H   0  0  0  0  0  0  0  0  0  0  0  0
   10.0527    0.3939  -13.7365 H   0  0  0  0  0  0  0  0  0  0  0  0
    8.7109    1.5051  -13.2991 H   0  0  0  0  0  0  0  0  0  0  0  0
    7.9653   -3.4434  -10.8254 H   0  0  0  0  0  0  0  0  0  0  0  0
    8.2302   -3.5398  -12.5993 H   0  0  0  0  0  0  0  0  0  0  0  0
    9.4462   -2.7326  -11.5522 H   0  0  0  0  0  0  0  0  0  0  0  0
    4.1743    2.7653  -21.1446 H   0  0  0  0  0  0  0  0  0  0  0  0
    3.4742    1.5337  -20.0402 H   0  0  0  0  0  0  0  0  0  0  0  0
    5.1960    3.8708  -16.6076 H   0  0  0  0  0  0  0  0  0  0  0  0
    6.2239    4.6010  -17.8870 H   0  0  0  0  0  0  0  0  0  0  0  0
    4.5238   -5.4815  -17.6032 H   0  0  0  0  0  0  0  0  0  0  0  0
    6.1170    3.0282  -19.5949 H   0  0  0  0  0  0  0  0  0  0  0  0
    3.4362    3.3727  -18.1482 H   0  0  0  0  0  0  0  0  0  0  0  0
    4.3260   -2.5042  -17.6903 H   0  0  0  0  0  0  0  0  0  0  0  0
    4.7355    0.8797  -18.0618 H   0  0  0  0  0  0  0  0  0  0  0  0
    5.1974    6.2551  -16.5067 H   0  0  0  0  0  0  0  0  0  0  0  0
    4.6347    6.3787  -18.0346 H   0  0  0  0  0  0  0  0  0  0  0  0
    3.7002    5.7149  -16.8715 H   0  0  0  0  0  0  0  0  0  0  0  0
    3.5419    4.2784  -20.3103 H   0  0  0  0  0  0  0  0  0  0  0  0
  1  2  2  0
  1  3  1  0
  2  4  1  0
  3  5  2  0
  4 15  2  0
  5 15  1  0
  6  8  2  0
  6 16  1  0
  7  9  1  0
  7 16  2  0
  8 18  1  0
  9 18  2  0
 10 13  2  0
 10 14  1  0
 11 13  1  0
 11 17  2  0
 12 14  2  0
 12 17  1  0
 13 19  1  0
 14 20  1  0
 15 24  1  0
 16 26  1  0
 17 31  1  0
 18 38  1  0
 19 29  1  0
 19 33  2  0
 20 30  1  0
 20 34  2  0
 21 26  1  0
 22 31  1  0
 23 39  1  0
 24 27  1  0
 25 28  1  0
 25 32  1  0
 26 29  1  0
 27 28  1  0
 27 30  1  0
 28 37  1  0
 31 39  1  0
 35 39  2  0
 36 39  2  0
  1 40  1  0
  2 41  1  0
  3 42  1  0
  4 43  1  0
  5 44  1  0
  6 45  1  0
  7 46  1  0
  8 47  1  0
  9 48  1  0
 10 49  1  0
 11 50  1  0
 12 51  1  0
 21 52  1  0
 21 53  1  0
 21 54  1  0
 22 55  1  0
 22 56  1  0
 22 57  1  0
 23 58  1  0
 23 59  1  0
 23 60  1  0
 24 61  1  0
 24 62  1  0
 25 63  1  0
 25 64  1  0
 26 65  1  6
 27 66  1  6
 28 67  1  1
 29 68  1  0
 30 69  1  0
 32 70  1  0
 32 71  1  0
 32 72  1  0
 37 73  1  0
M  CHG  1  32   1
M  END
>  <OMEGA_C>  (259) 
AAnbQB8Uh79hLrLBMeXrQMDBbD7gc7DBKZawQOLfrL9rMK/BWFXSQHNunD+JvqvBViaXQNdTu77z
RqrB3LHgP4V5ZsABhobBKYwSQFg6vsCm+YLBUoYLPyyrb8An4YDB3EyKP5q6wsD8o3rBxCTJQMj+
gL8RlYjBNkvjQAK7/b/N5m/BcqLxQKaStj5s9nfB9HTNQJDRB8D1v4HBMI3bQGuAaj7XwIXBaCmo
QIRyaz+XdKjBc4woQLyAlsBdmYfBHFT0QOKzO78MnWnBiFpSPhien8BSoHjBlny5QKUPWsCGnITB
WVTVQOG+sz/EpozBrZ1lQIgNj8AbHJrByeUSQbTyCD/ESVHB+fUFQbfROsApPTvBcxKNQFwV/j+E
PqPBwy2mQGdyj0BVLIzBjyR6QDC0ksAjIo7BpmSlQD+aJ0CVvJnB1GmLQCFccUAmzJTBiguVQB4J
WcCN84rB1JiuQHcFxj+u/5HBfioDQdLpDr+4HFXBrl2UQEgZukBgqonB6R7IQGG+jsAhKIHBw+Lw
QI2qEUDFG43BTCnDQIjE0r/ULEPBtgL7QJrbBL8i7SvBW+GBQAGWlkBqGZ3BSjx3v5g6pMCqEW7B
ak/wQKuDq79Irz7Bja7uQObY6L/+z7XB8jcGQWb26D7uvrLBM5SjQLBeFcBoq7DBgubeQJ/7DUAJ
oarBBHFtQPsBGL9D6afBNOUAQJuHKcAdCYrBzTM9QFs72cBCx4PBO7v7vWvCOcDjDIDBH8NSP/ob
4cAjgXPBXbC3QIAjjb8qAJDBRw/nQLe7NcD+j2XB4VIAQa3YpT/n5nPBz8aQQGFXjMD+rJ7BcoJC
QLe3q8ASuZzBIQ0+QK/3ZMBXg5vBBBgYQUBzAz/peUDBA9ggQbWpyT7FyFvB2F8LQWimwD/9yFTB
6OP+QC1gXMCvNC3B/q4DQUKMYsDLlknBfyMXQYDiLsCt1TjBfZOFQBL7MEAwKKnB+1leQARRxD9G
UqDBbUWmQFK7d0BG3ITBEyrHQD87k0CGGI/B58KQQKxor8BT04zBtL7DQKTOQUBDwpzBLepbQFHa
V0CCL5HB+G6KQJxEIMC0hY3BG4mXQCs3YT+ZfpDBXFGmQHspyEClDYTBdE+UQGkezEDHRpDBo9Bs
QJvgtkC8+IbBBq9iQA/piEBze6LB

>  <OMEGA_E>  (259) 
sGp1Pw==

>  <OMEGA_NBR>  (259) 
      8942

$$$$
50163079
     RDKit          3D

 79 81  0  0  1  0  0  0  0  0999 V2000
    6.5404   -1.5221  -22.2927 C   0  0  0  0  0  0  0  0  0  0  0  0
    7.2351   -0.3126  -22.1009 C   0  0  0  0  0  0  0  0  0  0  0  0
    5.1724   -1.6145  -21.9675 C   0  0  0  0  0  0  0  0  0  0  0  0
    6.5596    0.8070  -21.5910 C   0  0  0  0  0  0  0  0  0  0  0  0
    4.4996   -0.5020  -21.4351 C   0  0  0  0  0  0  0  0  0  0  0  0
    1.7423   -3.8369  -16.7573 C   0  0  0  0  0  0  0  0  0  0  0  0
    2.4708   -6.1437  -16.4082 C   0  0  0  0  0  0  0  0  0  0  0  0
    0.5983   -4.0802  -15.9729 C   0  0  0  0  0  0  0  0  0  0  0  0
    1.3266   -6.3847  -15.6238 C   0  0  0  0  0  0  0  0  0  0  0  0
    6.2678   -1.0608  -17.1508 C   0  0  0  0  0  0  0  0  0  0  0  0
    7.0316   -1.9648  -15.0277 C   0  0  0  0  0  0  0  0  0  0  0  0
    7.4961    0.3560  -15.5927 C   0  0  0  0  0  0  0  0  0  0  0  0
    6.3733   -2.1428  -16.2606 C   0  0  0  0  0  0  0  0  0  0  0  0
    6.8391    0.1826  -16.8217 C   0  0  0  0  0  0  0  0  0  0  0  0
    5.1931    0.7083  -21.2415 C   0  0  0  0  0  0  0  0  0  0  0  0
    2.6869   -4.8683  -16.9739 C   0  0  0  0  0  0  0  0  0  0  0  0
    7.5614   -0.7025  -14.6644 C   0  0  0  0  0  0  0  0  0  0  0  0
    0.3911   -5.3534  -15.4053 C   0  0  0  0  0  0  0  0  0  0  0  0
    5.7529   -3.4322  -16.6041 C   0  0  0  0  0  0  0  0  0  0  0  0
    6.6741    1.3149  -17.7255 C   0  0  0  0  0  0  0  0  0  0  0  0
    4.5002    6.8025  -16.8615 C   0  0  0  0  0  0  0  0  0  0  0  0
    3.5043   -4.4405  -19.3139 C   0  0  0  0  0  0  0  0  0  0  0  0
    9.0576    0.6385  -13.1530 C   0  0  0  0  0  0  0  0  0  0  0  0
    8.2201   -2.7986  -11.7227 C   0  0  0  0  0  0  0  0  0  0  0  0
    4.4720    1.8920  -20.6512 C   0  0  0  0  0  0  0  0  0  0  0  0
    5.0538    6.4968  -18.2502 C   0  0  0  0  0  0  0  0  0  0  0  0
    4.3527    4.6881  -19.7290 C   0  0  0  0  0  0  0  0  0  0  0  0
    3.9084   -4.6308  -17.8443 C   0  0  1  0  0  0  0  0  0  0  0  0
    5.2606    2.4348  -19.4404 C   0  0  1  0  0  0  0  0  0  0  0  0
    4.5258    3.5551  -18.7154 C   0  0  2  0  0  0  0  0  0  0  0  0
    4.6194   -3.4278  -17.4070 N   0  0  0  0  0  0  0  0  0  0  0  0
    5.5399    1.3517  -18.5131 N   0  0  0  0  0  0  0  0  0  0  0  0
    8.0940   -0.4764  -13.3807 N   0  0  0  0  0  0  0  0  0  0  0  0
    3.9678    5.9240  -19.0591 N   0  0  0  0  0  0  0  0  0  0  0  0
    6.2248   -4.4803  -16.1761 O   0  0  0  0  0  0  0  0  0  0  0  0
    7.4882    2.2333  -17.7333 O   0  0  0  0  0  0  0  0  0  0  0  0
    5.9663   -1.5090  -12.2799 O   0  0  0  0  0  0  0  0  0  0  0  0
    7.7031   -0.3766  -10.8186 O   0  0  0  0  0  0  0  0  0  0  0  0
    3.2529    3.1335  -18.2226 O   0  0  0  0  0  0  0  0  0  0  0  0
   -0.7062   -5.5857  -14.6503 F   0  0  0  0  0  0  0  0  0  0  0  0
    7.3763   -1.2162  -11.9796 S   0  0  0  0  0  0  0  0  0  0  0  0
    7.0580   -2.3824  -22.6907 H   0  0  0  0  0  0  0  0  0  0  0  0
    8.2849   -0.2465  -22.3456 H   0  0  0  0  0  0  0  0  0  0  0  0
    4.6410   -2.5410  -22.1274 H   0  0  0  0  0  0  0  0  0  0  0  0
    7.0832    1.7433  -21.4655 H   0  0  0  0  0  0  0  0  0  0  0  0
    3.4538   -0.5746  -21.1752 H   0  0  0  0  0  0  0  0  0  0  0  0
    1.8990   -2.8618  -17.1942 H   0  0  0  0  0  0  0  0  0  0  0  0
    3.1846   -6.9363  -16.5776 H   0  0  0  0  0  0  0  0  0  0  0  0
   -0.1201   -3.2912  -15.8064 H   0  0  0  0  0  0  0  0  0  0  0  0
    1.1657   -7.3603  -15.1893 H   0  0  0  0  0  0  0  0  0  0  0  0
    5.7474   -1.1836  -18.0892 H   0  0  0  0  0  0  0  0  0  0  0  0
    7.1334   -2.8009  -14.3516 H   0  0  0  0  0  0  0  0  0  0  0  0
    7.9537    1.3056  -15.3576 H   0  0  0  0  0  0  0  0  0  0  0  0
    5.2958    7.2331  -16.2356 H   0  0  0  0  0  0  0  0  0  0  0  0
    3.6719    7.5212  -16.9472 H   0  0  0  0  0  0  0  0  0  0  0  0
    4.1335    5.8736  -16.4004 H   0  0  0  0  0  0  0  0  0  0  0  0
    4.4042   -4.2704  -19.9232 H   0  0  0  0  0  0  0  0  0  0  0  0
    2.9849   -5.3421  -19.6710 H   0  0  0  0  0  0  0  0  0  0  0  0
    2.8338   -3.5728  -19.4003 H   0  0  0  0  0  0  0  0  0  0  0  0
    9.3583    0.6537  -12.0949 H   0  0  0  0  0  0  0  0  0  0  0  0
    9.9460    0.4899  -13.7843 H   0  0  0  0  0  0  0  0  0  0  0  0
    8.5796    1.5948  -13.4119 H   0  0  0  0  0  0  0  0  0  0  0  0
    7.7952   -3.3025  -10.8421 H   0  0  0  0  0  0  0  0  0  0  0  0
    8.0845   -3.4345  -12.6100 H   0  0  0  0  0  0  0  0  0  0  0  0
    9.2932   -2.6196  -11.5605 H   0  0  0  0  0  0  0  0  0  0  0  0
    4.3821    2.6814  -21.4120 H   0  0  0  0  0  0  0  0  0  0  0  0
    3.4685    1.5821  -20.3240 H   0  0  0  0  0  0  0  0  0  0  0  0
    5.4188    7.4229  -18.7182 H   0  0  0  0  0  0  0  0  0  0  0  0
    5.8805    5.7753  -18.1714 H   0  0  0  0  0  0  0  0  0  0  0  0
    5.3030    4.8459  -20.2600 H   0  0  0  0  0  0  0  0  0  0  0  0
    3.5708    4.4102  -20.4512 H   0  0  0  0  0  0  0  0  0  0  0  0
    4.5749   -5.5028  -17.7709 H   0  0  0  0  0  0  0  0  0  0  0  0
    6.2131    2.8389  -19.8141 H   0  0  0  0  0  0  0  0  0  0  0  0
    5.1535    3.9142  -17.8865 H   0  0  0  0  0  0  0  0  0  0  0  0
    4.2646   -2.5422  -17.7069 H   0  0  0  0  0  0  0  0  0  0  0  0
    4.8831    0.6010  -18.4420 H   0  0  0  0  0  0  0  0  0  0  0  0
    3.1898    5.7338  -18.4603 H   0  0  0  0  0  0  0  0  0  0  0  0
    3.6992    6.5928  -19.7524 H   0  0  0  0  0  0  0  0  0  0  0  0
    3.3729    2.4306  -17.5949 H   0  0  0  0  0  0  0  0  0  0  0  0
  1  2  2  0
  1  3  1  0
  2  4  1  0
  3  5  2  0
  4 15  2  0
  5 15  1  0
  6  8  2  0
  6 16  1  0
  7  9  1  0
  7 16  2  0
  8 18  1  0
  9 18  2  0
 10 13  2  0
 10 14  1  0
 11 13  1  0
 11 17  2  0
 12 14  2  0
 12 17  1  0
 13 19  1  0
 14 20  1  0
 15 25  1  0
 16 28  1  0
 17 33  1  0
 18 40  1  0
 19 31  1  0
 19 35  2  0
 20 32  1  0
 20 36  2  0
 21 26  1  0
 22 28  1  0
 23 33  1  0
 24 41  1  0
 25 29  1  0
 26 34  1  0
 27 30  1  0
 27 34  1  0
 28 31  1  0
 29 30  1  0
 29 32  1  0
 30 39  1  0
 33 41  1  0
 37 41  2  0
 38 41  2  0
  1 42  1  0
  2 43  1  0
  3 44  1  0
  4 45  1  0
  5 46  1  0
  6 47  1  0
  7 48  1  0
  8 49  1  0
  9 50  1  0
 10 51  1  0
 11 52  1  0
 12 53  1  0
 21 54  1  0
 21 55  1  0
 21 56  1  0
 22 57  1  0
 22 58  1  0
 22 59  1  0
 23 60  1  0
 23 61  1  0
 23 62  1  0
 24 63  1  0
 24 64  1  0
 24 65  1  0
 25 66  1  0
 25 67  1  0
 26 68  1  0
 26 69  1  0
 27 70  1  0
 27 71  1  0
 28 72  1  6
 29 73  1  6
 30 74  1  1
 31 75  1  0
 32 76  1  0
 34 77  1  0
 34 78  1  0
 39 79  1  0
M  CHG  1  34   1
M  END
>  <OMEGA_C>  (260) 
HEvRQDnTwr+KV7LBlYXnQAAIoL6yzrDBdISlQAWnzr9ava/BiujRQKWaTj9JuqzBbPyPQEyAAL8m
e6vBlwLfPzyQdcDyDobB1CAeQJSZxMAWRIPBJSsZP/GQgsAhkX/B9sypP8hPzMAK+3nBjpHIQKDJ
h7/cNInBrgLhQGd/+79UcXDB69/vQE9Itj7Ie3nBJfLLQAgjCcCeFYLBFNraQD4AOz7vkobB4y2m
QKtRNT+q7qnBdvUrQDDJm8CdyofBK/fxQFrVM78uoWrB3D/IPglPq8D/e3bB0Re4QKCpW8BD1YTB
fJLVQApQqD/fzY3B7wGQQFOu2UBJ5IbB0EVgQL4YjsDzgprBEOwQQaB3Iz+CclLBhoUDQbYbM8Bh
kDvBVRqPQNws8j+PNaXBILmhQJ/lz0BTAJLB+EiLQLEElkDr1J3BqSN6QJwvlMAJwY7BOleoQPTT
G0D/hZvBStOQQB6GY0AduZXB7tGTQIhgW8CNQYvB90axQJ4ErT/UGpTBK4EBQfjt874sF1bB8/B9
QLKRvUD7eJjBvTHHQM9ej8CgaIHBH5/vQC7vDkDb3Y3Bteu+QBkowb9tekTBCYD2QKzVwL4wGS3B
9C9QQKSKSEDlx5HBmsc0v+a9ssCqZ2rBygrsQCWrm7+RrD/BL9vhQMl4GMCYhrXB+Y4EQXllfL65
w7LBy4KUQO2eIsACBbHB56niQGAj3z9quavBeQtdQBAcE7/fZqnB8hLzP0knN8DDjYnBDdFLQO71
3cDsnoTBGwb2vQijUsAM53zBWTWVP8mH68CFB3PBV+q3QCCAl7+atpDBt0TkQFRBM8AgoGXB94T+
QNAdpz/luHXBNnepQNB150CY4oHBDwBrQKCt8EDOk4fBxkWEQIH0u0D7M4PBQO+MQG+niMCsYp/B
Uwk/QH/yqsAeXp3BuFw1QCWoZMDPM5vBZrsVQYpbJz/ghEHB+yIfQRbT+j6ejFzB+UUJQeUhzD9Q
l1bBqHL5QI9cU8BHeS3BA1oBQYHPW8BlwknBILEUQd2nJ8Cj9zjBRTqMQGqbK0CxS6vBy/tdQJWD
yj+Hl6LB82atQG6I7UDwvpXBsSy8QE/PuEAdX5HB+LGpQLMRm0BzFKLBqIhkQHEgjUD1m6PBlGWS
QD0XsMC7Ko7BktHGQC6wNUAwg57Bl+mkQHOBekCYF4/BYXeIQBC0IsDOp43BlkKcQCHaGT82iZPB
8iVMQKx7t0C1rpPBN8BsQN330kDcBJ7B8NxXQD6OG0BQwozBZ+TUQMT5uL96LLLB50LsQM1gjr5R
0K/BG8qoQOWuwb8k5a/B2mHXQGg0VD+6UavBbfiTQCud1L52O6vBFsPbP/DWa8C0j4XBB40YQAGd
wMCVToPBQowRP0/eesCwn37B6iGeP1ENyMCbHHrB2hXIQKg1dr8hkojB6n7hQM+4+b8n32/BBdPw
QF3NxD7yxXfBkMfLQCoKBcAIwIHBSfvaQOTmiD5nuIXB/jKrQLiHQT/n96jB34soQCeBl8BbjIfB
8QfzQA7+Nb+peWnBvzmoPih6psAdGXbBk4m3QIDTVsCrsYTBfGzWQEfBtz/r0IzBzvORQCi3t0BL
c3PBwdJcQBBCicCCP5rB2LoSQaARBD+WDFHBeUQFQVCxPcA6JDzBRsCTQHxT+j/v0aTBrtKkQN0i
0EB8R4PBT5+qQIiukEBhyY7BXtN2QLtCkMCQiI7Ba1yrQHvDJUBWUJvBGiKRQIXKcUD8QpfByfaS
QEW1VMAV+4rBIZ2xQBeHxz/3ApPBcKwCQUxvDr8p/FTBy+GXQIyDu0B8R43BLCrGQHtkjcCKZoHB
eEbyQA0uE0AY/YzBlUTCQI8K0b+S2ELBK8b7QMhKFb97qSvByPWIQOyClUD885/B1JdFvxilrcD3
C2rBFcfvQEp7rr9mqz7BIdrkQIG3EsCov7XBohQHQVQocb6jdbHBmgOXQKlBGsDLvLHBIALpQO4B
3j/EqKnBMIBkQOYv8L5/Y6nBsvnyP7P1LMCo14jBR81EQH1s2sCZ3ITBLz4Dvs57R8CfknvBzlqG
P/SA58BwmHPBDLa2QLkvhr/oAZDB3MzkQLryM8DpkGXBugAAQejKqD/PlnPBksmbQMZcx0CpeGTB
V6ZdQIW7t0BalHTB0LadQEaKlkCtm3PBnDqLQNAYhMBSIp/BHGE6QNqdpcD8L53ByvkyQFEWWsAs
0ZrBi/oXQUPH9D7OQkDBVpggQTkcuz54nlvBq3oLQQiPvz9vXVTBvbr9QN0tYMCXMi7BLIQCQV7A
Y8CqsErBSIsWQeZRM8DiATrBnf2QQGu7LEA7RavBiSxnQJgL0z+YOKLBqA6ZQDlP8UBmL4PBTfLH
QPsd0EAPs4LBiGWpQNHDfUBnM4fB1xjMQOnNk0C8ZJHBjzmQQD6WrMBlEI7BFq3KQP8ePUBFE57B
Ev9lQPxxWkAMxpPBYO6HQBNrG8C6PY3BdeGZQAYaaD+WwZHBKwJwQKi4uEC/TY3BagmhQB0YzkCQ
YJPBzApyQEsUh0BZU6XB

>  <OMEGA_E>  (260) 
MM5ZP64Ncz8=

>  <OMEGA_NBR>  (260) 
     11747

$$$$
