270433
     RDKit          3D

 71 76  0  0  1  0  0  0  0  0999 V2000
   11.3823    1.3027  -23.5437 C   0  0  0  0  0  0  0  0  0  0  0  0
   11.1334    2.3080  -24.4995 C   0  0  0  0  0  0  0  0  0  0  0  0
   10.5969    1.2238  -22.3779 C   0  0  0  0  0  0  0  0  0  0  0  0
    7.8217    9.2788  -23.0220 C   0  0  0  0  0  0  0  0  0  0  0  0
   10.0923    3.2308  -24.2989 C   0  0  0  0  0  0  0  0  0  0  0  0
    9.5605    2.1494  -22.1715 C   0  0  0  0  0  0  0  0  0  0  0  0
    8.0959    7.9559  -22.6201 C   0  0  0  0  0  0  0  0  0  0  0  0
    4.7504    1.1291  -21.0523 C   0  0  0  0  0  0  0  0  0  0  0  0
    6.6216    9.9052  -22.6342 C   0  0  0  0  0  0  0  0  0  0  0  0
    5.2762    0.1737  -21.9315 C   0  0  0  0  0  0  0  0  0  0  0  0
    5.9634    7.8944  -21.4404 C   0  0  0  0  0  0  0  0  0  0  0  0
    9.2950    3.1493  -23.1423 C   0  0  0  0  0  0  0  0  0  0  0  0
    7.1623    7.2504  -21.8243 C   0  0  0  0  0  0  0  0  0  0  0  0
    5.4849    1.4874  -19.9002 C   0  0  0  0  0  0  0  0  0  0  0  0
    5.6814    9.2015  -21.8578 C   0  0  0  0  0  0  0  0  0  0  0  0
    6.7561    0.8736  -19.6959 C   0  0  0  0  0  0  0  0  0  0  0  0
    6.5238   -0.4108  -21.6483 C   0  0  0  0  0  0  0  0  0  0  0  0
    5.7141    4.8404  -19.7739 C   0  0  0  0  0  0  0  0  0  0  0  0
    7.5717    1.1445  -18.4508 C   0  0  0  0  0  0  0  0  0  0  0  0
    7.2768    2.5336  -17.8895 C   0  0  0  0  0  0  0  0  0  0  0  0
    5.7720    2.6440  -17.6055 C   0  0  0  0  0  0  0  0  0  0  0  0
    6.8570    3.4543  -22.7070 C   0  0  0  0  0  0  0  0  0  0  0  0
    8.6304    5.0609  -21.7213 C   0  0  0  0  0  0  0  0  0  0  0  0
    5.8145    4.4770  -22.2983 C   0  0  0  0  0  0  0  0  0  0  0  0
    3.5109    4.4538  -18.6238 C   0  0  0  0  0  0  0  0  0  0  0  0
    3.4865    2.0589  -18.4634 C   0  0  0  0  0  0  0  0  0  0  0  0
    8.2071    4.1759  -22.9228 C   0  0  1  0  0  0  0  0  0  0  0  0
    7.5004    5.9332  -21.1382 C   0  0  2  0  0  0  0  0  0  0  0  0
    4.5455    3.8591  -19.5635 C   0  0  2  0  0  0  0  0  0  0  0  0
    4.8923    2.4991  -18.8975 C   0  0  2  0  0  0  0  0  0  0  0  0
    4.4226    9.8775  -21.3712 C   0  0  0  0  0  0  0  0  0  0  0  0
    7.2344   -0.0579  -20.5552 N   0  0  0  0  0  0  0  0  0  0  0  0
    6.2814    5.0947  -21.0348 N   0  0  0  0  0  0  0  0  0  0  0  0
    2.7244    3.2992  -18.1443 N   0  0  0  0  0  0  0  0  0  0  0  0
    6.1175    5.4636  -18.7961 O   0  0  0  0  0  0  0  0  0  0  0  0
    7.1605   -1.6299  -22.7172 Cl  0  0  0  0  0  0  0  0  0  0  0  0
   12.1779    0.5906  -23.7061 H   0  0  0  0  0  0  0  0  0  0  0  0
   11.7440    2.3695  -25.3882 H   0  0  0  0  0  0  0  0  0  0  0  0
   10.7905    0.4546  -21.6449 H   0  0  0  0  0  0  0  0  0  0  0  0
    8.5354    9.8146  -23.6303 H   0  0  0  0  0  0  0  0  0  0  0  0
    9.9046    4.0017  -25.0317 H   0  0  0  0  0  0  0  0  0  0  0  0
    8.9647    2.0996  -21.2721 H   0  0  0  0  0  0  0  0  0  0  0  0
    9.0185    7.4808  -22.9194 H   0  0  0  0  0  0  0  0  0  0  0  0
    3.7932    1.5872  -21.2533 H   0  0  0  0  0  0  0  0  0  0  0  0
    6.4227   10.9241  -22.9320 H   0  0  0  0  0  0  0  0  0  0  0  0
    4.7290   -0.1114  -22.8179 H   0  0  0  0  0  0  0  0  0  0  0  0
    5.2546    7.3707  -20.8160 H   0  0  0  0  0  0  0  0  0  0  0  0
    7.3254    0.3900  -17.6892 H   0  0  0  0  0  0  0  0  0  0  0  0
    8.6408    1.0780  -18.7007 H   0  0  0  0  0  0  0  0  0  0  0  0
    7.8409    2.6827  -16.9570 H   0  0  0  0  0  0  0  0  0  0  0  0
    7.5717    3.2987  -18.6227 H   0  0  0  0  0  0  0  0  0  0  0  0
    5.4895    1.8503  -16.8982 H   0  0  0  0  0  0  0  0  0  0  0  0
    5.5717    3.6265  -17.1533 H   0  0  0  0  0  0  0  0  0  0  0  0
    6.9643    2.6991  -21.9145 H   0  0  0  0  0  0  0  0  0  0  0  0
    6.5469    2.9638  -23.6415 H   0  0  0  0  0  0  0  0  0  0  0  0
    9.0016    4.4013  -20.9231 H   0  0  0  0  0  0  0  0  0  0  0  0
    9.4409    5.7262  -22.0538 H   0  0  0  0  0  0  0  0  0  0  0  0
    5.7133    5.2454  -23.0790 H   0  0  0  0  0  0  0  0  0  0  0  0
    4.8438    3.9841  -22.1411 H   0  0  0  0  0  0  0  0  0  0  0  0
    4.0010    4.9646  -17.7818 H   0  0  0  0  0  0  0  0  0  0  0  0
    2.8657    5.1660  -19.1592 H   0  0  0  0  0  0  0  0  0  0  0  0
    2.9928    1.5108  -19.2793 H   0  0  0  0  0  0  0  0  0  0  0  0
    3.5496    1.4144  -17.5742 H   0  0  0  0  0  0  0  0  0  0  0  0
    8.1272    4.8123  -23.8164 H   0  0  0  0  0  0  0  0  0  0  0  0
    7.8041    6.1851  -20.1115 H   0  0  0  0  0  0  0  0  0  0  0  0
    4.0723    3.6609  -20.5366 H   0  0  0  0  0  0  0  0  0  0  0  0
    3.6112    9.7066  -22.0940 H   0  0  0  0  0  0  0  0  0  0  0  0
    4.1369    9.4607  -20.3941 H   0  0  0  0  0  0  0  0  0  0  0  0
    4.6022   10.9580  -21.2706 H   0  0  0  0  0  0  0  0  0  0  0  0
    2.5873    3.3686  -17.1562 H   0  0  0  0  0  0  0  0  0  0  0  0
    1.8362    3.2793  -18.6035 H   0  0  0  0  0  0  0  0  0  0  0  0
  1  2  2  0
  1  3  1  0
  2  5  1  0
  3  6  2  0
  4  7  2  0
  4  9  1  0
  5 12  2  0
  6 12  1  0
  7 13  1  0
  8 10  2  0
  8 14  1  0
  9 15  2  0
 10 17  1  0
 11 13  2  0
 11 15  1  0
 12 27  1  0
 13 28  1  0
 14 16  2  0
 14 30  1  0
 15 31  1  0
 16 19  1  0
 16 32  1  0
 17 32  2  0
 17 36  1  0
 18 29  1  0
 18 33  1  0
 18 35  2  0
 19 20  1  0
 20 21  1  0
 30 21  1  1
 22 24  1  0
 22 27  1  0
 23 27  1  0
 23 28  1  0
 24 33  1  0
 25 29  1  0
 25 34  1  0
 26 30  1  0
 26 34  1  0
 28 33  1  0
 29 30  1  0
  1 37  1  0
  2 38  1  0
  3 39  1  0
  4 40  1  0
  5 41  1  0
  6 42  1  0
  7 43  1  0
  8 44  1  0
  9 45  1  0
 10 46  1  0
 11 47  1  0
 19 48  1  0
 19 49  1  0
 20 50  1  0
 20 51  1  0
 21 52  1  0
 21 53  1  0
 22 54  1  0
 22 55  1  0
 23 56  1  0
 23 57  1  0
 24 58  1  0
 24 59  1  0
 25 60  1  0
 25 61  1  0
 26 62  1  0
 26 63  1  0
 27 64  1  6
 28 65  1  1
 29 66  1  6
 31 67  1  0
 31 68  1  0
 31 69  1  0
 34 70  1  0
 34 71  1  0
M  CHG  1  34   1
M  END
>  <OMEGA_C>  (1) 
Dx42QWu9pj+WWbzBeSIyQTq2E0AL/8PB+YwpQRKnnD/tBbPBXkv6QPR1FEERLbjBK3ohQdXFTkAc
ZMLByfcYQX+PCUBCX7HB7YgBQQCX/kDt9bTBZwOYQMiHkD8La6jBAuTTQJ17HkHYErXBPdaoQEDW
MT6mc6/BxdO+QNCe/EDehavBKbgUQWaOSUBaI7nBPDHlQEQD6EBCmK7BLoSvQK9ivj+SM5/BzM21
QEw5E0G23K7BljHYQGyhXz8pkZ3BUcPQQFhS0r6jL63Bndm2QEXkmkDpMJ7BF0vyQIOAkj9Nm5PB
39voQBgmIkCuHY/BKbS4QJc2KUAI2IzBx2zbQO0TXUAFqLXBQRYKQaLyoUBOxa3BGhC6QNRDj0D5
YrLBz7FgQMWFjkCA/ZTBICNfQMLFA0DxtJPBZlADQZSghUDoYbfB9QLwQIfcvUAdG6nBc3SRQEr7
dkAigpzB3I2cQLHwH0AgLpfBxYWNQCwKHkFJ+KrB/3/nQMBKbb0ScaTB5gDJQPcHo0AtR6jBT1wu
QH4lU0CfJ5HB1cLDQA/WrkB+XpbB0CLlQI6f0L/JvLXB2NhCQagvFz8Npr3Bfec7QfClF0AZG8vB
EqYsQarG6D7UKK3B9JAIQXMIHUHTCr3BE3keQZMNgEDWQMjBSW8PQYJgBkBKLarBr0sQQc9i70DW
WrfBjcRyQIopyz+6BqrBsobNQALJLkHGdLfBtFOXQPkX5L0Ji7bBZCWoQPLc60A6h6bB1GnqQMav
xz6Jg43B5kAKQeH6iT/+mpXBZuj6QIGxK0DXp4fBNkvyQIweU0BJ+5TBJKqvQJPW7D9sL4fBBUuy
QFUYaEDiOYnBX9veQFe+LEDhUK/B3X/RQDuuPUCxIb3BtQYQQYfXjECCYqfB5A0XQeM8t0AjbrDB
qtO2QPHZp0DLobjBHgCbQMr6fkD+ILHBjgiAQK7dnkA0QY7B8Wc3QH5PpUAORpnBEYo/QBViwT8G
PJrBlSxjQKMKtT/9l4zBKAkCQYr+mUAAiL7BKLv5QKzsxUBK5KDBIFCCQPBMakDzSqTBRh1nQC5O
G0GEwLDBm2GEQBNfF0E2J6PBoUWTQBxUL0EsKqrBCZclQGuXV0DwP4nBnAnrPw7gUUDl05TBfb01
QU/XpT96irzBsUspQfNxnD95K7PBFaQxQSbrEkCDN8TB7Nb6QNbaFEGJBLjBaroYQeCCCUAfgLHB
JAAhQVoETkDAl8LBLasBQbwz/0A+57TBmgSaQEo8kD8ch6jBqYTUQE3rHkHz47TBixKsQAoVOj7t
dq/Bttq+QDoZ/UCplKvBh2AUQcE2SUBvSrnBAzTlQJRy6EBDpq7BpDSwQLRJvj+nHJ/BcjC2QKGX
E0E/yK7BO7vYQPS9YD9gJJ3BV9XTQKWoyb7o46zBLfG2QHC2mkDdQp7BkjTxQDf2kT+m6ZLBgynn
QErKIUDAfI7BaL62QPkNKUBjqYzBAeTaQHBLXUBCrLXBou8JQWkYokDk9a3BDLy5QDmxj0DserLB
AbxfQPWOjkBKN5XB32RdQFu4A0CHK5TBDAcDQTSShUCtg7fBGtbvQJ8WvkAXOanB4miRQPbCdkBN
nZzBKhecQNe8H0CLPZfBE9uNQIRkHkEu6arB7TfpQMSmNb0m7aPB87TIQCRoo0BmX6jB9S4uQJ8Y
U0C0M5HBXQHEQHZfrkBCaZbBxpTpQPKOzb9QS7XBAndCQXRhFT/C2b3BVnksQTXL6T5lSa3B9E47
QVWPFkAbXcvB3ukIQdp1HUEt07zBbUkPQemWBkD6RarByucdQdwSf0C5esjBI24QQZz770BHSrfB
4uZ2QMauyT9+XKrB92XOQDZNL0FsLLfBcZ+bQNrv0L1Tt7bBJuinQCcu7EB8sqbBJT/oQKd3xD4x
7ozBRtsJQVkYiT/+jpTBeBj4QCggK0B63IbBioLxQFbVUkANP5TBONesQGLB7D/VE4fBJd+vQGsD
aEBXHonBl1zeQHGfLUCDQa/BD8zQQGQoPUCwFb3BDQMQQWkcjUDplKfBHtYWQUpht0Dws7DB+9W2
QMg6qEB4v7jBOoKaQCk2gEA4P7HB5m9+QNqrn0BTjY7BxvQ1QMqypECsopnBQQ4+QIRTyD/e/ZrB
5YtfQAbQrj9hVo3BVaoBQfrJmUCMr77B9735QD3yxUClAqHBHZaCQHXtaUDobqTBQSVoQIPaG0EN
xLDBkmOEQNKMF0ECKKPBQLaTQAemL0F4/KnBy2coQC3AVkBsP4nB8gzoPyufUkBpipTBwZ03QfTP
oT+x57zBQjwsQWzOnz9DMLPBWnsyQfheDUCE3sTB6tStQGjPD0HQnK7Bx70bQdRvC0Acc7HBcgIi
QaUtSUA8JMPB1Xa5QOX79UDEnKvB2n2XQN0rlD/EtKjB71zLQMXNHEHW/7PBnaaoQBy3WD5lxa/B
vxIAQYLd/0ADebPBUY8WQaycSEDMcLnBzrfiQKZd5UCgE67Bbb6uQH7VwT8CdJ/BbUr0QNDNFEGm
h7bBh7bXQNw+aj/c153BG73QQM2hub7mg63BmxG3QNgamkA4KZ7BkpzxQLeTlj9E05PBIkznQJ7I
IkAZDY/BPO62QIR7KEDQ8YzBoGrfQOayWECJ9bXBhSkLQTy/oUC8Aq7BkuO8QHXdikB/NbLBaTxg
QDS5j0Cm+5TBdt5bQNkLBkC7K5TBeOIEQT/chEDVpLfB3/vwQM1Tu0Aq8ajBbtaQQO98eECEkJzB
2VObQFvlIED/ZJfBAGQKQZ9HI0HeubvBLV/nQIAsxbsUw6TBdcvLQGOVnkAxD6jB4qIuQB/gVUCX
45DB5OXCQIyIr0BneJbBTmjlQJ2eyb9VFbbBV05EQWcKDT+ZQr7BUCowQYklBj/vFq3Bbjg7QTDM
DUCjUszBNUKOQLXOFUH5x6zB2fgSQTCnCkBqAarBFiYeQQ+Dd0BiQcnBGMaiQPM14kCYXafBSY1x
QLYFzj9mUqrBsMDCQLHxLEHZNbbBPkWXQCaal7144bbBjO0PQWol9ECdRLXBEUXqQFEIzD5P4Y3B
+O0JQWbMkT8j1pXB8cz4QO/wKkAQfIfB89fwQGhRVUCwsZTBvdGtQJi06D+NfIfBVgawQEZ2ZkAh
JYnBZyzkQBqQJkCb5a/Bt4fVQGIhO0Cgjb3B1x4SQfEtjUAjxqfByEQXQVXEuEAdyLDBA5W3QCrW
o0B+RLjBduSeQFiSckCt1bDB+i+AQHKRoEDqYY7BAz82QOMnpkD3RpnBxOE6QL9c0D9x/ZrBrj5e
QL83sT+odI3BiFwDQYoPmUBrz77BtR77QOwww0BPv6DBFImBQMAYbUBLXKTBLlsTQQruK0GRgrXB
0IcVQemiGUEMisDBsyQCQeXWLkHN7MDBAPUqQA3OWEAg6YjB403nP9SfVkAC/pPB

>  <OMEGA_E>  (1) 
kLZgPlDJYD6AvGU+

>  <OMEGA_NBR>  (1) 
     34395

$$$$
442094
     RDKit          3D

 71 76  0  0  1  0  0  0  0  0999 V2000
   11.3823    1.3027  -23.5437 C   0  0  0  0  0  0  0  0  0  0  0  0
   11.1334    2.3080  -24.4995 C   0  0  0  0  0  0  0  0  0  0  0  0
   10.5969    1.2238  -22.3779 C   0  0  0  0  0  0  0  0  0  0  0  0
    7.8217    9.2788  -23.0220 C   0  0  0  0  0  0  0  0  0  0  0  0
   10.0923    3.2308  -24.2989 C   0  0  0  0  0  0  0  0  0  0  0  0
    9.5605    2.1494  -22.1715 C   0  0  0  0  0  0  0  0  0  0  0  0
    8.0959    7.9559  -22.6201 C   0  0  0  0  0  0  0  0  0  0  0  0
    4.7504    1.1291  -21.0523 C   0  0  0  0  0  0  0  0  0  0  0  0
    6.6216    9.9052  -22.6342 C   0  0  0  0  0  0  0  0  0  0  0  0
    5.2762    0.1737  -21.9315 C   0  0  0  0  0  0  0  0  0  0  0  0
    5.9634    7.8944  -21.4404 C   0  0  0  0  0  0  0  0  0  0  0  0
    9.2950    3.1493  -23.1423 C   0  0  0  0  0  0  0  0  0  0  0  0
    7.1623    7.2504  -21.8243 C   0  0  0  0  0  0  0  0  0  0  0  0
    5.4849    1.4874  -19.9002 C   0  0  0  0  0  0  0  0  0  0  0  0
    5.6814    9.2015  -21.8578 C   0  0  0  0  0  0  0  0  0  0  0  0
    6.7561    0.8736  -19.6959 C   0  0  0  0  0  0  0  0  0  0  0  0
    6.5238   -0.4108  -21.6483 C   0  0  0  0  0  0  0  0  0  0  0  0
    5.7141    4.8404  -19.7739 C   0  0  0  0  0  0  0  0  0  0  0  0
    7.5717    1.1445  -18.4508 C   0  0  0  0  0  0  0  0  0  0  0  0
    7.2768    2.5336  -17.8895 C   0  0  0  0  0  0  0  0  0  0  0  0
    5.7720    2.6440  -17.6055 C   0  0  0  0  0  0  0  0  0  0  0  0
    6.8570    3.4543  -22.7070 C   0  0  0  0  0  0  0  0  0  0  0  0
    8.6304    5.0609  -21.7213 C   0  0  0  0  0  0  0  0  0  0  0  0
    5.8145    4.4770  -22.2983 C   0  0  0  0  0  0  0  0  0  0  0  0
    3.5109    4.4538  -18.6238 C   0  0  0  0  0  0  0  0  0  0  0  0
    3.4865    2.0589  -18.4634 C   0  0  0  0  0  0  0  0  0  0  0  0
    8.2071    4.1759  -22.9228 C   0  0  1  0  0  0  0  0  0  0  0  0
    7.5004    5.9332  -21.1382 C   0  0  2  0  0  0  0  0  0  0  0  0
    4.5455    3.8591  -19.5635 C   0  0  2  0  0  0  0  0  0  0  0  0
    4.8923    2.4991  -18.8975 C   0  0  2  0  0  0  0  0  0  0  0  0
    4.4226    9.8775  -21.3712 C   0  0  0  0  0  0  0  0  0  0  0  0
    7.2344   -0.0579  -20.5552 N   0  0  0  0  0  0  0  0  0  0  0  0
    6.2814    5.0947  -21.0348 N   0  0  0  0  0  0  0  0  0  0  0  0
    2.7244    3.2992  -18.1443 N   0  0  0  0  0  0  0  0  0  0  0  0
    6.1175    5.4636  -18.7961 O   0  0  0  0  0  0  0  0  0  0  0  0
    7.1605   -1.6299  -22.7172 Cl  0  0  0  0  0  0  0  0  0  0  0  0
   12.1779    0.5906  -23.7061 H   0  0  0  0  0  0  0  0  0  0  0  0
   11.7440    2.3695  -25.3882 H   0  0  0  0  0  0  0  0  0  0  0  0
   10.7905    0.4546  -21.6449 H   0  0  0  0  0  0  0  0  0  0  0  0
    8.5354    9.8146  -23.6303 H   0  0  0  0  0  0  0  0  0  0  0  0
    9.9046    4.0017  -25.0317 H   0  0  0  0  0  0  0  0  0  0  0  0
    8.9647    2.0996  -21.2721 H   0  0  0  0  0  0  0  0  0  0  0  0
    9.0185    7.4808  -22.9194 H   0  0  0  0  0  0  0  0  0  0  0  0
    3.7932    1.5872  -21.2533 H   0  0  0  0  0  0  0  0  0  0  0  0
    6.4227   10.9241  -22.9320 H   0  0  0  0  0  0  0  0  0  0  0  0
    4.7290   -0.1114  -22.8179 H   0  0  0  0  0  0  0  0  0  0  0  0
    5.2546    7.3707  -20.8160 H   0  0  0  0  0  0  0  0  0  0  0  0
    7.3254    0.3900  -17.6892 H   0  0  0  0  0  0  0  0  0  0  0  0
    8.6408    1.0780  -18.7007 H   0  0  0  0  0  0  0  0  0  0  0  0
    7.8409    2.6827  -16.9570 H   0  0  0  0  0  0  0  0  0  0  0  0
    7.5717    3.2987  -18.6227 H   0  0  0  0  0  0  0  0  0  0  0  0
    5.4895    1.8503  -16.8982 H   0  0  0  0  0  0  0  0  0  0  0  0
    5.5717    3.6265  -17.1533 H   0  0  0  0  0  0  0  0  0  0  0  0
    6.9643    2.6991  -21.9145 H   0  0  0  0  0  0  0  0  0  0  0  0
    6.5469    2.9638  -23.6415 H   0  0  0  0  0  0  0  0  0  0  0  0
    9.0016    4.4013  -20.9231 H   0  0  0  0  0  0  0  0  0  0  0  0
    9.4409    5.7262  -22.0538 H   0  0  0  0  0  0  0  0  0  0  0  0
    5.7133    5.2454  -23.0790 H   0  0  0  0  0  0  0  0  0  0  0  0
    4.8438    3.9841  -22.1411 H   0  0  0  0  0  0  0  0  0  0  0  0
    4.0010    4.9646  -17.7818 H   0  0  0  0  0  0  0  0  0  0  0  0
    2.8657    5.1660  -19.1592 H   0  0  0  0  0  0  0  0  0  0  0  0
    2.9928    1.5108  -19.2793 H   0  0  0  0  0  0  0  0  0  0  0  0
    3.5496    1.4144  -17.5742 H   0  0  0  0  0  0  0  0  0  0  0  0
    8.1272    4.8123  -23.8164 H   0  0  0  0  0  0  0  0  0  0  0  0
    7.8041    6.1851  -20.1115 H   0  0  0  0  0  0  0  0  0  0  0  0
    4.0723    3.6609  -20.5366 H   0  0  0  0  0  0  0  0  0  0  0  0
    3.6112    9.7066  -22.0940 H   0  0  0  0  0  0  0  0  0  0  0  0
    4.1369    9.4607  -20.3941 H   0  0  0  0  0  0  0  0  0  0  0  0
    4.6022   10.9580  -21.2706 H   0  0  0  0  0  0  0  0  0  0  0  0
    2.5873    3.3686  -17.1562 H   0  0  0  0  0  0  0  0  0  0  0  0
    1.8362    3.2793  -18.6035 H   0  0  0  0  0  0  0  0  0  0  0  0
  1  2  2  0
  1  3  1  0
  2  5  1  0
  3  6  2  0
  4  7  2  0
  4  9  1  0
  5 12  2  0
  6 12  1  0
  7 13  1  0
  8 10  2  0
  8 14  1  0
  9 15  2  0
 10 17  1  0
 11 13  2  0
 11 15  1  0
 12 27  1  0
 13 28  1  0
 14 16  2  0
 14 30  1  0
 15 31  1  0
 16 19  1  0
 16 32  1  0
 17 32  2  0
 17 36  1  0
 18 29  1  0
 18 33  1  0
 18 35  2  0
 19 20  1  0
 20 21  1  0
 30 21  1  1
 22 24  1  0
 22 27  1  0
 23 27  1  0
 23 28  1  0
 24 33  1  0
 25 29  1  0
 25 34  1  0
 26 30  1  0
 26 34  1  0
 28 33  1  0
 29 30  1  0
  1 37  1  0
  2 38  1  0
  3 39  1  0
  4 40  1  0
  5 41  1  0
  6 42  1  0
  7 43  1  0
  8 44  1  0
  9 45  1  0
 10 46  1  0
 11 47  1  0
 19 48  1  0
 19 49  1  0
 20 50  1  0
 20 51  1  0
 21 52  1  0
 21 53  1  0
 22 54  1  0
 22 55  1  0
 23 56  1  0
 23 57  1  0
 24 58  1  0
 24 59  1  0
 25 60  1  0
 25 61  1  0
 26 62  1  0
 26 63  1  0
 27 64  1  6
 28 65  1  1
 29 66  1  6
 31 67  1  0
 31 68  1  0
 31 69  1  0
 34 70  1  0
 34 71  1  0
M  CHG  1  34   1
M  END
>  <OMEGA_C>  (2) 
Dx42QWu9pj+WWbzBeSIyQTq2E0AL/8PB+YwpQRKnnD/tBbPBXkv6QPR1FEERLbjBK3ohQdXFTkAc
ZMLByfcYQX+PCUBCX7HB7YgBQQCX/kDt9bTBZwOYQMiHkD8La6jBAuTTQJ17HkHYErXBPdaoQEDW
MT6mc6/BxdO+QNCe/EDehavBKbgUQWaOSUBaI7nBPDHlQEQD6EBCmK7BLoSvQK9ivj+SM5/BzM21
QEw5E0G23K7BljHYQGyhXz8pkZ3BUcPQQFhS0r6jL63Bndm2QEXkmkDpMJ7BF0vyQIOAkj9Nm5PB
39voQBgmIkCuHY/BKbS4QJc2KUAI2IzBx2zbQO0TXUAFqLXBQRYKQaLyoUBOxa3BGhC6QNRDj0D5
YrLBz7FgQMWFjkCA/ZTBICNfQMLFA0DxtJPBZlADQZSghUDoYbfB9QLwQIfcvUAdG6nBc3SRQEr7
dkAigpzB3I2cQLHwH0AgLpfBxYWNQCwKHkFJ+KrB/3/nQMBKbb0ScaTB5gDJQPcHo0AtR6jBT1wu
QH4lU0CfJ5HB1cLDQA/WrkB+XpbB0CLlQI6f0L/JvLXB2NhCQagvFz8Npr3Bfec7QfClF0AZG8vB
EqYsQarG6D7UKK3B9JAIQXMIHUHTCr3BE3keQZMNgEDWQMjBSW8PQYJgBkBKLarBr0sQQc9i70DW
WrfBjcRyQIopyz+6BqrBsobNQALJLkHGdLfBtFOXQPkX5L0Ji7bBZCWoQPLc60A6h6bB1GnqQMav
xz6Jg43B5kAKQeH6iT/+mpXBZuj6QIGxK0DXp4fBNkvyQIweU0BJ+5TBJKqvQJPW7D9sL4fBBUuy
QFUYaEDiOYnBX9veQFe+LEDhUK/B3X/RQDuuPUCxIb3BtQYQQYfXjECCYqfB5A0XQeM8t0AjbrDB
qtO2QPHZp0DLobjBHgCbQMr6fkD+ILHBjgiAQK7dnkA0QY7B8Wc3QH5PpUAORpnBEYo/QBViwT8G
PJrBlSxjQKMKtT/9l4zBKAkCQYr+mUAAiL7BKLv5QKzsxUBK5KDBIFCCQPBMakDzSqTBRh1nQC5O
G0GEwLDBm2GEQBNfF0E2J6PBoUWTQBxUL0EsKqrBCZclQGuXV0DwP4nBnAnrPw7gUUDl05TBfb01
QU/XpT96irzBsUspQfNxnD95K7PBFaQxQSbrEkCDN8TB7Nb6QNbaFEGJBLjBaroYQeCCCUAfgLHB
JAAhQVoETkDAl8LBLasBQbwz/0A+57TBmgSaQEo8kD8ch6jBqYTUQE3rHkHz47TBixKsQAoVOj7t
dq/Bttq+QDoZ/UCplKvBh2AUQcE2SUBvSrnBAzTlQJRy6EBDpq7BpDSwQLRJvj+nHJ/BcjC2QKGX
E0E/yK7BO7vYQPS9YD9gJJ3BV9XTQKWoyb7o46zBLfG2QHC2mkDdQp7BkjTxQDf2kT+m6ZLBgynn
QErKIUDAfI7BaL62QPkNKUBjqYzBAeTaQHBLXUBCrLXBou8JQWkYokDk9a3BDLy5QDmxj0DserLB
AbxfQPWOjkBKN5XB32RdQFu4A0CHK5TBDAcDQTSShUCtg7fBGtbvQJ8WvkAXOanB4miRQPbCdkBN
nZzBKhecQNe8H0CLPZfBE9uNQIRkHkEu6arB7TfpQMSmNb0m7aPB87TIQCRoo0BmX6jB9S4uQJ8Y
U0C0M5HBXQHEQHZfrkBCaZbBxpTpQPKOzb9QS7XBAndCQXRhFT/C2b3BVnksQTXL6T5lSa3B9E47
QVWPFkAbXcvB3ukIQdp1HUEt07zBbUkPQemWBkD6RarByucdQdwSf0C5esjBI24QQZz770BHSrfB
4uZ2QMauyT9+XKrB92XOQDZNL0FsLLfBcZ+bQNrv0L1Tt7bBJuinQCcu7EB8sqbBJT/oQKd3xD4x
7ozBRtsJQVkYiT/+jpTBeBj4QCggK0B63IbBioLxQFbVUkANP5TBONesQGLB7D/VE4fBJd+vQGsD
aEBXHonBl1zeQHGfLUCDQa/BD8zQQGQoPUCwFb3BDQMQQWkcjUDplKfBHtYWQUpht0Dws7DB+9W2
QMg6qEB4v7jBOoKaQCk2gEA4P7HB5m9+QNqrn0BTjY7BxvQ1QMqypECsopnBQQ4+QIRTyD/e/ZrB
5YtfQAbQrj9hVo3BVaoBQfrJmUCMr77B9735QD3yxUClAqHBHZaCQHXtaUDobqTBQSVoQIPaG0EN
xLDBkmOEQNKMF0ECKKPBQLaTQAemL0F4/KnBy2coQC3AVkBsP4nB8gzoPyufUkBpipTBwZ03QfTP
oT+x57zBQjwsQWzOnz9DMLPBWnsyQfheDUCE3sTB6tStQGjPD0HQnK7Bx70bQdRvC0Acc7HBcgIi
QaUtSUA8JMPB1Xa5QOX79UDEnKvB2n2XQN0rlD/EtKjB71zLQMXNHEHW/7PBnaaoQBy3WD5lxa/B
vxIAQYLd/0ADebPBUY8WQaycSEDMcLnBzrfiQKZd5UCgE67Bbb6uQH7VwT8CdJ/BbUr0QNDNFEGm
h7bBh7bXQNw+aj/c153BG73QQM2hub7mg63BmxG3QNgamkA4KZ7BkpzxQLeTlj9E05PBIkznQJ7I
IkAZDY/BPO62QIR7KEDQ8YzBoGrfQOayWECJ9bXBhSkLQTy/oUC8Aq7BkuO8QHXdikB/NbLBaTxg
QDS5j0Cm+5TBdt5bQNkLBkC7K5TBeOIEQT/chEDVpLfB3/vwQM1Tu0Aq8ajBbtaQQO98eECEkJzB
2VObQFvlIED/ZJfBAGQKQZ9HI0HeubvBLV/nQIAsxbsUw6TBdcvLQGOVnkAxD6jB4qIuQB/gVUCX
45DB5OXCQIyIr0BneJbBTmjlQJ2eyb9VFbbBV05EQWcKDT+ZQr7BUCowQYklBj/vFq3Bbjg7QTDM
DUCjUszBNUKOQLXOFUH5x6zB2fgSQTCnCkBqAarBFiYeQQ+Dd0BiQcnBGMaiQPM14kCYXafBSY1x
QLYFzj9mUqrBsMDCQLHxLEHZNbbBPkWXQCaal7144bbBjO0PQWol9ECdRLXBEUXqQFEIzD5P4Y3B
+O0JQWbMkT8j1pXB8cz4QO/wKkAQfIfB89fwQGhRVUCwsZTBvdGtQJi06D+NfIfBVgawQEZ2ZkAh
JYnBZyzkQBqQJkCb5a/Bt4fVQGIhO0Cgjb3B1x4SQfEtjUAjxqfByEQXQVXEuEAdyLDBA5W3QCrW
o0B+RLjBduSeQFiSckCt1bDB+i+AQHKRoEDqYY7BAz82QOMnpkD3RpnBxOE6QL9c0D9x/ZrBrj5e
QL83sT+odI3BiFwDQYoPmUBrz77BtR77QOwww0BPv6DBFImBQMAYbUBLXKTBLlsTQQruK0GRgrXB
0IcVQemiGUEMisDBsyQCQeXWLkHN7MDBAPUqQA3OWEAg6YjB403nP9SfVkAC/pPB

>  <OMEGA_E>  (2) 
kLZgPlDJYD6AvGU+

>  <OMEGA_NBR>  (2) 
     48335

$$$$
50199283
     RDKit          3D

 77 82  0  0  1  0  0  0  0  0999 V2000
   11.4415    1.3273  -23.8913 C   0  0  0  0  0  0  0  0  0  0  0  0
   10.9331    1.0156  -22.6156 C   0  0  0  0  0  0  0  0  0  0  0  0
   10.9343    2.4307  -24.6071 C   0  0  0  0  0  0  0  0  0  0  0  0
    9.9245    1.8123  -22.0517 C   0  0  0  0  0  0  0  0  0  0  0  0
    9.9215    3.2290  -24.0455 C   0  0  0  0  0  0  0  0  0  0  0  0
    4.7381    1.1248  -21.0183 C   0  0  0  0  0  0  0  0  0  0  0  0
    5.2734    0.1827  -21.9010 C   0  0  0  0  0  0  0  0  0  0  0  0
    9.4281    2.9285  -22.7565 C   0  0  0  0  0  0  0  0  0  0  0  0
    5.4816    1.5021  -19.8798 C   0  0  0  0  0  0  0  0  0  0  0  0
    6.7675    0.9218  -19.6848 C   0  0  0  0  0  0  0  0  0  0  0  0
    6.5432   -0.3643  -21.6338 C   0  0  0  0  0  0  0  0  0  0  0  0
    5.7446    4.7980  -19.8670 C   0  0  0  0  0  0  0  0  0  0  0  0
    7.5596    1.1620  -18.4191 C   0  0  0  0  0  0  0  0  0  0  0  0
    7.2604    2.5396  -17.8398 C   0  0  0  0  0  0  0  0  0  0  0  0
    6.4196   10.1915  -22.0329 C   0  0  0  0  0  0  0  0  0  0  0  0
    5.2736    9.2186  -21.7064 C   0  0  0  0  0  0  0  0  0  0  0  0
    7.4757    9.5336  -22.9417 C   0  0  0  0  0  0  0  0  0  0  0  0
    5.8105    7.9173  -21.0975 C   0  0  0  0  0  0  0  0  0  0  0  0
    8.0165    8.2365  -22.3179 C   0  0  0  0  0  0  0  0  0  0  0  0
    5.7506    2.6625  -17.5894 C   0  0  0  0  0  0  0  0  0  0  0  0
    6.9653    3.2968  -22.7970 C   0  0  0  0  0  0  0  0  0  0  0  0
    8.4640    5.2432  -22.2758 C   0  0  0  0  0  0  0  0  0  0  0  0
    5.8218    4.2352  -22.3686 C   0  0  0  0  0  0  0  0  0  0  0  0
    3.5445    4.4829  -18.6358 C   0  0  0  0  0  0  0  0  0  0  0  0
    3.4730    2.0855  -18.4703 C   0  0  0  0  0  0  0  0  0  0  0  0
    8.3028    3.7139  -22.1467 C   0  0  2  0  0  0  0  0  0  0  0  0
    4.5552    3.8607  -19.5808 C   0  0  2  0  0  0  0  0  0  0  0  0
    6.8578    7.2525  -22.0346 C   0  0  0  0  0  0  0  0  0  0  0  0
    7.3855    5.9446  -21.3958 C   0  0  1  0  0  0  0  0  0  0  0  0
    4.8862    2.5116  -18.8928 C   0  0  2  0  0  0  0  0  0  0  0  0
    7.1459   -1.3428  -22.6047 C   0  0  0  0  0  0  0  0  0  0  0  0
    7.2629    0.0156  -20.5553 N   0  0  0  0  0  0  0  0  0  0  0  0
    6.2367    5.0186  -21.1722 N   0  0  0  0  0  0  0  0  0  0  0  0
    2.7287    3.3397  -18.1613 N   0  0  0  0  0  0  0  0  0  0  0  0
    6.2084    5.4360  -18.9264 O   0  0  0  0  0  0  0  0  0  0  0  0
   12.2227    0.7191  -24.3227 H   0  0  0  0  0  0  0  0  0  0  0  0
   11.3183    0.1653  -22.0724 H   0  0  0  0  0  0  0  0  0  0  0  0
   11.3235    2.6632  -25.5873 H   0  0  0  0  0  0  0  0  0  0  0  0
    9.5280    1.5702  -21.0767 H   0  0  0  0  0  0  0  0  0  0  0  0
    9.5230    4.0677  -24.5971 H   0  0  0  0  0  0  0  0  0  0  0  0
    3.7671    1.5589  -21.2054 H   0  0  0  0  0  0  0  0  0  0  0  0
    4.7202   -0.1220  -22.7771 H   0  0  0  0  0  0  0  0  0  0  0  0
    7.2936    0.3944  -17.6774 H   0  0  0  0  0  0  0  0  0  0  0  0
    8.6332    1.0938  -18.6485 H   0  0  0  0  0  0  0  0  0  0  0  0
    7.8025    2.6658  -16.8910 H   0  0  0  0  0  0  0  0  0  0  0  0
    7.5802    3.3156  -18.5508 H   0  0  0  0  0  0  0  0  0  0  0  0
    6.0057   11.0725  -22.5453 H   0  0  0  0  0  0  0  0  0  0  0  0
    6.9005   10.5052  -21.0947 H   0  0  0  0  0  0  0  0  0  0  0  0
    4.5905    9.6961  -20.9885 H   0  0  0  0  0  0  0  0  0  0  0  0
    4.7273    8.9836  -22.6318 H   0  0  0  0  0  0  0  0  0  0  0  0
    7.0171    9.3001  -23.9139 H   0  0  0  0  0  0  0  0  0  0  0  0
    8.3097   10.2357  -23.0889 H   0  0  0  0  0  0  0  0  0  0  0  0
    6.2846    8.1417  -20.1306 H   0  0  0  0  0  0  0  0  0  0  0  0
    4.9734    7.2208  -20.9426 H   0  0  0  0  0  0  0  0  0  0  0  0
    8.7279    7.7683  -23.0140 H   0  0  0  0  0  0  0  0  0  0  0  0
    8.5293    8.4742  -21.3742 H   0  0  0  0  0  0  0  0  0  0  0  0
    5.4502    1.8779  -16.8793 H   0  0  0  0  0  0  0  0  0  0  0  0
    5.5496    3.6509  -17.1505 H   0  0  0  0  0  0  0  0  0  0  0  0
    6.7212    2.2696  -22.4886 H   0  0  0  0  0  0  0  0  0  0  0  0
    7.0707    3.3359  -23.8913 H   0  0  0  0  0  0  0  0  0  0  0  0
    9.4672    5.5381  -21.9343 H   0  0  0  0  0  0  0  0  0  0  0  0
    8.3324    5.5402  -23.3267 H   0  0  0  0  0  0  0  0  0  0  0  0
    5.5859    4.9243  -23.1930 H   0  0  0  0  0  0  0  0  0  0  0  0
    4.9311    3.6380  -22.1236 H   0  0  0  0  0  0  0  0  0  0  0  0
    4.0517    4.9752  -17.7929 H   0  0  0  0  0  0  0  0  0  0  0  0
    2.9171    5.2155  -19.1647 H   0  0  0  0  0  0  0  0  0  0  0  0
    2.9789    1.5422  -19.2893 H   0  0  0  0  0  0  0  0  0  0  0  0
    3.5203    1.4421  -17.5794 H   0  0  0  0  0  0  0  0  0  0  0  0
    8.2485    3.4689  -21.0757 H   0  0  0  0  0  0  0  0  0  0  0  0
    4.0526    3.6430  -20.5347 H   0  0  0  0  0  0  0  0  0  0  0  0
    6.3667    7.0044  -22.9872 H   0  0  0  0  0  0  0  0  0  0  0  0
    7.8412    6.1925  -20.4258 H   0  0  0  0  0  0  0  0  0  0  0  0
    8.1546   -1.6220  -22.2661 H   0  0  0  0  0  0  0  0  0  0  0  0
    6.5150   -2.2424  -22.6577 H   0  0  0  0  0  0  0  0  0  0  0  0
    7.2086   -0.8797  -23.6005 H   0  0  0  0  0  0  0  0  0  0  0  0
    2.5820    3.4133  -17.1748 H   0  0  0  0  0  0  0  0  0  0  0  0
    1.8455    3.3348  -18.6301 H   0  0  0  0  0  0  0  0  0  0  0  0
  1  2  2  0
  1  3  1  0
  2  4  1  0
  3  5  2  0
  4  8  2  0
  5  8  1  0
  6  7  2  0
  6  9  1  0
  7 11  1  0
  8 26  1  0
  9 10  2  0
  9 30  1  0
 10 13  1  0
 10 32  1  0
 11 31  1  0
 11 32  2  0
 12 27  1  0
 12 33  1  0
 12 35  2  0
 13 14  1  0
 14 20  1  0
 15 16  1  0
 15 17  1  0
 16 18  1  0
 17 19  1  0
 18 28  1  0
 19 28  1  0
 30 20  1  1
 21 23  1  0
 21 26  1  0
 22 26  1  0
 22 29  1  0
 23 33  1  0
 24 27  1  0
 24 34  1  0
 25 30  1  0
 25 34  1  0
 27 30  1  0
 28 29  1  0
 29 33  1  0
  1 36  1  0
  2 37  1  0
  3 38  1  0
  4 39  1  0
  5 40  1  0
  6 41  1  0
  7 42  1  0
 13 43  1  0
 13 44  1  0
 14 45  1  0
 14 46  1  0
 15 47  1  0
 15 48  1  0
 16 49  1  0
 16 50  1  0
 17 51  1  0
 17 52  1  0
 18 53  1  0
 18 54  1  0
 19 55  1  0
 19 56  1  0
 20 57  1  0
 20 58  1  0
 21 59  1  0
 21 60  1  0
 22 61  1  0
 22 62  1  0
 23 63  1  0
 23 64  1  0
 24 65  1  0
 24 66  1  0
 25 67  1  0
 25 68  1  0
 26 69  1  1
 27 70  1  6
 28 71  1  0
 29 72  1  1
 31 73  1  0
 31 74  1  0
 31 75  1  0
 34 76  1  0
 34 77  1  0
M  CHG  1  34   1
M  END
>  <OMEGA_C>  (3) 
ahA3QZPmqT9SIb/Bz+0uQW/+gT+87LTBxvIuQeuQG0BZ28TB6coeQTv55z/xabDBhr4eQYyoTkAr
XcDBzJ6XQM/5jz+FJajBAsCoQDIPOz5JNa/Br9kWQXxsO0A5DbbB8GivQItEwD/eCZ/BI4/YQNz8
az91ep3BsWHRQIGGur79Ea3BitO3QPmImUC0757BDejxQEe7lD9hWpPB7VToQO2IIkDbt47BBW3N
QD8QI0FgQ7DBVsGoQFR/E0HDpq3BHDnvQLuJGEGdiLfBm++5QMBa/UDDx6jBe0MAQZPIA0H1irLB
PgW4QBRmKkAut4zBwuPeQG3/UkBWYLbBj2wHQSrIp0DWNLLBCky6QBWHh0DW8rLB8dhiQMlzj0AR
FpXB60VeQE55BUA8w5PBHNgEQf2wbUBpLLHBgMSRQHMWd0BspZzBynLbQFQU6EDjRrDBRFbsQI86
vkCnKqvBc1ucQGi9IEB6JJfBRavkQJfhq79W1rTBfmnoQEDnfjxHcaTBapPHQJiYoECgYKnBHKMu
QHK9VUA/SpHB+6rGQIzzrUAxaZfBPZBDQdwTOD/LlMLBvhc1QepNKT47lLDBGC01QTJyKkDYsszB
1nIYQZr9yD8snajBaV4YQYAqgkDlxsTBnBdxQHmKxz+QpKnBxAuXQE/f+b11N7bBQmXpQOTzyT5Q
a43BviEKQb8AjD8WMJXBA675QPCcKkDFIIfBnJDyQFUyVEAfaJTBpS7AQOwoMUGwXLTBONHcQF8V
KEHywajBg+WSQCojG0F96KfBsEWXQMS8D0HkDbXByovgQCPNFEGYT7/BWvQEQVnFI0EdtrjBCRvJ
QHZEAkGFC6HBvCWfQJUQ50BziqfBmaULQdmV+ECzHLjBLngIQSaWB0Fe/qrBUWiuQFdg8D/hCIfB
CJaxQMinaUA+NInBLBTXQHVAEUC56LPBXUPiQHx/VUBXIb/BkHkXQYA4sUBmea/BcFEFQZtJsUAg
nbrB2r+yQIKTnUAyi7nBb8udQH7VaEAx/bDBdqeBQLQ0n0DrV47BprE6QAPlpkA1UZnB16Y+QN1l
xT9mUJrBfkxhQAiWuD+ioozBu/kDQbkCXkAFm6jBr66BQBwnaUABR6TBGbzLQHIk4EC15bfBF+v6
QL4oxkAKaKPBNnkCQdycz7/zILLBJHvQQP2CD8DlQrXBx6zmQBA2Yb+8zbzB2D8lQN5zWkAFZonB
JjjsPyBuVUCKCpXBeh44QT+lsD8ckL/Bo34vQVkqHkA9QMXBhTEwQQuRhj82WbXBewgfQXyMT0Bs
ssDBk8UfQbP/6D+px7DBYc6XQI8/jT9ZL6jBqKipQLIQJj6rJa/BO2QXQdtvO0ClXLbBg9yuQKaR
vj9V+57BlPXXQETsaT+JNp3BIU7SQN8Pv76i1KzB9/S3QGLPmEC0Ep/BFoPwQDVllD/s+pLBqZ/m
QAKEIkCfdI7B94TMQCOTIkGHmK/B9NunQI/NEkEJWa3BwEjuQEmVGEHJDbfBRgO5QGdw+0CZx6jB
XvX/QGOkA0EmWbLBKi22QDJ/KkAlsIzBx9DfQGP/UEBIfrbByqEHQaZdp0CIW7LB/hO7QFRJhkBl
DbPBDtJhQNj/j0A4bZXBgohbQKalBkDGFZTBh08FQYKebEAKYLHBi3GRQJbBdkD52JzBYjvbQNAv
50CyRrDBXKvsQMJWvUCiQavB61abQCGaIEDDPZfBA7fmQEyFqr/zkrTBSo7oQECdNjzBF6TBLDzI
QENfn0A6eqnBSrAuQAOHV0BuLpHBHY3GQFhwrUBLjZfBONlEQaFBSz+zDMPBs4c1QX7CLUDPG83B
erw2QWxOVj76CbHBzUMYQSpNgkCnFMXBAY0ZQQ8TyD+A/KjB2YBxQEHmwz+t1KnBtn2YQDVOGr43
N7bBR4PnQDW4yj6sDo3Bf4AJQTRiiz/MpJTBW2X3QADqKkBRyobBdkzxQMrqU0D0IJTBAFu/QHIB
MUHraLPBKtnbQHH2JkHj+6fBt7GRQDAFGkGkiqfBH7qWQCmBD0Eu27TB/XzfQI8zFUGL277BJmQE
QX/4I0GqHrjBqZXHQPHVAEEQ7KDBNESeQMDc5EB32KfB2WkLQUIe+UAZBrjBoywIQfkdB0G4warB
dBusQBTl8D/RCIfBbn6vQG7aaUDvO4nBI1bYQDY8D0Ai+LPBOvfiQMUqU0D4QL/Br6gXQXUUsUCZ
pq/B3GYFQcL6sEDMv7rB0WOzQI5TnECdo7nBc7CeQBUCZkBMGLHBPhaBQOkaoUB84o7BusQ4QFpr
pkA63ZnBih87QNK+zj862ZrBcvJcQDSOtT9sNI3BTaYEQfSWXEAM0KjBZ6iBQE63aEDFg6TBJfTL
QJJh30DJ9bfB3Ez7QB44xUCyf6PBQX0DQXsPzL94v7HBfiDTQJOUD8C1IrXBrPToQIs6XL/UgLzB
dOQpQHo7XEC/OYnBhlfoP8kqWECEa5TBCZQ4QTVlvT8+GcHBf5kyQaxIkT8dlrbBufUtQTiDIUAN
fsbBCi4iQe0a7D9caLHB9YUdQYoGT0DTVcHBkFGXQC2zjz8XMajBSfaoQE7hLj6PGK/B48oXQeEE
OkB3t7bBVpSuQCAgwj+MCp/Byu3XQEZXdD8EWZ3Bnc/RQOJHtb4u2azBV3m4QEaYmUDDmp7B7Gfw
QBbllz+bE5PBxATmQGoLI0CERo7Bxpu7QJ+AG0GRA7XBJK3pQK3LFUEiPLjBSYmyQJptFEHYfqnB
NRnyQI9V+0ClD7fBjvG6QE7m+EDqGqjBVGS1QJSEKkBepIzBDkHgQPftUkCN6LXBv10JQe/BpUCC
hbHBTPW9QB2sikADvrLBnqlgQHPOkEChmJXBEkxaQIFnCED4Q5TB3DMGQQGsaUAiB7HBFJ2RQD6J
eEC03ZzB+YDpQOIr7EDgcqvB89byQAouu0AxhKnBIvCaQEv/IUDWSJfBmt/lQDIbqr+ghrTBGnzo
QNiJUj1pPKTBbRrLQF7GoEAcwKjBH70tQAg2WUDbT5HBSXnGQIKtrEDywpbBslVFQdQtcT9JCMXB
b6E6QWrfpj46grLBynEyQRPDMUDZlc7B8YQdQc3UyT9LXqnBOEoVQcj5gEDqesXBQpJwQE+Hxj8G
16nBe3qXQMHoIb6hEbbBBNDnQHZLzj6pSY3BuHQJQYR6kT/GxJTBeFb2QNHHKUAfhobBVe7wQP7K
VUD+upPBZDO3QHnrLEFJorXBlSqlQKRhE0FkcbrBftruQM52GkHQnsDBlAgAQYWaHkEPEbPBaW3H
QGdqHUFnBaTBLN2QQG7PF0FXkafBR+fcQHXF6UDLi7zBctQJQcmo9EDlH7nB3iO2QJ5l8ECMpp/B
VyCkQNIA50DsF63BHiWrQMA/7z+6IIfByniuQElXaUA3EYnBxmDWQNmDE0DF/bLB/RPjQHFnUUCP
rb7B4OUZQeDTrUCDRq/B+iYGQUtBsUCgrrnBhnK6QHZQokDaM7nBBTefQLGvdEDtb7HBiOx/QLBn
okCTDY/BMp03QDTIpkDKK5rBnjM6QFjH0z8vG5vBuexaQLPutz/PcI3B9CAGQTE6VkD9kajBls6C
QIBga0CnraTB1mj/QKcY/kCkN6bBiDMBQdlquUCxoqHB2SYDQYqayr+txbHBrlHSQE+ED8DL5LTB
I6jnQHLWX7/ghrzBvm4pQNDcXUDtWYnBMA3mP8DtWUCcfpTBxKI4QSHOrz94ysDBDEgxQdgjJECN
jMXB3nkvQV2Taj9vKrfBwd8gQfmTU0DSpcDBRicfQZNV1D9WN7LByZGYQJmnnT+xdajBgQGoQPu4
Zj4oNK/BrQ4YQeF3N0DJ1bbBsKuwQEt/zD8aXp/Bl83WQM2sXj/AGp3BZSHPQNjizb6Wu6zBOAa2
QHQznkCUcZ/BhPLvQCivjD/Y65LBombSQJ3nyz89+onBOrG4QCKsHEG1xbDBBQPNQD5wEEH/MLrB
ddvSQHZVGUHggabBYzDRQEDp8EA3nLfBga3WQOtzAUG7AaTBW8e9QC7uOEBG1o3BszPhQF2FUUDN
brbBRqcJQVoApUBm97HBiOa9QGCriEDcHrPBLAliQGUIkUDZT5XBHvRmQFKLCUBbLJPBV14GQS55
aEAUY7HBryKRQCscfUCoL53BKj3sQJWT6kDMU63B9mjzQHrgukCxQarBu7qeQM65KEBOi5fBFYTh
QGwztb/4WbTBtLDlQPpPjb1R6aPBssrKQAqOoUCvcqnB41MxQEkhV0AmapHBi1vCQEhAtECD7JfB
R1RFQcwoTz8PiMTBIT84QUEmOkBG9szBvv40QbgMkrtzl7PBrQIbQWWxhkAsXsTBEQoYQQ31pj/v
3qrBvSZ1QBOG3D/cL6rB7CSWQDJ+ib13OLbBpAP/QEI9Hj7xcJDBbW8EQZw37T/1aJTBv5G5QFBf
Vz+mUojBsArlQFrP4z/uqYLBrcC3QO/XLUFXsLLBYeuXQDzIFkEbfq/BU8S4QHBlEkHLUsHBVP/s
QC4NF0H3yrvBdwnzQGIfIEH+mafBts/CQAV1IUFrz5/BuSGxQEI840BxYLbBDOrgQBmL4EAaVr7B
qgDqQPPE/kB+uZzBeH+2QC+o9UA/r6LBi3qrQH1dVUCPNofBzRfXQHuDZUB3WpDB9erXQI/zEEDs
zbPBOWnkQKVuUkAIMr/BmyEaQc31rECHma/B1MIGQcYqsECIL7rBOwW4QB38nkD4w7nBKGOgQN+z
bUDvV7HBUIqBQCERoUDEp47BjEs3QEfxp0DVUpnBOvpHQPWWvT+4/pjBcFJwQEpwzj90lIvBR/EF
QdfEVUDu56jBcN+AQEeAbUArvqTBFukFQTUZ+UCPtq7BCTEBQcXJukDgSqLBJWUAQZDX4L+EX7HB
GKrLQIiSEcCu97TB74blQB/wdL9DSbzBY6skQL3RXUANnonBNtr0P53RUUDaeJXB

>  <OMEGA_E>  (3) 
MAYcPpjSID4gGEc+MExoPg==

>  <OMEGA_NBR>  (3) 
     68017

$$$$
