50093308
     RDKit          3D

 44 47  0  0  1  0  0  0  0  0999 V2000
    6.0297   -0.8824  -21.9543 C   0  0  0  0  0  0  0  0  0  0  0  0
    6.7798    0.0175  -22.7236 C   0  0  0  0  0  0  0  0  0  0  0  0
    3.0452   -4.8543  -17.2240 C   0  0  0  0  0  0  0  0  0  0  0  0
    3.8973   -4.3633  -18.2224 C   0  0  0  0  0  0  0  0  0  0  0  0
    4.9530    0.9882  -20.8340 C   0  0  0  0  0  0  0  0  0  0  0  0
    1.8213   -2.7587  -17.3302 C   0  0  0  0  0  0  0  0  0  0  0  0
    5.6818    1.9155  -21.6151 C   0  0  0  0  0  0  0  0  0  0  0  0
    5.1283   -0.3922  -20.9850 C   0  0  0  0  0  0  0  0  0  0  0  0
    1.9946   -4.0403  -16.7726 C   0  0  0  0  0  0  0  0  0  0  0  0
    6.6255    1.4049  -22.5555 C   0  0  0  0  0  0  0  0  0  0  0  0
    3.6790   -3.0652  -18.7418 C   0  0  0  0  0  0  0  0  0  0  0  0
    4.3541    3.9050  -19.1648 C   0  0  0  0  0  0  0  0  0  0  0  0
    4.5767   -2.5106  -19.7686 C   0  0  0  0  0  0  0  0  0  0  0  0
    6.5227    5.5745  -21.2129 C   0  0  0  0  0  0  0  0  0  0  0  0
    5.2043    4.2299  -22.6555 C   0  0  0  0  0  0  0  0  0  0  0  0
    7.1552    3.7965  -19.4393 C   0  0  0  0  0  0  0  0  0  0  0  0
    6.7753    4.1006  -20.8963 C   0  0  1  0  0  0  0  0  0  0  0  0
    5.4860    3.4308  -21.3692 C   0  0  2  0  0  0  0  0  0  0  0  0
    2.6526   -2.2944  -18.2891 N   0  0  0  0  0  0  0  0  0  0  0  0
    4.3178    3.6903  -20.4605 N   0  0  0  0  0  0  0  0  0  0  0  0
    3.1430    3.9832  -18.4971 N   0  0  0  0  0  0  0  0  0  0  0  0
    4.3483   -1.1968  -20.1603 N   0  0  0  0  0  0  0  0  0  0  0  0
    5.5376   -3.1608  -20.1660 O   0  0  0  0  0  0  0  0  0  0  0  0
    5.6776    5.5819  -22.3995 O   0  0  0  0  0  0  0  0  0  0  0  0
    1.1580   -4.4823  -15.8088 F   0  0  0  0  0  0  0  0  0  0  0  0
    7.4018    2.2129  -23.3126 F   0  0  0  0  0  0  0  0  0  0  0  0
    5.8291    4.1950  -18.2492 S   0  0  0  0  0  0  0  0  0  0  0  0
    6.1409   -1.9464  -22.1025 H   0  0  0  0  0  0  0  0  0  0  0  0
    7.4829   -0.3582  -23.4522 H   0  0  0  0  0  0  0  0  0  0  0  0
    3.1941   -5.8405  -16.8097 H   0  0  0  0  0  0  0  0  0  0  0  0
    4.7118   -4.9690  -18.5913 H   0  0  0  0  0  0  0  0  0  0  0  0
    4.2452    1.3537  -20.1047 H   0  0  0  0  0  0  0  0  0  0  0  0
    1.0093   -2.1357  -16.9852 H   0  0  0  0  0  0  0  0  0  0  0  0
    6.0091    6.0649  -20.3728 H   0  0  0  0  0  0  0  0  0  0  0  0
    7.4722    6.0919  -21.4146 H   0  0  0  0  0  0  0  0  0  0  0  0
    5.7463    3.7897  -23.5054 H   0  0  0  0  0  0  0  0  0  0  0  0
    4.1259    4.2371  -22.8725 H   0  0  0  0  0  0  0  0  0  0  0  0
    7.3889    2.7248  -19.3557 H   0  0  0  0  0  0  0  0  0  0  0  0
    8.0462    4.3873  -19.1801 H   0  0  0  0  0  0  0  0  0  0  0  0
    7.5959    3.7506  -21.5398 H   0  0  0  0  0  0  0  0  0  0  0  0
    3.4142    3.7006  -20.8886 H   0  0  0  0  0  0  0  0  0  0  0  0
    3.1232    4.1996  -17.5210 H   0  0  0  0  0  0  0  0  0  0  0  0
    2.2884    3.8233  -18.9912 H   0  0  0  0  0  0  0  0  0  0  0  0
    3.5151   -0.7749  -19.8029 H   0  0  0  0  0  0  0  0  0  0  0  0
  1  2  2  0
  1  8  1  0
  2 10  1  0
  3  4  2  0
  3  9  1  0
  4 11  1  0
  5  7  1  0
  5  8  2  0
  6  9  2  0
  6 19  1  0
  7 10  2  0
 18  7  1  6
  8 22  1  0
  9 25  1  0
 10 26  1  0
 11 13  1  0
 11 19  2  0
 12 20  2  0
 12 21  1  0
 12 27  1  0
 13 22  1  0
 13 23  2  0
 14 17  1  0
 14 24  1  0
 15 18  1  0
 15 24  1  0
 16 17  1  0
 16 27  1  0
 17 18  1  0
 18 20  1  0
  1 28  1  0
  2 29  1  0
  3 30  1  0
  4 31  1  0
  5 32  1  0
  6 33  1  0
 14 34  1  0
 14 35  1  0
 15 36  1  0
 15 37  1  0
 16 38  1  0
 16 39  1  0
 17 40  1  6
 20 41  1  0
 21 42  1  0
 21 43  1  0
 22 44  1  0
M  CHG  1  20   1
M  END
>  <OMEGA_C>  (1) 
kPPAQJ7nYb92oq/BhPTYQBwWjzzjybXBs+RCQKxWm8DCyonBi215QEWgi8Bsx5HBlX6eQKH9fD8e
rKbBDB/pPxuOMMA+pIrBXtG1QLow9T/Q66zB1hqkQKLJyL5G4afBfk3/P2ZKgcBBLobBLQTUQJzT
sz+ScbTBW3RrQOosRMA775XBw1SLQOXreUCUUZnBF3SSQHeuIMAqJp7B9bnQQPNhskDts6nBT4mm
QChbh0CEPrXBsvfkQBb5ckCZg5vB9s7YQMA3g0CsK6fBn42vQMGRW0Aw9KrBesQpQLHXEsD9T5LB
0iuKQEotbEAVr6PBaSZJQEPtfkAQ+pPBhyWLQE8wmb9USKHBzjOxQFtLSsDpU6HB6661QPKeskAm
MrPBQzqUP05vj8Dz8HzBtNvsQKCgDUA3gLrBzoe6QKQ9hkBR/pHBY4LEQJYk+b//0bDBKXTvQB9p
t74qnrvBmWxMQJflusBIeobB+MaWQEwCn8APu5TBsNiHQPdGrT931qDB5DCBP92uCMDD4YfB0UrA
QMoTwkB8+6LBUBzvQMLwwkAaUavB/+G3QOqJckAoC7zBWAeEQHSWh0Dg+rbBFnLsQGFjLkB42JrB
Cb0AQdpkjEDecJnB2hHzQFcKcECDUazB+oFaQCjXbEDbG6fBEeNHQBBjhkD7KozBy3QSQG+xdEDr
7ZfBPfdgQB1hRr9dbJ7BMTfBQFQcab8ejK/BwzPYQIC1JLwv7bXBED7gP1TCNMA6JIrB46YkQNNU
FcCRS5LBwo6eQOR+dj/Wo6bBqtlFQDYzm8AxLYrBPii1QKAo8j+FD63BHrOkQHUZ177evKfBcEgB
QKEUg8DX+oXBA9jSQHRdsD93sbTB5clpQHnZR8AZHZbBjWWLQJiiekBuZZnBnU6SQKPsI8AJMJ7B
o9PRQJ+CsUCAxqnB86amQPJPh0D0PbXBMuHkQDWgcEDgkZvBmvPYQHgVgkBbPKfBKF6vQF1WWkDg
BqvBC2V4QFihi8AhE5LBlBaKQNcba0DGuaPBAHJJQOeXgEDyCpTBTmqMQMT+nL98AqHBvaSwQPGX
TsCzZqHBxa20QEKjskA73bLBLNOgPzPeksAa+3vBUTfrQO+yC0Cz4rrBfbm6QGCdhkBzH5LBb1HF
QIPE/L9Hm7DBNkfuQIJ9xb4e27vBzNVtP8gVD8BPHofBk7gYQCS7rb8UrpXBFxOIQF3tqT8yw6DB
x05SQDfEusDJBYfBIIXDQLzswUBw3KLBj1jwQFf0wEB82qvBmeS4QIxcdEC5A7zBtE6EQA/zhkD/
KrfB7VvrQNytK0Cw1ZrBC/UAQQ1zikCohZnB+RLzQDLUbEC2XKzB+SZaQMlfakCSGafBpnxIQIQO
iECpQ4zBE5ESQFn9dkDj9JfB2+tlQPpVSL+1tZ3B

>  <OMEGA_E>  (1) 
AAAAANhHOT4=

>  <OMEGA_NBR>  (1) 
      3592

$$$$
603571
     RDKit          3D

 50 53  0  0  1  0  0  0  0  0999 V2000
    6.0369   -0.9370  -22.0210 C   0  0  0  0  0  0  0  0  0  0  0  0
    6.7861   -0.0282  -22.7800 C   0  0  0  0  0  0  0  0  0  0  0  0
    3.0365   -4.7120  -17.1394 C   0  0  0  0  0  0  0  0  0  0  0  0
    3.8993   -4.2918  -18.1603 C   0  0  0  0  0  0  0  0  0  0  0  0
    4.9686    0.9185  -20.8627 C   0  0  0  0  0  0  0  0  0  0  0  0
    1.8410   -2.6086  -17.3666 C   0  0  0  0  0  0  0  0  0  0  0  0
    5.7039    1.8475  -21.6176 C   0  0  0  0  0  0  0  0  0  0  0  0
    5.1381   -0.4521  -21.0483 C   0  0  0  0  0  0  0  0  0  0  0  0
    6.6410    1.3550  -22.5768 C   0  0  0  0  0  0  0  0  0  0  0  0
    1.9959   -3.8579  -16.7390 C   0  0  0  0  0  0  0  0  0  0  0  0
    3.6961   -3.0250  -18.7515 C   0  0  0  0  0  0  0  0  0  0  0  0
    4.3484    3.8374  -19.1372 C   0  0  0  0  0  0  0  0  0  0  0  0
    4.5962   -2.5326  -19.8004 C   0  0  0  0  0  0  0  0  0  0  0  0
    6.9976    5.3683  -20.6465 C   0  0  0  0  0  0  0  0  0  0  0  0
    5.2136    4.1073  -22.6149 C   0  0  0  0  0  0  0  0  0  0  0  0
    7.1059    3.2686  -19.2404 C   0  0  0  0  0  0  0  0  0  0  0  0
    6.9017    3.8399  -20.6532 C   0  0  1  0  0  0  0  0  0  0  0  0
    6.6940    5.8938  -22.0492 C   0  0  2  0  0  0  0  0  0  0  0  0
    5.5619    3.3432  -21.3008 C   0  0  2  0  0  0  0  0  0  0  0  0
    6.8148    7.4121  -22.0473 C   0  0  0  0  0  0  0  0  0  0  0  0
    2.6791   -2.2149  -18.3467 N   0  0  0  0  0  0  0  0  0  0  0  0
    4.3642    3.6301  -20.4363 N   0  0  0  0  0  0  0  0  0  0  0  0
    3.1216    4.0955  -18.5484 N   0  0  0  0  0  0  0  0  0  0  0  0
    4.3459   -1.2498  -20.2492 N   0  0  0  0  0  0  0  0  0  0  0  0
    5.5747   -3.1824  -20.1535 O   0  0  0  0  0  0  0  0  0  0  0  0
    5.3534    5.5165  -22.4160 O   0  0  0  0  0  0  0  0  0  0  0  0
    7.4388    2.1767  -23.2975 F   0  0  0  0  0  0  0  0  0  0  0  0
    5.7795    3.8122  -18.1041 S   0  0  0  0  0  0  0  0  0  0  0  0
    0.9021   -4.3392  -15.4740 Cl  0  0  0  0  0  0  0  0  0  0  0  0
    6.1469   -1.9996  -22.1794 H   0  0  0  0  0  0  0  0  0  0  0  0
    7.4783   -0.3922  -23.5248 H   0  0  0  0  0  0  0  0  0  0  0  0
    3.1692   -5.6751  -16.6690 H   0  0  0  0  0  0  0  0  0  0  0  0
    4.7079   -4.9271  -18.4904 H   0  0  0  0  0  0  0  0  0  0  0  0
    4.2611    1.2720  -20.1273 H   0  0  0  0  0  0  0  0  0  0  0  0
    1.0384   -1.9548  -17.0587 H   0  0  0  0  0  0  0  0  0  0  0  0
    6.2687    5.7801  -19.9330 H   0  0  0  0  0  0  0  0  0  0  0  0
    8.0124    5.6726  -20.3507 H   0  0  0  0  0  0  0  0  0  0  0  0
    5.8949    3.7835  -23.4155 H   0  0  0  0  0  0  0  0  0  0  0  0
    4.1761    3.8817  -22.9028 H   0  0  0  0  0  0  0  0  0  0  0  0
    7.1032    2.1699  -19.2945 H   0  0  0  0  0  0  0  0  0  0  0  0
    8.0749    3.6141  -18.8510 H   0  0  0  0  0  0  0  0  0  0  0  0
    7.7216    3.4615  -21.2814 H   0  0  0  0  0  0  0  0  0  0  0  0
    7.4203    5.4720  -22.7595 H   0  0  0  0  0  0  0  0  0  0  0  0
    6.5976    7.7990  -23.0539 H   0  0  0  0  0  0  0  0  0  0  0  0
    6.0974    7.8360  -21.3291 H   0  0  0  0  0  0  0  0  0  0  0  0
    7.8365    7.6981  -21.7572 H   0  0  0  0  0  0  0  0  0  0  0  0
    3.4800    3.6674  -20.9020 H   0  0  0  0  0  0  0  0  0  0  0  0
    3.0645    4.2610  -17.5639 H   0  0  0  0  0  0  0  0  0  0  0  0
    2.2930    4.1163  -19.1078 H   0  0  0  0  0  0  0  0  0  0  0  0
    3.4782   -0.8478  -19.9568 H   0  0  0  0  0  0  0  0  0  0  0  0
  1  2  2  0
  1  8  1  0
  2  9  1  0
  3  4  2  0
  3 10  1  0
  4 11  1  0
  5  7  1  0
  5  8  2  0
  6 10  2  0
  6 21  1  0
  7  9  2  0
 19  7  1  6
  8 24  1  0
  9 27  1  0
 10 29  1  0
 11 13  1  0
 11 21  2  0
 12 22  2  0
 12 23  1  0
 12 28  1  0
 13 24  1  0
 13 25  2  0
 14 17  1  0
 14 18  1  0
 15 19  1  0
 15 26  1  0
 16 17  1  0
 16 28  1  0
 17 19  1  0
 18 20  1  0
 18 26  1  0
 19 22  1  0
  1 30  1  0
  2 31  1  0
  3 32  1  0
  4 33  1  0
  5 34  1  0
  6 35  1  0
 14 36  1  0
 14 37  1  0
 15 38  1  0
 15 39  1  0
 16 40  1  0
 16 41  1  0
 17 42  1  6
 18 43  1  6
 20 44  1  0
 20 45  1  0
 20 46  1  0
 22 47  1  0
 23 48  1  0
 23 49  1  0
 24 50  1  0
M  CHG  1  22   1
M  END
>  <OMEGA_C>  (2) 
ry7BQDzcb7/7KrDBjCfZQJi35rx1PbbBfFVCQLrIlsBqHYnBkI55QC5WicBTSJHBFP+eQGIhaz/Z
5qbBaaXrP8/zJsDF7orBooa2QF187D/V8KzBjmukQBd85777YqjBB4PUQJFvrT9PnbTBdnr/P3Lo
dsBg6YXBVY1sQKCZQcANA5bBbiaLQOuXdUAPGZnB1BOTQIkVIsBEZ57BS+zfQDjJq0AOLKXBd9Wm
QLpug0BI67TBwGPjQIgwUUBC7JnB09rcQPTAdUDIOaXB5TTWQPCZvEDPZLDBvPqxQO32VUD4Z6rB
dxLaQAow7UDYYLDBxnYrQGvADcAKxpLBlaeLQClTaECHfaPBwshHQBgOg0AhY5TBARKLQFz4n790
/qHBP2SyQCStS8BKOqHBbk+rQOeGsEDwU7PBmwruQK5OC0A9YbrBTfG4QDz7c0A91ZDBDfBmP97a
isCslXfBO7PEQOHy/79yb7HBSE7vQEXTyL67MrzBgdNKQD+atcAIWoXBNaeWQLKqncBc7JPBVFuI
QMbPoj+fBKHBiuqEPxU3+r9CeIjBXpnIQM72uEC0dp/B/TIAQbCFtUBBzqLBD6O8QD0kckDbUrvB
5aKFQBdueEDiOLfBNE3jQAPgCkAXW5rB+DIBQURNZ0DEzpbBnxf3QOuJXUA8QKrBZHPtQIAar0Bm
E7bB7h/TQI+R+UBJbrjBNh7DQDXA+kD5oarBz8T6QDlX9kCtDq7B3rheQEm2akA3N6fB2yBEQAVa
iEDFgozBmMASQI24g0DS3JjBl5teQEQIWb+ap5/B

>  <OMEGA_E>  (2) 
4L+9PQ==

>  <OMEGA_NBR>  (2) 
     49709

$$$$
663041
     RDKit          3D

 54 57  0  0  1  0  0  0  0  0999 V2000
    6.0843   -0.9333  -21.9440 C   0  0  0  0  0  0  0  0  0  0  0  0
    3.0056   -4.6964  -17.1505 C   0  0  0  0  0  0  0  0  0  0  0  0
    6.8689   -0.0335  -22.6727 C   0  0  0  0  0  0  0  0  0  0  0  0
    3.8750   -4.2870  -18.1653 C   0  0  0  0  0  0  0  0  0  0  0  0
    5.0071    0.9313  -20.8051 C   0  0  0  0  0  0  0  0  0  0  0  0
    1.7868   -2.6103  -17.4395 C   0  0  0  0  0  0  0  0  0  0  0  0
    5.7736    1.8537  -21.5402 C   0  0  0  0  0  0  0  0  0  0  0  0
    5.1672   -0.4422  -20.9935 C   0  0  0  0  0  0  0  0  0  0  0  0
    1.9479   -3.8485  -16.7898 C   0  0  0  0  0  0  0  0  0  0  0  0
    6.7301    1.3500  -22.4740 C   0  0  0  0  0  0  0  0  0  0  0  0
    3.6609   -3.0352  -18.7827 C   0  0  0  0  0  0  0  0  0  0  0  0
    4.4059    3.8570  -19.1161 C   0  0  0  0  0  0  0  0  0  0  0  0
    4.5847   -2.5353  -19.7973 C   0  0  0  0  0  0  0  0  0  0  0  0
    6.8958    5.5083  -20.7811 C   0  0  0  0  0  0  0  0  0  0  0  0
    5.1818    4.0206  -22.6443 C   0  0  0  0  0  0  0  0  0  0  0  0
    7.1909    3.4686  -19.2936 C   0  0  0  0  0  0  0  0  0  0  0  0
    6.9073    3.9725  -20.7183 C   0  0  1  0  0  0  0  0  0  0  0  0
    6.5061    5.9583  -22.1943 C   0  0  2  0  0  0  0  0  0  0  0  0
    5.5845    3.3600  -21.2942 C   0  0  2  0  0  0  0  0  0  0  0  0
    6.4747    7.4832  -22.2496 C   0  0  0  0  0  0  0  0  0  0  0  0
   -0.1874   -4.7222  -16.5261 C   0  0  0  0  0  0  0  0  0  0  0  0
    2.6303   -2.2290  -18.4127 N   0  0  0  0  0  0  0  0  0  0  0  0
    4.3985    3.6511  -20.4155 N   0  0  0  0  0  0  0  0  0  0  0  0
    3.1816    4.0198  -18.4889 N   0  0  0  0  0  0  0  0  0  0  0  0
    4.3461   -1.2449  -20.2335 N   0  0  0  0  0  0  0  0  0  0  0  0
    5.5851   -3.1736  -20.1075 O   0  0  0  0  0  0  0  0  0  0  0  0
    5.1997    5.4450  -22.5169 O   0  0  0  0  0  0  0  0  0  0  0  0
    1.0211   -4.2789  -15.8881 O   0  0  0  0  0  0  0  0  0  0  0  0
    7.5302    2.1633  -23.2003 F   0  0  0  0  0  0  0  0  0  0  0  0
   -0.7962   -5.6262  -15.7233 F   0  0  0  0  0  0  0  0  0  0  0  0
   -1.0159   -3.6658  -16.7460 F   0  0  0  0  0  0  0  0  0  0  0  0
    5.8671    3.9629  -18.1321 S   0  0  0  0  0  0  0  0  0  0  0  0
    6.1807   -1.9963  -22.1085 H   0  0  0  0  0  0  0  0  0  0  0  0
    3.1452   -5.6455  -16.6544 H   0  0  0  0  0  0  0  0  0  0  0  0
    7.5847   -0.4042  -23.3915 H   0  0  0  0  0  0  0  0  0  0  0  0
    4.6966   -4.9173  -18.4721 H   0  0  0  0  0  0  0  0  0  0  0  0
    4.2858    1.2905  -20.0860 H   0  0  0  0  0  0  0  0  0  0  0  0
    0.9750   -1.9587  -17.1519 H   0  0  0  0  0  0  0  0  0  0  0  0
    6.1658    5.8995  -20.0572 H   0  0  0  0  0  0  0  0  0  0  0  0
    7.8969    5.8929  -20.5366 H   0  0  0  0  0  0  0  0  0  0  0  0
    5.8937    3.7159  -23.4255 H   0  0  0  0  0  0  0  0  0  0  0  0
    4.1694    3.6925  -22.9226 H   0  0  0  0  0  0  0  0  0  0  0  0
    7.2607    2.3709  -19.3099 H   0  0  0  0  0  0  0  0  0  0  0  0
    8.1458    3.8916  -18.9482 H   0  0  0  0  0  0  0  0  0  0  0  0
    7.7299    3.6236  -21.3599 H   0  0  0  0  0  0  0  0  0  0  0  0
    7.2529    5.5851  -22.9104 H   0  0  0  0  0  0  0  0  0  0  0  0
    6.1953    7.8082  -23.2626 H   0  0  0  0  0  0  0  0  0  0  0  0
    5.7366    7.8610  -21.5268 H   0  0  0  0  0  0  0  0  0  0  0  0
    7.4696    7.8796  -21.9988 H   0  0  0  0  0  0  0  0  0  0  0  0
    0.0747   -5.1931  -17.4850 H   0  0  0  0  0  0  0  0  0  0  0  0
    3.5079    3.6927  -20.8683 H   0  0  0  0  0  0  0  0  0  0  0  0
    3.1431    4.1921  -17.5046 H   0  0  0  0  0  0  0  0  0  0  0  0
    2.3363    3.9651  -19.0203 H   0  0  0  0  0  0  0  0  0  0  0  0
    3.4697   -0.8457  -19.9639 H   0  0  0  0  0  0  0  0  0  0  0  0
  1  3  2  0
  1  8  1  0
  2  4  2  0
  2  9  1  0
  3 10  1  0
  4 11  1  0
  5  7  1  0
  5  8  2  0
  6  9  2  0
  6 22  1  0
  7 10  2  0
 19  7  1  6
  8 25  1  0
  9 28  1  0
 10 29  1  0
 11 13  1  0
 11 22  2  0
 12 23  2  0
 12 24  1  0
 12 32  1  0
 13 25  1  0
 13 26  2  0
 14 17  1  0
 14 18  1  0
 15 19  1  0
 15 27  1  0
 16 17  1  0
 16 32  1  0
 17 19  1  0
 18 20  1  0
 18 27  1  0
 19 23  1  0
 21 28  1  0
 21 30  1  0
 21 31  1  0
  1 33  1  0
  2 34  1  0
  3 35  1  0
  4 36  1  0
  5 37  1  0
  6 38  1  0
 14 39  1  0
 14 40  1  0
 15 41  1  0
 15 42  1  0
 16 43  1  0
 16 44  1  0
 17 45  1  6
 18 46  1  6
 20 47  1  0
 20 48  1  0
 20 49  1  0
 21 50  1  0
 23 51  1  0
 24 52  1  0
 24 53  1  0
 25 54  1  0
M  CHG  1  23   1
M  END
>  <OMEGA_C>  (3) 
w7LCQCTrbr9Xja/BEVxAQA5JlsA8NInBBM7bQNAeCb3BYbXBrAB4QDwvicCjUpHBCzqgQDhobj/d
cKbBXrbkP3QOJ8AehIvBasG4QIpE7T9oUqzBjVmlQCtn4r628qfBvFP5P1VOdsCTUYbBSl3XQKbL
rD+yyrPBQExqQP5AQsAGQ5bB4vyMQHHYdkDU7ZjBurWSQNlBIsDWYJ7BGKrcQPhDsECuP6bBI9Gl
QOuogECPJ7XBQBzmQLr8XUA7WZrBnwjdQOc8fkATv6XBvjHQQL+qvkDgjbHBb7SyQNcJV0B+WqrB
oDDPQAl270Aj/7HBqu4/vpkcl8BmNYTBk1YoQK+nDsA/TZPB3cCMQDGsaUD5UqPBZJ9LQHeigEAy
6ZPBPhOLQL5Yn78y3qHB/7iyQJ0bS8Ai3KDBomOmQIQ9rkCzIrTBQLOCP/XsiMCMNX7Bp/fwQDpz
CkAvmrnB+9VLvz0KtMDXknvB7QeCvxGcasDB94XBa7+7QLSffUCADpHB+MfFQD2H/79G3rDBA0tJ
QEuotMBNPIXBqLXyQCntzr7XIbvBzUqWQJ9ancDuxpPBBSWJQN8tpT8rsKDBm5Z5P1q2+r8DN4nB
ME7FQBTJvEAUdaDBb7P8QAeTvEAES6TBDJm8QNzQbUCFZ7vBrmuFQK1SbEB+YbfB11foQJu8F0Ck
eprBWVUCQV8PeUAClpfBX1v3QGrpZ0AL4arBAxjoQOG4skCMSLfB6D/GQIrc+UDnGbrBB5K3QJmN
+0DlNqzBXQfvQJgl/ECK/a/BrQSZPbgtpsBV4YvBl4FgQMhVbEBX8qbBmyhJQO0lhkBdCYzB0IUV
QGzEfUCjKZjBXBBeQBqBWL8dtp/B

>  <OMEGA_E>  (3) 
GPKCPg==

>  <OMEGA_NBR>  (3) 
    126092

$$$$
50224501
     RDKit          3D

 43 46  0  0  1  0  0  0  0  0999 V2000
    6.1457   -0.8628  -21.8673 C   0  0  0  0  0  0  0  0  0  0  0  0
    6.8768    0.0585  -22.6284 C   0  0  0  0  0  0  0  0  0  0  0  0
    2.9553   -4.8385  -17.2413 C   0  0  0  0  0  0  0  0  0  0  0  0
    3.8393   -4.3772  -18.2279 C   0  0  0  0  0  0  0  0  0  0  0  0
    4.9661    0.9832  -20.8116 C   0  0  0  0  0  0  0  0  0  0  0  0
    1.8022   -2.7046  -17.3681 C   0  0  0  0  0  0  0  0  0  0  0  0
    5.6641    1.9379  -21.5897 C   0  0  0  0  0  0  0  0  0  0  0  0
    5.1991   -0.3937  -20.9343 C   0  0  0  0  0  0  0  0  0  0  0  0
    6.6575    1.4441  -22.4960 C   0  0  0  0  0  0  0  0  0  0  0  0
    1.9240   -3.9894  -16.8078 C   0  0  0  0  0  0  0  0  0  0  0  0
    3.6693   -3.0735  -18.7520 C   0  0  0  0  0  0  0  0  0  0  0  0
    4.3574    3.8915  -19.2230 C   0  0  0  0  0  0  0  0  0  0  0  0
    4.5932   -2.5394  -19.7677 C   0  0  0  0  0  0  0  0  0  0  0  0
    7.4272    4.4817  -20.9742 C   0  0  0  0  0  0  0  0  0  0  0  0
    5.3583    4.3358  -22.7234 C   0  0  0  0  0  0  0  0  0  0  0  0
    7.3380    3.7546  -19.5938 C   0  0  0  0  0  0  0  0  0  0  0  0
    6.0071    4.7653  -21.4148 C   0  0  1  0  0  0  0  0  0  0  0  0
    5.2179    3.4374  -21.4635 C   0  0  2  0  0  0  0  0  0  0  0  0
    2.6617   -2.2703  -18.3140 N   0  0  0  0  0  0  0  0  0  0  0  0
    4.1307    3.6845  -20.5112 N   0  0  0  0  0  0  0  0  0  0  0  0
    3.2400    3.9161  -18.4047 N   0  0  0  0  0  0  0  0  0  0  0  0
    4.4092   -1.2097  -20.1303 N   0  0  0  0  0  0  0  0  0  0  0  0
    5.5180   -3.2243  -20.1912 O   0  0  0  0  0  0  0  0  0  0  0  0
    7.4112    2.2446  -23.2765 F   0  0  0  0  0  0  0  0  0  0  0  0
    5.9478    4.3673  -18.4622 S   0  0  0  0  0  0  0  0  0  0  0  0
    0.8047   -4.5153  -15.5812 Cl  0  0  0  0  0  0  0  0  0  0  0  0
    6.3059   -1.9233  -21.9944 H   0  0  0  0  0  0  0  0  0  0  0  0
    7.6193   -0.2985  -23.3268 H   0  0  0  0  0  0  0  0  0  0  0  0
    3.0657   -5.8280  -16.8229 H   0  0  0  0  0  0  0  0  0  0  0  0
    4.6399   -5.0090  -18.5833 H   0  0  0  0  0  0  0  0  0  0  0  0
    4.2300    1.3270  -20.1001 H   0  0  0  0  0  0  0  0  0  0  0  0
    1.0068   -2.0542  -17.0354 H   0  0  0  0  0  0  0  0  0  0  0  0
    7.9861    5.4234  -20.8702 H   0  0  0  0  0  0  0  0  0  0  0  0
    7.9297    3.8364  -21.7099 H   0  0  0  0  0  0  0  0  0  0  0  0
    4.4847    4.8821  -23.1085 H   0  0  0  0  0  0  0  0  0  0  0  0
    5.9854    4.0070  -23.5653 H   0  0  0  0  0  0  0  0  0  0  0  0
    7.1792    2.6824  -19.7813 H   0  0  0  0  0  0  0  0  0  0  0  0
    8.2943    3.8973  -19.0693 H   0  0  0  0  0  0  0  0  0  0  0  0
    5.5017    5.5865  -20.8855 H   0  0  0  0  0  0  0  0  0  0  0  0
    3.1881    3.6971  -20.8450 H   0  0  0  0  0  0  0  0  0  0  0  0
    3.3284    4.1858  -17.4458 H   0  0  0  0  0  0  0  0  0  0  0  0
    2.3450    3.6643  -18.7728 H   0  0  0  0  0  0  0  0  0  0  0  0
    3.5884   -0.7760  -19.7585 H   0  0  0  0  0  0  0  0  0  0  0  0
  1  2  2  0
  1  8  1  0
  2  9  1  0
  3  4  2  0
  3 10  1  0
  4 11  1  0
  5  7  1  0
  5  8  2  0
  6 10  2  0
  6 19  1  0
  7  9  2  0
 18  7  1  6
  8 22  1  0
  9 24  1  0
 10 26  1  0
 11 13  1  0
 11 19  2  0
 12 20  2  0
 12 21  1  0
 12 25  1  0
 13 22  1  0
 13 23  2  0
 14 16  1  0
 14 17  1  0
 15 17  1  0
 15 18  1  0
 16 25  1  0
 17 18  1  0
 18 20  1  0
  1 27  1  0
  2 28  1  0
  3 29  1  0
  4 30  1  0
  5 31  1  0
  6 32  1  0
 14 33  1  0
 14 34  1  0
 15 35  1  0
 15 36  1  0
 16 37  1  0
 16 38  1  0
 17 39  1  1
 20 40  1  0
 21 41  1  0
 21 42  1  0
 22 43  1  0
M  CHG  1  20   1
M  END
>  <OMEGA_C>  (4) 
RqnEQATjXL9S8K7BvA7cQBx+bz34BrXB6yM9QEnVmsAm7onBYbd1QLkRjMDX0pHBkuqeQDCzez81
fqbBJK7mP5AXLcDj8YrBbEC1QIUN+D/Nt6zB1F6mQK2Tyb5xeafBpgrVQMTWuD/Q97PBBEb2P8NS
f8B5dobBTtVqQLazRMAdBJbB+m+LQAMOeUC/yJnBnvuSQJmFIsAtJJ7BsqvtQFRqj0A8y6fBmner
QPy+ikCgybXB6tDqQKpKcEATwJzB9DnAQEd9mEBuUavBbvmmQL/9W0AmtavBi1gqQNpLEcAjg5LB
ei6EQJ/Oa0DZFqTB5lxPQN2hekC/PJPBDhiNQOfXmr/KCqHBJJOwQMpaTsChh6HB6ijtQHKnD0A4
NrrBolS+QPPAi0CIspPB/P5NPzp9kMCoTHnBFMrJQHwu9r+f9K/BPNHzQFzRmL4ynbrBsDREQFl/
usA0lYbBrXmUQO9JoMCoqpTB6FuHQMzZqT/4zKDBjN6APzZ3A8B3SIjBPI7/QMqMrUA/9qbB9L/9
QGKIdUDIra3BeoKPQB86nEA73rjBr4i/QHM5gECqhbzBv7vlQN+rK0AvQJ7BebUEQatteUDkjZjB
lA2wQNfEskB8FafBcQpMQFqdbECbwqbB+gRVQMnxhUDskIvB3RQWQLODakCoLpbBD6hlQOCpRr9x
EZ7B

>  <OMEGA_E>  (4) 
cOB9Pg==

>  <OMEGA_NBR>  (4) 
    133979

$$$$
50093293
     RDKit          3D

 43 46  0  0  1  0  0  0  0  0999 V2000
    6.0581   -0.9283  -21.9250 C   0  0  0  0  0  0  0  0  0  0  0  0
    6.7586   -0.0254  -22.7365 C   0  0  0  0  0  0  0  0  0  0  0  0
    2.9790   -4.9199  -17.2744 C   0  0  0  0  0  0  0  0  0  0  0  0
    3.8648   -4.4259  -18.2413 C   0  0  0  0  0  0  0  0  0  0  0  0
    4.9260    0.9342  -20.8435 C   0  0  0  0  0  0  0  0  0  0  0  0
    1.7991   -2.7981  -17.3645 C   0  0  0  0  0  0  0  0  0  0  0  0
    5.6135    1.8550  -21.6569 C   0  0  0  0  0  0  0  0  0  0  0  0
    5.1438   -0.4420  -20.9640 C   0  0  0  0  0  0  0  0  0  0  0  0
    6.5444    1.3580  -22.6136 C   0  0  0  0  0  0  0  0  0  0  0  0
    1.9332   -4.0944  -16.8325 C   0  0  0  0  0  0  0  0  0  0  0  0
    3.6835   -3.1134  -18.7363 C   0  0  0  0  0  0  0  0  0  0  0  0
    4.3676    3.8324  -19.1975 C   0  0  0  0  0  0  0  0  0  0  0  0
    4.5976   -2.5617  -19.7469 C   0  0  0  0  0  0  0  0  0  0  0  0
    6.6238    5.3989  -20.4742 C   0  0  0  0  0  0  0  0  0  0  0  0
    5.4382    4.3935  -22.5692 C   0  0  0  0  0  0  0  0  0  0  0  0
    7.1005    4.7561  -19.1575 C   0  0  0  0  0  0  0  0  0  0  0  0
    6.5677    4.3127  -21.5384 C   0  0  2  0  0  0  0  0  0  0  0  0
    5.3804    3.3487  -21.4281 C   0  0  2  0  0  0  0  0  0  0  0  0
    2.6639   -2.3304  -18.2896 N   0  0  0  0  0  0  0  0  0  0  0  0
    4.2662    3.7253  -20.5039 N   0  0  0  0  0  0  0  0  0  0  0  0
    3.1957    3.9806  -18.4703 N   0  0  0  0  0  0  0  0  0  0  0  0
    4.3833   -1.2433  -20.1231 N   0  0  0  0  0  0  0  0  0  0  0  0
    5.5423   -3.2257  -20.1596 O   0  0  0  0  0  0  0  0  0  0  0  0
    7.2422    2.1717  -23.4365 F   0  0  0  0  0  0  0  0  0  0  0  0
    5.8877    3.6286  -18.3147 S   0  0  0  0  0  0  0  0  0  0  0  0
    0.8106   -4.6671  -15.6312 Cl  0  0  0  0  0  0  0  0  0  0  0  0
    6.2166   -1.9910  -22.0339 H   0  0  0  0  0  0  0  0  0  0  0  0
    7.4683   -0.3955  -23.4616 H   0  0  0  0  0  0  0  0  0  0  0  0
    3.0987   -5.9169  -16.8767 H   0  0  0  0  0  0  0  0  0  0  0  0
    4.6759   -5.0398  -18.6040 H   0  0  0  0  0  0  0  0  0  0  0  0
    4.2176    1.2971  -20.1135 H   0  0  0  0  0  0  0  0  0  0  0  0
    0.9904   -2.1669  -17.0267 H   0  0  0  0  0  0  0  0  0  0  0  0
    5.6241    5.8362  -20.3349 H   0  0  0  0  0  0  0  0  0  0  0  0
    7.3286    6.1856  -20.7814 H   0  0  0  0  0  0  0  0  0  0  0  0
    4.7498    5.2514  -22.5658 H   0  0  0  0  0  0  0  0  0  0  0  0
    5.6138    4.0683  -23.6052 H   0  0  0  0  0  0  0  0  0  0  0  0
    8.0064    4.1720  -19.3769 H   0  0  0  0  0  0  0  0  0  0  0  0
    7.3481    5.5675  -18.4573 H   0  0  0  0  0  0  0  0  0  0  0  0
    7.5249    3.8898  -21.8772 H   0  0  0  0  0  0  0  0  0  0  0  0
    3.3725    3.9106  -20.9126 H   0  0  0  0  0  0  0  0  0  0  0  0
    3.2228    3.9708  -17.4708 H   0  0  0  0  0  0  0  0  0  0  0  0
    2.3236    4.0973  -18.9457 H   0  0  0  0  0  0  0  0  0  0  0  0
    3.5692   -0.8110  -19.7353 H   0  0  0  0  0  0  0  0  0  0  0  0
  1  2  2  0
  1  8  1  0
  2  9  1  0
  3  4  2  0
  3 10  1  0
  4 11  1  0
  5  7  1  0
  5  8  2  0
  6 10  2  0
  6 19  1  0
  7  9  2  0
 18  7  1  6
  8 22  1  0
  9 24  1  0
 10 26  1  0
 11 13  1  0
 11 19  2  0
 12 20  2  0
 12 21  1  0
 12 25  1  0
 13 22  1  0
 13 23  2  0
 14 16  1  0
 14 17  1  0
 15 17  1  0
 15 18  1  0
 16 25  1  0
 17 18  1  0
 18 20  1  0
  1 27  1  0
  2 28  1  0
  3 29  1  0
  4 30  1  0
  5 31  1  0
  6 32  1  0
 14 33  1  0
 14 34  1  0
 15 35  1  0
 15 36  1  0
 16 37  1  0
 16 38  1  0
 17 39  1  6
 20 40  1  0
 21 41  1  0
 21 42  1  0
 22 43  1  0
M  CHG  1  20   1
M  END
>  <OMEGA_C>  (5) 
N9zBQA2lbb95Zq/BkEbYQIDDz7xm5LXBT6g+QA9wncDrMYrBFVh3QNygjcAY7pHBjqGdQNIqbz+A
v6bBwkfmP8AUM8Bo6orBfqGzQBBy7T9DQa3BQJqkQDJT4r4wtqfBYmvRQB3TrT+v6LTBdHL3PwAF
g8D6qIbB0L5rQFJBR8Dx45XBJMOLQOhFdUCJlJnBwR+TQJLzI8C2+Z3BUvbTQAXErEAdy6PBsAWu
QCeXjECqjbTBbjfjQNoxmEB+QpnBTSrSQO0BikCmTqzBBCysQCRRVkDKbKvBNn0qQPQkFcAHUZLB
aYSIQA5sbkAPCKTBj4VMQOjCfkBFw5PBx0OMQFokn78t/KDBkFqxQCtxTsDFRqHBEMDnQJf9CkDm
fbvBCmi8QGo7aECahJLBCINPP/FYlcBcGXrBUe7GQJ/a/r+ARbDBEfzuQLuByr5nsbvB8VBGQBdX
vcBtA4fByKCVQNNFocAX1ZTB9/aGQPMIpj9Z6KDBNox9P72uCsDHNojB/PizQIjCukDWraLBCoTq
QIvwxUBNQKbBAv6XQE8LqEDHhrTBWqSzQJwvgkCJ17zBRhoAQdCAhUDyA5vBvSPrQBQpskB8qJPB
NszwQCLyeEBpBK/BQtZXQPJGekDoTKfB1kJOQA4ifkAgxIvBXLYUQGsdg0DLkJfBs21kQCudT7/2
4Z3B

>  <OMEGA_E>  (5) 
QEiEPg==

>  <OMEGA_NBR>  (5) 
    135011

$$$$
50093295
     RDKit          3D

 44 47  0  0  1  0  0  0  0  0999 V2000
    1.1199   -4.5906  -15.7715 C   0  0  0  0  0  0  0  0  0  0  0  0
    1.7305   -2.8160  -17.3185 C   0  0  0  0  0  0  0  0  0  0  0  0
    6.0408   -0.9507  -21.9399 C   0  0  0  0  0  0  0  0  0  0  0  0
    6.7308   -0.0429  -22.7526 C   0  0  0  0  0  0  0  0  0  0  0  0
    2.5787   -2.3375  -18.3141 C   0  0  0  0  0  0  0  0  0  0  0  0
    4.9122    0.9079  -20.8408 C   0  0  0  0  0  0  0  0  0  0  0  0
    3.0322   -4.8696  -17.3073 C   0  0  0  0  0  0  0  0  0  0  0  0
    1.9644   -4.0948  -16.8036 C   0  0  0  0  0  0  0  0  0  0  0  0
    5.5961    1.8339  -21.6506 C   0  0  0  0  0  0  0  0  0  0  0  0
    5.1346   -0.4685  -20.9738 C   0  0  0  0  0  0  0  0  0  0  0  0
    6.5172    1.3397  -22.6186 C   0  0  0  0  0  0  0  0  0  0  0  0
    3.6512   -3.1466  -18.7762 C   0  0  0  0  0  0  0  0  0  0  0  0
    4.3636    3.8464  -19.1842 C   0  0  0  0  0  0  0  0  0  0  0  0
    4.5855   -2.5972  -19.7703 C   0  0  0  0  0  0  0  0  0  0  0  0
    6.6157    5.3983  -20.4940 C   0  0  0  0  0  0  0  0  0  0  0  0
    5.4153    4.3671  -22.5602 C   0  0  0  0  0  0  0  0  0  0  0  0
    7.1004    4.7759  -19.1722 C   0  0  0  0  0  0  0  0  0  0  0  0
    6.5548    4.2962  -21.5407 C   0  0  2  0  0  0  0  0  0  0  0  0
    5.3714    3.3288  -21.4123 C   0  0  2  0  0  0  0  0  0  0  0  0
    0.4159   -4.9741  -14.9261 N   0  0  0  0  0  0  0  0  0  0  0  0
    3.8501   -4.3929  -18.2752 N   0  0  0  0  0  0  0  0  0  0  0  0
    4.2597    3.7096  -20.4876 N   0  0  0  0  0  0  0  0  0  0  0  0
    3.1894    3.9911  -18.4596 N   0  0  0  0  0  0  0  0  0  0  0  0
    4.3776   -1.2782  -20.1487 N   0  0  0  0  0  0  0  0  0  0  0  0
    5.5639   -3.2462  -20.1253 O   0  0  0  0  0  0  0  0  0  0  0  0
    7.2109    2.1561  -23.4411 F   0  0  0  0  0  0  0  0  0  0  0  0
    5.8851    3.6786  -18.2937 S   0  0  0  0  0  0  0  0  0  0  0  0
    0.9119   -2.2139  -16.9530 H   0  0  0  0  0  0  0  0  0  0  0  0
    6.2017   -2.0127  -22.0525 H   0  0  0  0  0  0  0  0  0  0  0  0
    7.4325   -0.4080  -23.4879 H   0  0  0  0  0  0  0  0  0  0  0  0
    2.4217   -1.3547  -18.7335 H   0  0  0  0  0  0  0  0  0  0  0  0
    4.2055    1.2640  -20.1059 H   0  0  0  0  0  0  0  0  0  0  0  0
    3.1996   -5.8611  -16.9130 H   0  0  0  0  0  0  0  0  0  0  0  0
    5.6164    5.8366  -20.3555 H   0  0  0  0  0  0  0  0  0  0  0  0
    7.3178    6.1811  -20.8172 H   0  0  0  0  0  0  0  0  0  0  0  0
    4.7244    5.2231  -22.5552 H   0  0  0  0  0  0  0  0  0  0  0  0
    5.5817    4.0362  -23.5960 H   0  0  0  0  0  0  0  0  0  0  0  0
    7.9970    4.1774  -19.3911 H   0  0  0  0  0  0  0  0  0  0  0  0
    7.3655    5.5977  -18.4907 H   0  0  0  0  0  0  0  0  0  0  0  0
    7.5105    3.8746  -21.8856 H   0  0  0  0  0  0  0  0  0  0  0  0
    3.3614    3.8740  -20.8950 H   0  0  0  0  0  0  0  0  0  0  0  0
    3.2164    3.9986  -17.4600 H   0  0  0  0  0  0  0  0  0  0  0  0
    2.3160    4.0878  -18.9369 H   0  0  0  0  0  0  0  0  0  0  0  0
    3.5581   -0.8502  -19.7676 H   0  0  0  0  0  0  0  0  0  0  0  0
  1  8  1  0
  1 20  3  0
  2  5  2  0
  2  8  1  0
  3  4  2  0
  3 10  1  0
  4 11  1  0
  5 12  1  0
  6  9  1  0
  6 10  2  0
  7  8  2  0
  7 21  1  0
  9 11  2  0
 19  9  1  6
 10 24  1  0
 11 26  1  0
 12 14  1  0
 12 21  2  0
 13 22  2  0
 13 23  1  0
 13 27  1  0
 14 24  1  0
 14 25  2  0
 15 17  1  0
 15 18  1  0
 16 18  1  0
 16 19  1  0
 17 27  1  0
 18 19  1  0
 19 22  1  0
  2 28  1  0
  3 29  1  0
  4 30  1  0
  5 31  1  0
  6 32  1  0
  7 33  1  0
 15 34  1  0
 15 35  1  0
 16 36  1  0
 16 37  1  0
 17 38  1  0
 17 39  1  0
 18 40  1  6
 22 41  1  0
 23 42  1  0
 23 43  1  0
 24 44  1  0
M  CHG  1  22   1
M  END
>  <OMEGA_C>  (6) 
a1iPPzrmksAzWHzBl4LdP7k5NMBUjIrBEk7BQPFgc7/yhK/Bz2LXQHG5L71ABbbB2wklQHuZFcBd
g5LBEDGdQC1taD/4uabBNBBCQB3Um8BcdYrBFXL7P90Ig8C2bYbBZROzQPO96j9uNK3BXk6kQBDf
775dyqfBEI3QQO16qz/w8rTBt6xpQHNiScCVNZbBa6KLQLgrdkAveZnBLrySQAw5JsCFKZ7BIrTT
QB2/rEDP86PBTEqtQHK/i0BEe7TBpzbjQFHUmEC6YJnBIcHRQJZ6iUByU6zBbOKrQJ4LVUB2TKvB
hezUPn0rn8Bj0W7BeWd2QAuTjMCgM5LBZ0+IQMdpbUCk5qPBlB5MQKZtf0BFrZPBCxWMQJCco7+E
MKHBQwuyQKbBT8ChAKHBgL/mQPv9CUB2h7vB3FK8QDBua0CXWZLBS3FpP0GwDcC1n4fBTXTGQPXP
AMB/a7DBPdftQIfi0L4357vBk/0aQAJnrb9C3pXBZpOGQLTLoT/f2KDBZcZMQOKNu8DdTYfBfLmz
QKHFukAC2KLBnSvqQEXLxUCNiabBqS6XQHojp0ARcbTBOJ2yQMQogUCIxLzBmuf/QEGthUDgIJvB
2bHrQBogs0D17JPBFlbwQCH5d0CeFa/BuSBXQM7vd0AEKafBDtlNQLTpf0ATrovBAzkUQO7OgkDZ
fpfBH7hjQMGjWb/5I57B

>  <OMEGA_E>  (6) 
nPHxPg==

>  <OMEGA_NBR>  (6) 
    136058

$$$$
