50176694
     RDKit          3D

 50 53  0  0  1  0  0  0  0  0999 V2000
    5.8505   -0.5160  -22.9560 C   0  0  0  0  0  0  0  0  0  0  0  0
    3.9016   -3.3349  -17.9382 C   0  0  0  0  0  0  0  0  0  0  0  0
    5.5769   -1.5111  -22.0064 C   0  0  0  0  0  0  0  0  0  0  0  0
    3.9242   -2.3596  -18.9468 C   0  0  0  0  0  0  0  0  0  0  0  0
    5.8089    0.8370  -22.5808 C   0  0  0  0  0  0  0  0  0  0  0  0
    5.1427    0.2008  -20.3216 C   0  0  0  0  0  0  0  0  0  0  0  0
    5.3817    4.2565  -22.7817 C   0  0  0  0  0  0  0  0  0  0  0  0
    5.0747   -4.0703  -17.6637 C   0  0  0  0  0  0  0  0  0  0  0  0
    7.5282    3.6848  -21.9989 C   0  0  0  0  0  0  0  0  0  0  0  0
    5.2212   -1.1478  -20.6921 C   0  0  0  0  0  0  0  0  0  0  0  0
    5.1217   -2.1661  -19.6569 C   0  0  0  0  0  0  0  0  0  0  0  0
    5.4953    1.2035  -21.2420 C   0  0  0  0  0  0  0  0  0  0  0  0
    6.1722    3.5481  -21.7901 C   0  0  0  0  0  0  0  0  0  0  0  0
    6.1560    4.8683  -23.7275 C   0  0  0  0  0  0  0  0  0  0  0  0
    6.2709   -2.9140  -19.3143 C   0  0  0  0  0  0  0  0  0  0  0  0
    6.2276    2.8267  -19.4387 C   0  0  0  0  0  0  0  0  0  0  0  0
    4.0481    3.4867  -19.2319 C   0  0  0  0  0  0  0  0  0  0  0  0
    5.6076    5.6236  -24.8485 C   0  0  0  0  0  0  0  0  0  0  0  0
    5.5208    2.6520  -20.7662 C   0  0  2  0  0  0  0  0  0  0  0  0
    3.4467    4.4675  -25.4979 C   0  0  0  0  0  0  0  0  0  0  0  0
    5.5672    3.8368  -17.2348 C   0  0  0  0  0  0  0  0  0  0  0  0
    4.0858    5.7813  -25.0058 C   0  0  0  0  0  0  0  0  0  0  0  0
    6.2285   -3.8483  -18.3387 N   0  0  0  0  0  0  0  0  0  0  0  0
    5.3204    3.4984  -18.6393 N   0  0  0  0  0  0  0  0  0  0  0  0
    4.1429    3.0762  -20.4741 N   0  0  0  0  0  0  0  0  0  0  0  0
    2.8613    3.8648  -18.6212 N   0  0  0  0  0  0  0  0  0  0  0  0
    7.3778    2.5130  -19.1521 O   0  0  0  0  0  0  0  0  0  0  0  0
    6.3641    6.0739  -25.6989 O   0  0  0  0  0  0  0  0  0  0  0  0
    7.4544   -2.6554  -19.9245 F   0  0  0  0  0  0  0  0  0  0  0  0
    7.8539    4.6518  -23.4008 S   0  0  0  0  0  0  0  0  0  0  0  0
    6.0924   -0.7890  -23.9726 H   0  0  0  0  0  0  0  0  0  0  0  0
    2.9969   -3.5208  -17.3784 H   0  0  0  0  0  0  0  0  0  0  0  0
    5.6388   -2.5535  -22.2818 H   0  0  0  0  0  0  0  0  0  0  0  0
    3.0453   -1.7735  -19.1713 H   0  0  0  0  0  0  0  0  0  0  0  0
    6.0161    1.6037  -23.3127 H   0  0  0  0  0  0  0  0  0  0  0  0
    4.8117    0.4702  -19.3295 H   0  0  0  0  0  0  0  0  0  0  0  0
    4.3024    4.2954  -22.7726 H   0  0  0  0  0  0  0  0  0  0  0  0
    5.0522   -4.8295  -16.8959 H   0  0  0  0  0  0  0  0  0  0  0  0
    8.2892    3.2463  -21.3704 H   0  0  0  0  0  0  0  0  0  0  0  0
    2.3603    4.6043  -25.6026 H   0  0  0  0  0  0  0  0  0  0  0  0
    3.8772    4.1929  -26.4722 H   0  0  0  0  0  0  0  0  0  0  0  0
    3.6468    3.6674  -24.7700 H   0  0  0  0  0  0  0  0  0  0  0  0
    4.6945    4.3672  -16.8260 H   0  0  0  0  0  0  0  0  0  0  0  0
    5.7378    2.9145  -16.6601 H   0  0  0  0  0  0  0  0  0  0  0  0
    6.4549    4.4824  -17.1638 H   0  0  0  0  0  0  0  0  0  0  0  0
    3.6490    6.0526  -24.0333 H   0  0  0  0  0  0  0  0  0  0  0  0
    3.8794    6.5781  -25.7355 H   0  0  0  0  0  0  0  0  0  0  0  0
    3.3870    3.0546  -21.1286 H   0  0  0  0  0  0  0  0  0  0  0  0
    2.0033    3.8341  -19.1339 H   0  0  0  0  0  0  0  0  0  0  0  0
    2.8638    4.1681  -17.6683 H   0  0  0  0  0  0  0  0  0  0  0  0
  1  3  2  0
  1  5  1  0
  2  4  2  0
  2  8  1  0
  3 10  1  0
  4 11  1  0
  5 12  2  0
  6 10  2  0
  6 12  1  0
  7 13  1  0
  7 14  2  0
  8 23  2  0
  9 13  2  0
  9 30  1  0
 10 11  1  0
 11 15  2  0
 19 12  1  6
 13 19  1  0
 14 18  1  0
 14 30  1  0
 15 23  1  0
 15 29  1  0
 16 19  1  0
 16 24  1  0
 16 27  2  0
 17 24  1  0
 17 25  2  0
 17 26  1  0
 18 22  1  0
 18 28  2  0
 19 25  1  0
 20 22  1  0
 21 24  1  0
  1 31  1  0
  2 32  1  0
  3 33  1  0
  4 34  1  0
  5 35  1  0
  6 36  1  0
  7 37  1  0
  8 38  1  0
  9 39  1  0
 20 40  1  0
 20 41  1  0
 20 42  1  0
 21 43  1  0
 21 44  1  0
 21 45  1  0
 22 46  1  0
 22 47  1  0
 25 48  1  0
 26 49  1  0
 26 50  1  0
M  CHG  1  25   1
M  END
>  <OMEGA_C>  (1) 
Uje7QOQVBL/4pbfBP7N5QNNuVcB8gY/BQHayQDpqwb8oDbDBdSV7QPcDF8DykpfBSuK5QH1IVj+H
pbTBVJGkQASSTT6fkqLB8jasQBo1iEDYQLbBKmSiQERAgsA3T43BIOfwQHDUa0C1/a/B7hOnQGLr
kr9WiaXB3OSjQBaiCsBuQZ3BZtmvQLMLmj+z76nBjoLFQOAUY0AMUq7B5v3EQADJm0D40b3BgqvI
QC9/OsCdg5rBrEjHQD7oNEBpgpvB0ImBQKslX0Db2pnBUnGzQGL0s0CxycbBtKqwQOW6KUA1IabB
vZZcQIn1jkCc+8vBhiayQHWNdUDa4InBjL6CQEYAuUDJC8jB1E/HQPVJdsC8tZLBhECqQEPmX0BS
HZXBPpKEQO7fREAOy6PBGCA3QN1Yd0BC+JTBFBfsQPbUIECXN5nBrKbLQMpdwkBjl83BxIruQDLy
KcBhZZ/BSFP7QKrblEDoNLvBAPXCQFL+Sb/Nx7/BEM0/QPlTYcDvBovBvXC0QOZsI8AnQbLB4+VC
QFEB47/FXpnBwoPAQINGzT92gLrBGPmZQKu68D7eoprBpq2JQB10iUBYLrbBV6uhQJKLmsDCKofB
kaAEQRLDT0Ce9qrB7g4XQIBWk0A20szBOyR4QEIshkD9xtPB3WVpQHm2akDqKMbBoDmWQCzAi0C+
m4bB05u3QGCGOkDpR4XBx47OQC9wj0CQT4nBGolpQJGuwUA5RMDBeEd4QJd/0kBM4s3B+cRYQEB/
Q0BMB6nBQTYAQH5idUBCEpnBJUk3QKtghUC0WI3BpLPDQFlECL/9KrfBTcdtQB5KTsAfvI/BRou4
QBTVw7+lza/BvdN3QGBUD8DNoZfBYMzAQDmRUT/EObTBN4KlQMQ/Mz4arKLBLaOnQKj4g0AH37bB
KruYQFDqg8ARuo3BLGDtQAPudUDw5q/B9MGpQChklr8Sh6XB44SiQMsLDcBHbJ3BxEyyQDJtlz94
1anB3pnCQN64Y0B3dq7BicG+QH4cm0AlIb7BQFXDQNJnSMAJ+prBJrDHQHqhNUBfhZvBOviBQKhk
YUC09pnBIv2qQLh6s0CpycbBxqWwQBZxKEB7EabBlDKnQNuWAUGoB8TBefqxQE0pdEDTx4nBWh++
QBnC3kCwA8rBtvm9QPX9gcATQJPBpG6qQD+fX0ChE5XBYyWEQB1ZP0Cqi6PBH6k5QNFGgUAkhZXB
LNHsQM9wI0BLTpnB3+GGQOj0qUAQzsnB/pfpQOQqRMDJEaDBB1T1QIRUmkC6IrvB3IDOQOR5Tb/B
Fb/B+uUyQO+qUsAcPovBCEW7QByMJMBh/7HB04RFQGFhw785O5nBWZ/JQLMfyz8R4rnBNWaYQK2Q
4T4g95rBkGaFQBEpf0APTbfBJtmUQO0XnMBKoYfBe1MDQYDlX0B0sarBQSa1QKcJEUEKZsbBrPGE
QGJmAUH7DcbBDBqrQCWx/kA/W7vBwN+VQPa5ikA4gIbBd3m3QFuzOEAoRoXBt0HOQK/cjkBqGInB
IV/gQGM830CA/MfBwDa6QAJY40A9r9LBRltWQBVONkCHa6jBJPwCQHKxgED4rJnBLMk6QDbQjUAy
KY7BgHfCQD0FD79KPLfBpAW9QDdKf8B4V5LBwm24QHaZxb9Xoq/BcDHDQJE2RcDLuZrB+kO/QMTt
TD/VgbTBPsylQBjXQT7LuqLBCOupQC+FhEAnG7fBwP6VQH1PfsBVsIzBxN/uQNwLdkBV0a/BoqSp
QOJGlb9CaqXBskeiQH8PC8BiJZ3BcPWxQI1Xlz+vEarBOAPEQGM7Y0CRr67BQEXBQCkHn0D2i73B
HYx3QMMXDcAHJ5fBeArIQLL0NEDp0JvBzAmCQAFrXUBSBprBmreuQJJJuEAfHsbBuguxQJl9KECt
YqbBB4RpQLq9x0D4ENTBXLmyQOKrckAPB4rBzA6DQCXsqkASzMrBhZ5sQBpqRsAqJY/BnNCqQK9T
XkCRT5XB9LWEQHUvQUD85KPBK5k4QEVWd0AkKZXBYt/sQC7cIEDGjJnB1EPDQKo91kCpzcnBdoE2
QKq0rb/qg5nBgnr3QPDonUBKV7rBRqLMQG1vWL8HK7/BptrVQOUllsDGOpDBVQe8QGWyJcDSnLHB
zabgQG0XRcBjPp/BrfDGQDFqxz8UXLrBQG6ZQHVK8T7M+5rBzyqIQPKnfEB6IrjBADeRQFmglcD0
O4bByO8DQf19XEB8x6rByB0rQPPEvEBEFNfBJNtjQJnv6ECvOdHBcIqMQMcxxkDUitrBQqCWQP25
iUBPqobBIp64QKYsN0Bjj4XBQN/OQKtRjkDFZInB5XyFQPvTiUCeu83BDsBVQM6RrEB5asTBGkNY
QK8NPUCp/ajBUXsBQGMtdUDJN5nBsk45QA0XhkDtmI3Bg3bIQPrwB79377bBZQS7QEKVesASsZHB
A7a8QDm7w799ma/B8EbDQEokQcDKCJrBtDbEQCDQUj+zJbTBeYumQIh5Oj7M2qLBa16mQISpg0CE
97bBm7iRQJxbfcCCKY3BTFnsQMrIekB38q/Bu1WrQPFylb9hm6XBPgeiQHiWC8D2i53Bc+ezQOAn
mD8A76nBfPzBQBD4ZEBHka7BppK8QK0OnECjJb7BgVxyQGBXEcDJrpjBQlzIQOoeNkDVqZvB30yC
QEwdX0BK8pnBI+inQJUqtEC3uMbBoCmxQHKRKEAMLKbBgKOgQOsJAkGrucTB3pWyQMTxckA/1onB
Oym6QHi/30AlC8rBCZNjQLjKScALrZDBT/GqQAjrXkC+JJXBjX+EQEJaPUD5iqPBQ+E5QJBZfkDU
Z5XBo1jtQODGIkDxcpnB6BKEQG6rqUAqvsnBmSQxQA0ovr/7GZzB/iPzQKU9nUBdI7vBBsDUQI7i
Tb+htb7BovjTQHEhksDSwo7BW/rAQCuLJMBHnLHB4YziQLcSPsAWsZ3BVl7NQMeXyz9ByLnBZ4OY
QCYR5j74QJvBe16EQA+Je0ALcrfBNF2LQNXZlMBauobBU/0CQdi5ZkC7uKrBXweuQJuQEUEdK8fB
DeR9QKcUAUEYOsfBta6iQBN1AEHM+bvBIVSWQC+iiUAEfYbB/JK4QKpaN0CXZYXBi5jOQEacjkB4
JYnB6dfbQOTJ4UDyicfBOhu4QA0J40A9ytLBDOxWQMQ9M0CpXKjBve4CQGDle0DzfpnBZPM6QLCp
i0CGCo7BuvzlQDksCb8NwLHB3/hRQNZYhcA5OZ/B5TfOQI0Wxb94l6zBLqt/QMklTMAK6KTBpEPe
QP9WUT+kXq/B0EunQEtOKz4wiaLBVaulQKSbT0CG3rnBXKdVQEaNhcDm8pPBySzcQPDsjUBYyLDB
pWGvQIsymL+V16TBpomXQGESD8BGIJ/B8rK9QPnElz8U/afBgqa8QHDLXkAFuK/BRgK3QIjFfECF
PcLBzASYQDAIE8CWy5PB/GLMQN44SkCA65vBJFGEQB8bW0An+5jBAXanQHjRekBdUc3BZ9CzQDN/
KkAZqqXBPm5UQHGtskBjUMzBVOa2QI6ahkCGTorBA0NvQG//hEAMn8/B7geCQHVkUMCfdo7Bvq+t
QKS+bEAjIZXBS7OGQKeCN0Dxg6LB1F08QO4qbUBps5PBeSzzQAeeR0B5cprBQ2HBQD7+fUAkq9TB
B7yvQMsOtb+AFo7BB4jgQH9hn0AL7r3Bsiv+QDavTb8NirfBym0sQIz6nMDwbqPB4Y3TQM7/JMDK
jq7BcXx+QBHmSsAyi63B7TzxQKjMyj+eLrPBpsyPQNmn2z5TjpzBzFWKQGu+JUB1n7rBZ6QyQOOv
ncBllI/BHLLvQPWGmUD7RKrB0AMQQMJUt0AcCM7Bz+1fQNgTt0DAs8PBg0B6QK0sykDN2dDBXC+Z
QFF5kkC4o4bB4SLEQFQ4WUCcYYXBJ0XOQMrYoEAd0YrBjGdjQILAgED6OtjB2RRJQFlPW0DtFMvB
PuhaQC5/J0BCAafB7WAEQIAAX0D9JZfBRog9QIIohEAudYzB

>  <OMEGA_E>  (1) 
kEkkP1ztFz/MghQ/nFcPPyjTTT8=

>  <OMEGA_NBR>  (1) 
     61203

$$$$
50176725
     RDKit          3D

 50 53  0  0  1  0  0  0  0  0999 V2000
    8.3182    3.4405  -23.1714 C   0  0  0  0  0  0  0  0  0  0  0  0
    4.4515    7.8806  -24.3488 C   0  0  0  0  0  0  0  0  0  0  0  0
    7.6129    4.4086  -23.8861 C   0  0  0  0  0  0  0  0  0  0  0  0
    5.1526    6.9290  -23.6167 C   0  0  0  0  0  0  0  0  0  0  0  0
    7.7310    2.8245  -22.0663 C   0  0  0  0  0  0  0  0  0  0  0  0
    5.7334    4.1446  -22.3910 C   0  0  0  0  0  0  0  0  0  0  0  0
    5.8379    0.0712  -19.8179 C   0  0  0  0  0  0  0  0  0  0  0  0
    4.2151    7.6222  -25.6899 C   0  0  0  0  0  0  0  0  0  0  0  0
    5.6509    0.5783  -22.0787 C   0  0  0  0  0  0  0  0  0  0  0  0
    6.3206    4.7606  -23.4961 C   0  0  0  0  0  0  0  0  0  0  0  0
    5.5897    5.7647  -24.2383 C   0  0  0  0  0  0  0  0  0  0  0  0
    6.4387    3.1764  -21.6763 C   0  0  0  0  0  0  0  0  0  0  0  0
    5.7693    1.0946  -20.8071 C   0  0  0  0  0  0  0  0  0  0  0  0
    5.7690   -1.1887  -20.3717 C   0  0  0  0  0  0  0  0  0  0  0  0
    5.3026    5.6006  -25.5839 C   0  0  0  0  0  0  0  0  0  0  0  0
    6.5155    2.8485  -19.1480 C   0  0  0  0  0  0  0  0  0  0  0  0
    4.3597    3.6515  -18.9731 C   0  0  0  0  0  0  0  0  0  0  0  0
    5.8036   -2.4566  -19.7180 C   0  0  0  0  0  0  0  0  0  0  0  0
    5.8176    2.5222  -20.5065 C   0  0  1  0  0  0  0  0  0  0  0  0
    4.6987   -4.4981  -18.5820 C   0  0  0  0  0  0  0  0  0  0  0  0
    5.8798    3.9941  -16.9727 C   0  0  0  0  0  0  0  0  0  0  0  0
    4.4947   -3.1423  -19.2389 C   0  0  0  0  0  0  0  0  0  0  0  0
    4.6242    6.5026  -26.3279 N   0  0  0  0  0  0  0  0  0  0  0  0
    5.5592    3.5363  -18.3200 N   0  0  0  0  0  0  0  0  0  0  0  0
    4.4479    3.0701  -20.2360 N   0  0  0  0  0  0  0  0  0  0  0  0
    3.2197    4.2412  -18.4889 N   0  0  0  0  0  0  0  0  0  0  0  0
    7.6664    2.5813  -18.8398 O   0  0  0  0  0  0  0  0  0  0  0  0
    6.8881   -3.0670  -19.5038 O   0  0  0  0  0  0  0  0  0  0  0  0
    5.7116    4.4847  -26.2107 F   0  0  0  0  0  0  0  0  0  0  0  0
    5.6224   -1.1341  -22.0770 S   0  0  0  0  0  0  0  0  0  0  0  0
    9.3247    3.1668  -23.4752 H   0  0  0  0  0  0  0  0  0  0  0  0
    4.1011    8.7962  -23.8861 H   0  0  0  0  0  0  0  0  0  0  0  0
    8.0844    4.8802  -24.7453 H   0  0  0  0  0  0  0  0  0  0  0  0
    5.3496    7.1085  -22.5626 H   0  0  0  0  0  0  0  0  0  0  0  0
    8.2873    2.0710  -21.5148 H   0  0  0  0  0  0  0  0  0  0  0  0
    4.7255    4.4143  -22.0817 H   0  0  0  0  0  0  0  0  0  0  0  0
    5.9348    0.2503  -18.7540 H   0  0  0  0  0  0  0  0  0  0  0  0
    3.6722    8.3322  -26.3048 H   0  0  0  0  0  0  0  0  0  0  0  0
    5.5794    1.1205  -23.0114 H   0  0  0  0  0  0  0  0  0  0  0  0
    5.1809   -5.2009  -19.2698 H   0  0  0  0  0  0  0  0  0  0  0  0
    5.3317   -4.3997  -17.6944 H   0  0  0  0  0  0  0  0  0  0  0  0
    3.7424   -4.9336  -18.2734 H   0  0  0  0  0  0  0  0  0  0  0  0
    6.2804    5.0116  -16.9973 H   0  0  0  0  0  0  0  0  0  0  0  0
    4.9828    3.9851  -16.3471 H   0  0  0  0  0  0  0  0  0  0  0  0
    6.6238    3.3349  -16.5170 H   0  0  0  0  0  0  0  0  0  0  0  0
    4.0117   -2.4730  -18.5189 H   0  0  0  0  0  0  0  0  0  0  0  0
    3.8461   -3.2696  -20.1121 H   0  0  0  0  0  0  0  0  0  0  0  0
    3.6634    3.0435  -20.8835 H   0  0  0  0  0  0  0  0  0  0  0  0
    3.2436    4.6304  -17.5755 H   0  0  0  0  0  0  0  0  0  0  0  0
    2.4151    4.2562  -19.0703 H   0  0  0  0  0  0  0  0  0  0  0  0
  1  3  2  0
  1  5  1  0
  2  4  2  0
  2  8  1  0
  3 10  1  0
  4 11  1  0
  5 12  2  0
  6 10  2  0
  6 12  1  0
  7 13  1  0
  7 14  2  0
  8 23  2  0
  9 13  2  0
  9 30  1  0
 10 11  1  0
 11 15  2  0
 19 12  1  6
 13 19  1  0
 14 18  1  0
 14 30  1  0
 15 23  1  0
 15 29  1  0
 16 19  1  0
 16 24  1  0
 16 27  2  0
 17 24  1  0
 17 25  2  0
 17 26  1  0
 18 22  1  0
 18 28  2  0
 19 25  1  0
 20 22  1  0
 21 24  1  0
  1 31  1  0
  2 32  1  0
  3 33  1  0
  4 34  1  0
  5 35  1  0
  6 36  1  0
  7 37  1  0
  8 38  1  0
  9 39  1  0
 20 40  1  0
 20 41  1  0
 20 42  1  0
 21 43  1  0
 21 44  1  0
 21 45  1  0
 22 46  1  0
 22 47  1  0
 25 48  1  0
 26 49  1  0
 26 50  1  0
M  CHG  1  25   1
M  END
>  <OMEGA_C>  (2) 
cRcFQVYwXEANX7nB+3KOQDAu/EBwysLByJzzQIMTjUDPFr/BFOKkQA263UD47rzBUGT3QD7ENEDd
h7DBune3QGqghEDMILPBrs+6QNzUkT0Fi57BgOKGQMTo80DYhM3B29O0QDEJFD8pobDBUELKQMVW
mEAV+LvB5t6yQBh4uEAj6MHB2AnOQMFKS0Akaa3BWp64QBkbjD/1dKbB3Zu4QJEnmL9V+aLBla6p
QCI4s0C7q8zBEX/QQBhONkAzL5nBhIKLQIyxaUDvyJfB+7a5QCM5HcBrvp3Bjym6QEZsIUA7DaTB
H1yWQDzwj8Dsp5TBZCe8QJqef0AGyIfB8tSPQPsbScBb6ZnBrPmTQG8V0ECYn9LB+OSxQL5SYkBW
j5LB9lSOQMF8REBq46HBRg9OQBG4h0BA6ZPBHFP1QIgzJUDTt5bBBGvcQBJJRMDMB5zBhMW2QISC
j0CGr9HBluqzQN0qkb+znbDByjEVQRCsSkAgzbvBSzyDQAi9DEGvFr/BhFkBQUAqnEBc9sXBsi+r
QNB440BFgLTB+JgEQceLBEBJHqzBqjeXQJRBjUBEp7DB9+m9QLAmgD4aCJbB0gRrQJBQBUFTcNLB
ioqyQMZtjz9MF7jBOcqlQMVtpsB2KJrB+ZyqQJrKjMAUjo3B7oNvQOTfncDTL5LB8fjIQNleoECR
+ofBE3OfQIwMf0DgxoLBc/bTQFduVUDCIoTB8l+AQN5EHsDCJpTBfCZ2QEBBUcCQ5aDBPnVqQG7J
QkBxEafBjJZPQDcslECVmozBEJEaQC8ziEDkj5jBsEsAQSYVLkA7u7bB6K9dQMXuqkBz9s3Bmq/q
QJ7wZEDan73BACCEQCsYj0CvG8fBE9XsQKLZEEDKaq3BeUWtQLpPYUAX5LHBtdXAQB6NIL56dprB
vPmAQJS90kBry8/B1zuYQPgSFT2w96nBzAfBQL6LfkCjNLvBP1WqQL62m0CnXMLBRi3DQMJ0KkCT
/6rBJOysQC/TOD/z7aHBRpi6QLaSvb8SFZ3Br865QNkvxEAPtsTBrXTDQAxPLEBCmJbBy8N8QMVx
YEBWkZbBWlDJQId5KcDyo5fBtEauQDBgC0CrIqHBiaYNQSzZE8A9vpfBbVCtQDojhEAyyYbBPrPz
QOgtKMDZJpHB0QmmQEUd4ED2U8vBaTCkQCsqX0DaApHBkEGCQPZQMEAx5p/B+Q4zQBf+hEDmopPB
lv7nQHlMHkDrm5PBQre0QMb5bsDG35fBt67eQOA70UAyP8DBNticQHCC1L9Jf6jBKIQQQZsqGkCf
nbjBZAMiQOvPoUDTwNHBUob6QL4ze0DC2sTBBBttQIVXX0AVjcXBJR/+QAk9zD+SFqjB6ceMQLwF
dUBH9a/BLOHSQIhKKj6fh5PB0U5jQGWf6UCXFNXBrJiGQKxv5D7wpbDB3+MPQfPYQsBrJZ7BKjMM
QbjoqL/2ZZvBgQ4cQalXFMBewZLBjjK6QBJMpEC1CIjBqRWQQK+WhkCMA4LBhLHEQMevYkAHSILB
x3LwQLSP779d3YrBcL/3QL5dZ8CGf43B9m1TQJy5KED4KaXBjA8zQH5plUBq1YzBdpQAQDHPgkCt
bZjBQIkFQZdPNEDfWLHBwZp9QOF3vED5lMjBzPL4QO5QbUB0pLjBzCyQQOTEn0B+RsHBcLnyQA4i
FUCX2KjBdyO2QPTxZ0Dt767B0yK9QJxSGb6gDZjB3iKaQH+s2UARX83B6qScQCgH8D3+pKjBmHzO
QAKQg0BQcLfB87a7QDMeoUDxAr/BPkPIQCTxLkBypKfB0EetQGGkQz982Z/BFAG4QAwBu7/WMJvB
4lLUQEyIv0ALOsTBfFe+QG+hK0CVZJPBkedzQMAaYUDfTpXBS6rDQEjRKcC1o5XBlICuQB7NDUDq
o57BaC12QKDzd8B19JPBsL2gQNX+gUAvCITBWeGpQKjifcAcM5fBBpjEQEXw20BKX8vB5a2cQEqr
XUC5n47Bx1GCQNJIM0AMo57BiBcoQKFOhUCjYZPBBA/hQJklHEB8WY/BMhbjQOoiLMBzS4/BTIH+
QEyPwUARNMLBhCmgQEz5yr8qfKfBIhIWQZ08IED5SLLBxOY5QLMJvEAJecrBCiwGQROKgkA5Or/B
scR2QAmHiEAma73BEosAQSt40T9HMqPBzP6UQIjNe0Af9K3BF6LLQFSODz7xh5DBfC6OQLu68EC5
IdPBW5COQD0BDz9ytq/BYcxvQELDZsCNf4vBR1lVQF44R8AXuZjB92dVQDiRmsCJLZXBZFauQL4q
okAUm4TBkF6BQPQhhEACMYDBlZK1QMHRXEBZ+n3BMZarQPiSh8CWrp/BxEy5QC7fl8DmZZLBpSlZ
QCqELUBxp6TBI3whQKHblEBvgIzB4o31P1X7g0BA8JjBQpL/QHyy0j9ALbPBtMJ6QC8HjUB0vs7B
lWbuQG5EHkCOErvB4+SNQEBtZEDg4sbBPlLoQEdisT/b4anB6ryuQDrZMUB1YbDBp7i9QIahLb/4
PJnB9DyUQICpsUCxRtHB+Jd8QL+x1b4luqLBAv3FQLmBQkD4rLnBvDO0QAReeUAO38HBqui/QODc
+T9GfKjBoOWgQEC4aj49RZ7B6QiwQH7+/b/JCprB5pvIQKMIokAv+sTBKOe7QE5UEEDyP5TB/pR0
QGaLUkDRApbBCNzDQHzZSsCGD5bB4E2nQDJU1j82pJ7B9BW1QFiOb8AtPoLBvbOnQD6XfUBxFYbB
UW2sQHirgsCj5Y3BBI65QPfgvECZk8zBZomeQKgOTkCm3I/Bl996QIUWGkDUmZ7BctsuQLj6gkCi
OpTBYLreQACd+j8Yg5DBoOHoQPVPYcDZ+ZjBBrTtQEDyrEBZRsDBrqGAQCosB8CW1qDB4YUPQfRM
mj/3Q7TBsSE/QIKKhUAow9LB73UAQZCqKkANRsLBmB95QHSHKkDgw8TB7O31QJaNPT+uxKPBQTGP
QHflTUD1Pa/B+gvbQPyCxr6oPpXBWr6IQHufx0CJWtfBnGBHQGA5ozw6AqfBmUPXQO5VdMAWZoDB
kqOqQG0uLsDpfIDBE++jQIiUjcDYxnnBAF64QKitnECW7YfBGvOJQGxhhkC04oHBo9G7QKVdV0AI
wYDBwP+JQI7Ff8BcY4/BLLO2QMilo8B+YI/BcpVLQGs+E0CgIaTB3J8vQNollkB15I3B9q78P+lt
gUCzV5nB

>  <OMEGA_E>  (2) 
iogOwVIYJ8HYHg7BoH8FwQ==

>  <OMEGA_NBR>  (2) 
     64887

$$$$
50176723
     RDKit          3D

 50 53  0  0  1  0  0  0  0  0999 V2000
    8.3182    3.4405  -23.1714 C   0  0  0  0  0  0  0  0  0  0  0  0
    4.4515    7.8806  -24.3488 C   0  0  0  0  0  0  0  0  0  0  0  0
    7.6129    4.4086  -23.8861 C   0  0  0  0  0  0  0  0  0  0  0  0
    5.1526    6.9290  -23.6167 C   0  0  0  0  0  0  0  0  0  0  0  0
    7.7310    2.8245  -22.0663 C   0  0  0  0  0  0  0  0  0  0  0  0
    5.7334    4.1446  -22.3910 C   0  0  0  0  0  0  0  0  0  0  0  0
    5.8379    0.0712  -19.8179 C   0  0  0  0  0  0  0  0  0  0  0  0
    4.2151    7.6222  -25.6899 C   0  0  0  0  0  0  0  0  0  0  0  0
    5.6509    0.5783  -22.0787 C   0  0  0  0  0  0  0  0  0  0  0  0
    6.3206    4.7606  -23.4961 C   0  0  0  0  0  0  0  0  0  0  0  0
    5.5897    5.7647  -24.2383 C   0  0  0  0  0  0  0  0  0  0  0  0
    6.4387    3.1764  -21.6763 C   0  0  0  0  0  0  0  0  0  0  0  0
    5.7693    1.0946  -20.8071 C   0  0  0  0  0  0  0  0  0  0  0  0
    5.7690   -1.1887  -20.3717 C   0  0  0  0  0  0  0  0  0  0  0  0
    5.3026    5.6006  -25.5839 C   0  0  0  0  0  0  0  0  0  0  0  0
    6.5155    2.8485  -19.1480 C   0  0  0  0  0  0  0  0  0  0  0  0
    4.3597    3.6515  -18.9731 C   0  0  0  0  0  0  0  0  0  0  0  0
    5.8036   -2.4566  -19.7180 C   0  0  0  0  0  0  0  0  0  0  0  0
    5.8176    2.5222  -20.5065 C   0  0  1  0  0  0  0  0  0  0  0  0
    4.6987   -4.4981  -18.5820 C   0  0  0  0  0  0  0  0  0  0  0  0
    5.8798    3.9941  -16.9727 C   0  0  0  0  0  0  0  0  0  0  0  0
    4.4947   -3.1423  -19.2389 C   0  0  0  0  0  0  0  0  0  0  0  0
    4.6242    6.5026  -26.3279 N   0  0  0  0  0  0  0  0  0  0  0  0
    5.5592    3.5363  -18.3200 N   0  0  0  0  0  0  0  0  0  0  0  0
    4.4479    3.0701  -20.2360 N   0  0  0  0  0  0  0  0  0  0  0  0
    3.2197    4.2412  -18.4889 N   0  0  0  0  0  0  0  0  0  0  0  0
    7.6664    2.5813  -18.8398 O   0  0  0  0  0  0  0  0  0  0  0  0
    6.8881   -3.0670  -19.5038 O   0  0  0  0  0  0  0  0  0  0  0  0
    5.7116    4.4847  -26.2107 F   0  0  0  0  0  0  0  0  0  0  0  0
    5.6224   -1.1341  -22.0770 S   0  0  0  0  0  0  0  0  0  0  0  0
    9.3247    3.1668  -23.4752 H   0  0  0  0  0  0  0  0  0  0  0  0
    4.1011    8.7962  -23.8861 H   0  0  0  0  0  0  0  0  0  0  0  0
    8.0844    4.8802  -24.7453 H   0  0  0  0  0  0  0  0  0  0  0  0
    5.3496    7.1085  -22.5626 H   0  0  0  0  0  0  0  0  0  0  0  0
    8.2873    2.0710  -21.5148 H   0  0  0  0  0  0  0  0  0  0  0  0
    4.7255    4.4143  -22.0817 H   0  0  0  0  0  0  0  0  0  0  0  0
    5.9348    0.2503  -18.7540 H   0  0  0  0  0  0  0  0  0  0  0  0
    3.6722    8.3322  -26.3048 H   0  0  0  0  0  0  0  0  0  0  0  0
    5.5794    1.1205  -23.0114 H   0  0  0  0  0  0  0  0  0  0  0  0
    5.1809   -5.2009  -19.2698 H   0  0  0  0  0  0  0  0  0  0  0  0
    5.3317   -4.3997  -17.6944 H   0  0  0  0  0  0  0  0  0  0  0  0
    3.7424   -4.9336  -18.2734 H   0  0  0  0  0  0  0  0  0  0  0  0
    6.2804    5.0116  -16.9973 H   0  0  0  0  0  0  0  0  0  0  0  0
    4.9828    3.9851  -16.3471 H   0  0  0  0  0  0  0  0  0  0  0  0
    6.6238    3.3349  -16.5170 H   0  0  0  0  0  0  0  0  0  0  0  0
    4.0117   -2.4730  -18.5189 H   0  0  0  0  0  0  0  0  0  0  0  0
    3.8461   -3.2696  -20.1121 H   0  0  0  0  0  0  0  0  0  0  0  0
    3.6634    3.0435  -20.8835 H   0  0  0  0  0  0  0  0  0  0  0  0
    3.2436    4.6304  -17.5755 H   0  0  0  0  0  0  0  0  0  0  0  0
    2.4151    4.2562  -19.0703 H   0  0  0  0  0  0  0  0  0  0  0  0
  1  3  2  0
  1  5  1  0
  2  4  2  0
  2  8  1  0
  3 10  1  0
  4 11  1  0
  5 12  2  0
  6 10  2  0
  6 12  1  0
  7 13  1  0
  7 14  2  0
  8 23  2  0
  9 13  2  0
  9 30  1  0
 10 11  1  0
 11 15  2  0
 19 12  1  6
 13 19  1  0
 14 18  1  0
 14 30  1  0
 15 23  1  0
 15 29  1  0
 16 19  1  0
 16 24  1  0
 16 27  2  0
 17 24  1  0
 17 25  2  0
 17 26  1  0
 18 22  1  0
 18 28  2  0
 19 25  1  0
 20 22  1  0
 21 24  1  0
  1 31  1  0
  2 32  1  0
  3 33  1  0
  4 34  1  0
  5 35  1  0
  6 36  1  0
  7 37  1  0
  8 38  1  0
  9 39  1  0
 20 40  1  0
 20 41  1  0
 20 42  1  0
 21 43  1  0
 21 44  1  0
 21 45  1  0
 22 46  1  0
 22 47  1  0
 25 48  1  0
 26 49  1  0
 26 50  1  0
M  CHG  1  25   1
M  END
>  <OMEGA_C>  (3) 
cRcFQVYwXEANX7nB+3KOQDAu/EBwysLByJzzQIMTjUDPFr/BFOKkQA263UD47rzBUGT3QD7ENEDd
h7DBune3QGqghEDMILPBrs+6QNzUkT0Fi57BgOKGQMTo80DYhM3B29O0QDEJFD8pobDBUELKQMVW
mEAV+LvB5t6yQBh4uEAj6MHB2AnOQMFKS0Akaa3BWp64QBkbjD/1dKbB3Zu4QJEnmL9V+aLBla6p
QCI4s0C7q8zBEX/QQBhONkAzL5nBhIKLQIyxaUDvyJfB+7a5QCM5HcBrvp3Bjym6QEZsIUA7DaTB
H1yWQDzwj8Dsp5TBZCe8QJqef0AGyIfB8tSPQPsbScBb6ZnBrPmTQG8V0ECYn9LB+OSxQL5SYkBW
j5LB9lSOQMF8REBq46HBRg9OQBG4h0BA6ZPBHFP1QIgzJUDTt5bBBGvcQBJJRMDMB5zBhMW2QISC
j0CGr9HBluqzQN0qkb+znbDByjEVQRCsSkAgzbvBSzyDQAi9DEGvFr/BhFkBQUAqnEBc9sXBsi+r
QNB440BFgLTB+JgEQceLBEBJHqzBqjeXQJRBjUBEp7DB9+m9QLAmgD4aCJbB0gRrQJBQBUFTcNLB
ioqyQMZtjz9MF7jBOcqlQMVtpsB2KJrB+ZyqQJrKjMAUjo3B7oNvQOTfncDTL5LB8fjIQNleoECR
+ofBE3OfQIwMf0DgxoLBc/bTQFduVUDCIoTB8l+AQN5EHsDCJpTBfCZ2QEBBUcCQ5aDBPnVqQG7J
QkBxEafBjJZPQDcslECVmozBEJEaQC8ziEDkj5jBsEsAQSYVLkA7u7bB6K9dQMXuqkBz9s3Bmq/q
QJ7wZEDan73BACCEQCsYj0CvG8fBE9XsQKLZEEDKaq3BeUWtQLpPYUAX5LHBtdXAQB6NIL56dprB
vPmAQJS90kBry8/B1zuYQPgSFT2w96nBzAfBQL6LfkCjNLvBP1WqQL62m0CnXMLBRi3DQMJ0KkCT
/6rBJOysQC/TOD/z7aHBRpi6QLaSvb8SFZ3Br865QNkvxEAPtsTBrXTDQAxPLEBCmJbBy8N8QMVx
YEBWkZbBWlDJQId5KcDyo5fBtEauQDBgC0CrIqHBiaYNQSzZE8A9vpfBbVCtQDojhEAyyYbBPrPz
QOgtKMDZJpHB0QmmQEUd4ED2U8vBaTCkQCsqX0DaApHBkEGCQPZQMEAx5p/B+Q4zQBf+hEDmopPB
lv7nQHlMHkDrm5PBQre0QMb5bsDG35fBt67eQOA70UAyP8DBNticQHCC1L9Jf6jBKIQQQZsqGkCf
nbjBZAMiQOvPoUDTwNHBUob6QL4ze0DC2sTBBBttQIVXX0AVjcXBJR/+QAk9zD+SFqjB6ceMQLwF
dUBH9a/BLOHSQIhKKj6fh5PB0U5jQGWf6UCXFNXBrJiGQKxv5D7wpbDB3+MPQfPYQsBrJZ7BKjMM
QbjoqL/2ZZvBgQ4cQalXFMBewZLBjjK6QBJMpEC1CIjBqRWQQK+WhkCMA4LBhLHEQMevYkAHSILB
x3LwQLSP779d3YrBcL/3QL5dZ8CGf43B9m1TQJy5KED4KaXBjA8zQH5plUBq1YzBdpQAQDHPgkCt
bZjBQIkFQZdPNEDfWLHBwZp9QOF3vED5lMjBzPL4QO5QbUB0pLjBzCyQQOTEn0B+RsHBcLnyQA4i
FUCX2KjBdyO2QPTxZ0Dt767B0yK9QJxSGb6gDZjB3iKaQH+s2UARX83B6qScQCgH8D3+pKjBmHzO
QAKQg0BQcLfB87a7QDMeoUDxAr/BPkPIQCTxLkBypKfB0EetQGGkQz982Z/BFAG4QAwBu7/WMJvB
4lLUQEyIv0ALOsTBfFe+QG+hK0CVZJPBkedzQMAaYUDfTpXBS6rDQEjRKcC1o5XBlICuQB7NDUDq
o57BaC12QKDzd8B19JPBsL2gQNX+gUAvCITBWeGpQKjifcAcM5fBBpjEQEXw20BKX8vB5a2cQEqr
XUC5n47Bx1GCQNJIM0AMo57BiBcoQKFOhUCjYZPBBA/hQJklHEB8WY/BMhbjQOoiLMBzS4/BTIH+
QEyPwUARNMLBhCmgQEz5yr8qfKfBIhIWQZ08IED5SLLBxOY5QLMJvEAJecrBCiwGQROKgkA5Or/B
scR2QAmHiEAma73BEosAQSt40T9HMqPBzP6UQIjNe0Af9K3BF6LLQFSODz7xh5DBfC6OQLu68EC5
IdPBW5COQD0BDz9ytq/BYcxvQELDZsCNf4vBR1lVQF44R8AXuZjB92dVQDiRmsCJLZXBZFauQL4q
okAUm4TBkF6BQPQhhEACMYDBlZK1QMHRXEBZ+n3BMZarQPiSh8CWrp/BxEy5QC7fl8DmZZLBpSlZ
QCqELUBxp6TBI3whQKHblEBvgIzB4o31P1X7g0BA8JjBQpL/QHyy0j9ALbPBtMJ6QC8HjUB0vs7B
lWbuQG5EHkCOErvB4+SNQEBtZEDg4sbBPlLoQEdisT/b4anB6ryuQDrZMUB1YbDBp7i9QIahLb/4
PJnB9DyUQICpsUCxRtHB+Jd8QL+x1b4luqLBAv3FQLmBQkD4rLnBvDO0QAReeUAO38HBqui/QODc
+T9GfKjBoOWgQEC4aj49RZ7B6QiwQH7+/b/JCprB5pvIQKMIokAv+sTBKOe7QE5UEEDyP5TB/pR0
QGaLUkDRApbBCNzDQHzZSsCGD5bB4E2nQDJU1j82pJ7B9BW1QFiOb8AtPoLBvbOnQD6XfUBxFYbB
UW2sQHirgsCj5Y3BBI65QPfgvECZk8zBZomeQKgOTkCm3I/Bl996QIUWGkDUmZ7BctsuQLj6gkCi
OpTBYLreQACd+j8Yg5DBoOHoQPVPYcDZ+ZjBBrTtQEDyrEBZRsDBrqGAQCosB8CW1qDB4YUPQfRM
mj/3Q7TBsSE/QIKKhUAow9LB73UAQZCqKkANRsLBmB95QHSHKkDgw8TB7O31QJaNPT+uxKPBQTGP
QHflTUD1Pa/B+gvbQPyCxr6oPpXBWr6IQHufx0CJWtfBnGBHQGA5ozw6AqfBmUPXQO5VdMAWZoDB
kqOqQG0uLsDpfIDBE++jQIiUjcDYxnnBAF64QKitnECW7YfBGvOJQGxhhkC04oHBo9G7QKVdV0AI
wYDBwP+JQI7Ff8BcY4/BLLO2QMilo8B+YI/BcpVLQGs+E0CgIaTB3J8vQNollkB15I3B9q78P+lt
gUCzV5nB

>  <OMEGA_E>  (3) 
iogOwVIYJ8HYHg7BoH8FwQ==

>  <OMEGA_NBR>  (3) 
     68571

$$$$
