450350
     RDKit          3D

 55 58  0  0  1  0  0  0  0  0999 V2000
    6.1263   -0.8884  -21.8942 C   0  0  0  0  0  0  0  0  0  0  0  0
    6.8509    0.0186  -22.6814 C   0  0  0  0  0  0  0  0  0  0  0  0
    2.9040   -4.9035  -17.3520 C   0  0  0  0  0  0  0  0  0  0  0  0
    3.7792   -4.4246  -18.3359 C   0  0  0  0  0  0  0  0  0  0  0  0
    4.9330    0.9609  -20.8637 C   0  0  0  0  0  0  0  0  0  0  0  0
    1.8783   -2.7021  -17.2844 C   0  0  0  0  0  0  0  0  0  0  0  0
    5.6341    1.8823  -21.6663 C   0  0  0  0  0  0  0  0  0  0  0  0
    5.1783   -0.4090  -20.9606 C   0  0  0  0  0  0  0  0  0  0  0  0
    1.9420   -4.0297  -16.8206 C   0  0  0  0  0  0  0  0  0  0  0  0
    6.6283    1.3983  -22.5587 C   0  0  0  0  0  0  0  0  0  0  0  0
    3.6714   -3.0797  -18.7595 C   0  0  0  0  0  0  0  0  0  0  0  0
    4.3603    4.0041  -19.2504 C   0  0  0  0  0  0  0  0  0  0  0  0
    4.5858   -2.5407  -19.7762 C   0  0  0  0  0  0  0  0  0  0  0  0
    6.5808    6.0437  -20.1248 C   0  0  0  0  0  0  0  0  0  0  0  0
    7.9146    4.5846  -18.5222 C   0  0  0  0  0  0  0  0  0  0  0  0
    6.5254    7.1586  -19.0870 C   0  0  0  0  0  0  0  0  0  0  0  0
    7.8411    5.6828  -17.4530 C   0  0  0  0  0  0  0  0  0  0  0  0
    6.8515    3.5771  -20.4973 C   0  0  0  0  0  0  0  0  0  0  0  0
    5.5562    3.3624  -21.3254 C   0  0  1  0  0  0  0  0  0  0  0  0
    6.6812    4.6519  -19.4437 C   0  0  0  0  0  0  0  0  0  0  0  0
    7.7096    7.0791  -18.1036 C   0  0  0  0  0  0  0  0  0  0  0  0
    5.4807    4.2358  -22.6149 C   0  0  0  0  0  0  0  0  0  0  0  0
    2.7296   -2.2514  -18.2305 N   0  0  0  0  0  0  0  0  0  0  0  0
    4.3255    3.6750  -20.5232 N   0  0  0  0  0  0  0  0  0  0  0  0
    3.1887    3.9481  -18.5112 N   0  0  0  0  0  0  0  0  0  0  0  0
    4.4336   -1.2004  -20.0963 N   0  0  0  0  0  0  0  0  0  0  0  0
    5.4639   -3.2461  -20.2597 O   0  0  0  0  0  0  0  0  0  0  0  0
    5.5156    4.3785  -18.6101 O   0  0  0  0  0  0  0  0  0  0  0  0
    1.0832   -4.4587  -15.8712 F   0  0  0  0  0  0  0  0  0  0  0  0
    7.4258    2.2398  -23.2572 F   0  0  0  0  0  0  0  0  0  0  0  0
    7.5001    7.9966  -17.1274 F   0  0  0  0  0  0  0  0  0  0  0  0
    8.8652    7.3746  -18.7606 F   0  0  0  0  0  0  0  0  0  0  0  0
    6.2919   -1.9502  -22.0007 H   0  0  0  0  0  0  0  0  0  0  0  0
    7.5837   -0.3470  -23.3855 H   0  0  0  0  0  0  0  0  0  0  0  0
    2.9681   -5.9255  -17.0088 H   0  0  0  0  0  0  0  0  0  0  0  0
    4.5270   -5.0747  -18.7656 H   0  0  0  0  0  0  0  0  0  0  0  0
    4.1944    1.3206  -20.1627 H   0  0  0  0  0  0  0  0  0  0  0  0
    1.1356   -2.0325  -16.8764 H   0  0  0  0  0  0  0  0  0  0  0  0
    5.6687    6.0784  -20.7387 H   0  0  0  0  0  0  0  0  0  0  0  0
    7.4610    6.1939  -20.7672 H   0  0  0  0  0  0  0  0  0  0  0  0
    8.8250    4.7240  -19.1236 H   0  0  0  0  0  0  0  0  0  0  0  0
    7.9470    3.6011  -18.0305 H   0  0  0  0  0  0  0  0  0  0  0  0
    6.5555    8.1291  -19.6039 H   0  0  0  0  0  0  0  0  0  0  0  0
    5.5857    7.0734  -18.5215 H   0  0  0  0  0  0  0  0  0  0  0  0
    6.9671    5.5014  -16.8101 H   0  0  0  0  0  0  0  0  0  0  0  0
    8.7566    5.6542  -16.8439 H   0  0  0  0  0  0  0  0  0  0  0  0
    7.1159    2.6320  -20.0005 H   0  0  0  0  0  0  0  0  0  0  0  0
    7.6631    3.8730  -21.1782 H   0  0  0  0  0  0  0  0  0  0  0  0
    5.4254    5.2984  -22.3360 H   0  0  0  0  0  0  0  0  0  0  0  0
    6.3782    4.0638  -23.2272 H   0  0  0  0  0  0  0  0  0  0  0  0
    4.5852    3.9612  -23.1917 H   0  0  0  0  0  0  0  0  0  0  0  0
    3.4365    3.6309  -20.9791 H   0  0  0  0  0  0  0  0  0  0  0  0
    3.2001    4.1773  -17.5379 H   0  0  0  0  0  0  0  0  0  0  0  0
    2.3322    3.6786  -18.9514 H   0  0  0  0  0  0  0  0  0  0  0  0
    3.6765   -0.7354  -19.6373 H   0  0  0  0  0  0  0  0  0  0  0  0
  1  2  2  0
  1  8  1  0
  2 10  1  0
  3  4  2  0
  3  9  1  0
  4 11  1  0
  5  7  1  0
  5  8  2  0
  6  9  2  0
  6 23  1  0
  7 10  2  0
  7 19  1  0
  8 26  1  0
  9 29  1  0
 10 30  1  0
 11 13  1  0
 11 23  2  0
 12 24  2  0
 12 25  1  0
 12 28  1  0
 13 26  1  0
 13 27  2  0
 14 16  1  0
 14 20  1  0
 15 17  1  0
 15 20  1  0
 16 21  1  0
 17 21  1  0
 18 19  1  0
 18 20  1  0
 19 22  1  6
 19 24  1  0
 20 28  1  0
 21 31  1  0
 21 32  1  0
  1 33  1  0
  2 34  1  0
  3 35  1  0
  4 36  1  0
  5 37  1  0
  6 38  1  0
 14 39  1  0
 14 40  1  0
 15 41  1  0
 15 42  1  0
 16 43  1  0
 16 44  1  0
 17 45  1  0
 17 46  1  0
 18 47  1  0
 18 48  1  0
 22 49  1  0
 22 50  1  0
 22 51  1  0
 24 52  1  0
 25 53  1  0
 25 54  1  0
 26 55  1  0
M  CHG  1  24   1
M  END
>  <OMEGA_C>  (1) 
dgrEQAVrY79FJ6/BVjrbQOBkmDyJc7XBkdo5QKLpnMDX0IrBld5xQJ6WjcD5r5LBgtudQEv9dT/o
6KbBFmzwP7zuLMCBRorB8kq0QJrv8D+cVK3BPrSlQNJt0b5Mr6fB3JL4P1nzgMCUkIbB+BrUQN75
sj9DeLTBHPhqQI4ZRcB5E5bBSIeLQGEhgEC8AJrBBL+SQB6bIsCjNZ7BsJXSQJllwUCq/6DBWET9
QBO1kkBeLZTB3M/QQHcT5UAhspjB6un6QJTZtUDJn4vBdj/bQM3vZEBo+qPBnsyxQEIyV0BqmqrB
vMzVQKTclEDGjJvB0LT2QLWH4kAq1JDB1mGvQASMh0BZ67TBa7IuQIQXEMAY2JHBKmqKQPkza0CQ
L6TBMxNMQHGufEDyFpTBROCNQKanmb8hxaDB7teuQKm/T8DEE6LBbH+wQFkcjEB04ZTBhKaKP42t
jsCQ8H3BKqDtQB9YD0C9DrrBFgHwQIrk/0DlBInB0tcNQRT960C3FZbBhVfJQIKh+b9xAbDB363y
QFSlsb5uFbvBGPY9QP2dvcAIEojBMd2QQDNkosDdH5bBljiGQPQIqT80TaHBT1yRP68TAsDzAofB
3mW1QCmCwkD16KXBzsDuQEU0xkAgI6bBQzMNQUUrl0AN/ZjBhU3+QMR4ZkB7PpDBcMbRQNUQAkHh
1JzB972yQBpZ4kAaLJTBmvLeQMcLsEAbe4bB9BoMQR/vtEBewIbBarXjQC5yKEAUAaDBajj1QN3f
d0D6bKnBIJ2tQOeMqUASsLLBGRrMQMsKgkBY0bnBxrmSQOqEfUCKiLnBqO9bQOJfaEAm1afBzs5M
QJ+shUCXTYzBH0IVQLZua0BqnJfBikxrQGNGPL85GZ3BBOLJQOYhWr8gj63Ba5vgQADqiz1e1LPB
OfYzQCJJn8AEiovBMOduQB9Sj8CD/ZLBF8KeQPaadz+edqbBIyfjPzQJMsCFH4vBUVG0QLty9D9M
/KzBhBupQNyiyr6MrqbBFQ/pPya+g8BNj4fBZlbWQG//tz+rk7PBpC9pQEMOSMCAO5bBNqaMQOBs
hEAaI5vB1YqTQGRDJMCg6Z3BW5D3QBQAtEDgQZ7BlTrrQKx2SEBEP5zB3mMBQVbRuEBvPZLBB9oG
QWS/UEClp5PBcgvJQNOGjkBadqvBITulQGBcWUCmC63BNsHWQC/2j0C7v5/BQLoBQUxCjUDED4zB
NzqQQMD9a0Ai67fBMg8rQF7eE8AORJLBYtmDQNzhZ0D3k6TBcmNeQFpGgEDX5ZLBDDqQQFeFmr+c
FaDBtkOvQJT8UcCL16HBy7CxQNWYmkBpKZnBZNFrP1cSksA7V4DBK+TtQKhFEUDXt7nBwSjdQBRp
hUAuLYfBxRcRQcaAjkDOcYTBeGXRQBbU87/f+63B20b6QIIxjr7C6LjBCkk3QK4pwMCR6IjBJhOQ
QIDWo8DqOJbBna2FQCJ4pz+yLqHBFPeAP+vZB8CuF4jBhwDqQLs40kD1O6HBIGIKQfNPrEBvx6LB
Xqv5QOdrKkD4VqPBXaDRQB0YH0CtIJnBBE4RQSCfx0DAlpHBTtLqQL3KzUA3fY7B264HQW3KFEDF
D4/BbmAWQZzQXEAXhJfBwsDkQF8FhkCqdLDBefa8QAEtrkA12q3BJVSFQHB0l0AgIrjBMqWnQD8/
YUCLWb7BNlppQFEhQUBWDrnB7B5LQOnBV0CyMKbB2X9qQCVIjUA6v4vB49AnQGqNYEAgHJTBzotw
QM4XPb+7VJzB/SvHQJ+fcL8Raa7BLd/dQEDHPbwblrTBZDU4QGQKncC6qIrBruZ0QEuhjcCx8ZHB
xvibQAdxWz9q+KbBgQ3cP5jOMcC3C4zB5RyyQCAg5j8rKa3BbzymQCJF/L43jKfBmWnnP3xmgsBU
vIfBS3nTQPLjrD82FbTBRnlrQM2vR8DFEZbB89eNQBf1hkBaC5vB7I2UQBqyJcCdzZ3Bb0arQJ5f
yUCQHqvBw8j0QHAEvEAuJqLBEE6sQLbo9kBJ36bBaSb0QNeB6kA0aZ7BxdrOQHE1gUBJY6rBQzSl
QB3EUEBMiazBCELHQBlKqkC+RqTBt5naQLhXA0HCRKbB/9mPQBr8Z0BPZ7fBsBMpQH3AFMDZBZPB
kUmFQI7YYEATs6PBHIthQHH7hUBTqZLBDc+MQI0kp78EVKHBvFS0QHPKTsAuY6DBQcWxQHSboEAf
NZrBEnJcPzijkMAx64DBA7fpQMiqDEA2b7rBc47aQNHHF0EGrqLBNaXsQMq/AkEQOLDBPc3OQLXr
/r9C5K7B6XD3QOUHsb5wv7nBGPg9QDvVvMBBWYfBrRGVQDZrocAJX5TBJ62CQHadlz+TsqHBOVdm
P3bDCMAhu4nBiv6JQBDqvUAeCavBdFy3QP1YyUBoYrPBMLsDQZL3uUAml6nBdw4CQQNbqEDV75vB
rvCZQKHqBUHUQazBVP+dQL6190Ce1Z7BeyrlQLQx7ECSdZbBGpoKQZNz9kA17J3Ba4TkQM+EWUA9
s6XBu+PdQEsMiUB+GbLB4fiFQGnGlUDaTLfBU96mQMikXUBT773BjT1nQD4nP0DGqLjBqfNPQNbi
R0AHdKTB9ddrQB2tl0AFH4zBI1QtQJwrZ0CaKJPBiLdhQK4Lab9ADp/B7OrCQGE7ab+pSq/B9cbZ
QAAmIrvEpLXBqNLjP/pqNMDV8onBmr4nQPJzE8Ba35HBEamcQMy1bz9wAqfBwIpCQIyPnMAF54rB
ucmyQP/77T/4ea3BUcCkQLK73b4yy6fB3pX/P84hhMBTY4bBgXDSQNcvsD/1rLTBepdqQAQ2R8Al
EpbBFxqMQGMegUAx+5nBhMiSQJaqI8BoG57BH5TTQAAEwUAPvKHB09v+QEcckkCzFJXBbALUQJ5B
5UD0kJnBcZ/+QHvFtUCYrIzBI3jaQLKAY0DhbKTB316wQCTJVUAnwKrBDn7WQBTJlECSIpzBq+76
QOst4kBVBpLB2NOsQJyrhkDpEbXBNTp2QE5KjMAQkpLBQM2JQEQOakC+C6TBJFNOQMa2gEAR1pPB
8O2MQHZ2nb9P9aDBhp2wQAQLT8AQdKHBAbyxQDpTjUCILpXBqAubPxHdlMAWVX3BKrrrQDQLDkC8
ULrBsxf2QGcNAEEJRIrB2rUPQf5a6kC8n5fBy1rIQN95/L/xILDBTyTxQP9Ju77HTrvBEyt7Px0d
DsDnpYbBlJkeQIMQpr+qyZTBBhyFQAR/pT/AXaHBxZtMQMn3vMBZLYjB0rC1QE6VwkDeXabBIwvv
QOLBxECbKKfBwrYNQXp9lUDZJprBc53/QETDZUBgBpHByjnVQMQAAkGf1p3BKYy2QGqo40BtxJTB
xzjjQDoSsUDURofBdUMOQdlZtEC1C4jBJO7iQPpjJ0DWXKDBEf3zQG/gdECFFarBKSOrQOayqEDJ
27LBrhTJQOo1gUBeI7rBh8OPQO1le0C7f7nBCcBZQLjnZEDbZ6fBkL5QQPQpiUBHIIzBGKAWQL7x
b0BcHZfBkn1nQI3sR79Fk53BiSzJQK00Wb99fa3BTNbfQGjhjD1Qy7PBdoTXP3GFNsDPoIrB5skj
QBw7FcDTS5LBelyeQB8Gej8YWqbB/Dk5QMp4nsAnzYvBJtqzQLRL9T9X76zBg6moQP40x77kkKbB
fD/uP3ukhcAARYfBgbnVQPwnuD92irPBAG5mQPFwScBncJbBjK6MQDY5hEC1MJvBQp+SQECNJMA7
9J3BZ9L2QIR5tUCHqp7BOnjrQF4+S0CQaZzBoUMBQYEQu0AYtZLBFgoHQZIpVUCv3pPB9WfIQCfw
jkB6qavBLLOkQELPWUB8Ia3BKmDWQLf0kEA8+Z/BJeUBQSHgj0DlYozBG6KPQFKqa0ATBrjBIBdv
QNwFjsD2OJPBdmqDQPLoaEAcraTBgYRgQM55fECDy5LBFcSPQOxGmr+fBKDBmiyvQAbMUcAWmKHB
Y1WxQLI3m0CmVJnBDmuGPylelsBrbH/BciztQKoOEUAWvrnBfr3dQK8ViEDUYYfB9mERQZfTkUDT
1oTBEo3QQKF587+I7a3Bklz5QFeSj77V57jBYmFjP++5D8AmXofBzW0cQIBJqL8JDpXB0W6FQMEP
qT/kCaHBYApBQA5Rv8AJTInB5sLoQCFh00CcsqHBtPUJQXfrrUBtPqPBjvb5QKkWLUCefaPBXzbS
QHNqIUCpNpnBQSMRQYghykB+MpLBqJXqQHoT0ECz9o7BigUIQUDLGUB8Ko/BtYAWQT0uYUBxy5fB
dQ3kQCxWhkCjqrDB8ya8QGVwrkBpHq7BKruEQDxIl0B1T7jBZAWnQHF2YEAbc77BCChoQJC4QEDf
GrnBFOZJQKJoWkDdUabBDm1tQEiRikBUl4vBr6MqQFUwW0C98pPB7BZwQLcvPL+tL5zB

>  <OMEGA_E>  (1) 
KCn4Pnw5Cz90+Bc/eMEdP1RjLD8=

>  <OMEGA_NBR>  (1) 
     61553

$$$$
450352
     RDKit          3D

 49 52  0  0  1  0  0  0  0  0999 V2000
    6.1599   -0.9309  -21.9272 C   0  0  0  0  0  0  0  0  0  0  0  0
    6.8566   -0.0057  -22.7210 C   0  0  0  0  0  0  0  0  0  0  0  0
    2.9047   -4.7817  -17.2381 C   0  0  0  0  0  0  0  0  0  0  0  0
    3.8291   -4.3481  -18.1987 C   0  0  0  0  0  0  0  0  0  0  0  0
    4.8917    0.8893  -20.9332 C   0  0  0  0  0  0  0  0  0  0  0  0
    1.8007   -2.6245  -17.4135 C   0  0  0  0  0  0  0  0  0  0  0  0
    5.5734    1.8292  -21.7223 C   0  0  0  0  0  0  0  0  0  0  0  0
    5.1816   -0.4685  -21.0203 C   0  0  0  0  0  0  0  0  0  0  0  0
    1.8746   -3.9100  -16.8472 C   0  0  0  0  0  0  0  0  0  0  0  0
    6.5819    1.3693  -22.6159 C   0  0  0  0  0  0  0  0  0  0  0  0
    3.6985   -3.0497  -18.7389 C   0  0  0  0  0  0  0  0  0  0  0  0
    4.3651    4.0653  -19.2437 C   0  0  0  0  0  0  0  0  0  0  0  0
    4.6364   -2.5589  -19.7573 C   0  0  0  0  0  0  0  0  0  0  0  0
    7.6279    6.5021  -19.2241 C   0  0  0  0  0  0  0  0  0  0  0  0
    6.7765    6.0417  -20.4144 C   0  0  0  0  0  0  0  0  0  0  0  0
    7.9809    5.0245  -18.9823 C   0  0  0  0  0  0  0  0  0  0  0  0
    6.7753    3.5076  -20.5532 C   0  0  0  0  0  0  0  0  0  0  0  0
    5.4678    3.2971  -21.3395 C   0  0  1  0  0  0  0  0  0  0  0  0
    6.6493    4.7058  -19.6639 C   0  0  0  0  0  0  0  0  0  0  0  0
    5.3225    4.2247  -22.5774 C   0  0  0  0  0  0  0  0  0  0  0  0
    2.6988   -2.2175  -18.3336 N   0  0  0  0  0  0  0  0  0  0  0  0
    4.2747    3.5748  -20.4643 N   0  0  0  0  0  0  0  0  0  0  0  0
    3.2460    4.0095  -18.4256 N   0  0  0  0  0  0  0  0  0  0  0  0
    4.4300   -1.2595  -20.1746 N   0  0  0  0  0  0  0  0  0  0  0  0
    5.5673   -3.2508  -20.1545 O   0  0  0  0  0  0  0  0  0  0  0  0
    5.5275    4.6174  -18.7378 O   0  0  0  0  0  0  0  0  0  0  0  0
    0.9561   -4.3033  -15.9396 F   0  0  0  0  0  0  0  0  0  0  0  0
    7.3488    2.2283  -23.3265 F   0  0  0  0  0  0  0  0  0  0  0  0
    6.3705   -1.9870  -22.0096 H   0  0  0  0  0  0  0  0  0  0  0  0
    7.6074   -0.3519  -23.4159 H   0  0  0  0  0  0  0  0  0  0  0  0
    2.9830   -5.7684  -16.8062 H   0  0  0  0  0  0  0  0  0  0  0  0
    4.6296   -4.9976  -18.5210 H   0  0  0  0  0  0  0  0  0  0  0  0
    4.1290    1.2261  -20.2467 H   0  0  0  0  0  0  0  0  0  0  0  0
    1.0124   -1.9530  -17.1067 H   0  0  0  0  0  0  0  0  0  0  0  0
    8.4836    7.1391  -19.4926 H   0  0  0  0  0  0  0  0  0  0  0  0
    7.0591    6.9760  -18.4105 H   0  0  0  0  0  0  0  0  0  0  0  0
    5.8327    6.5901  -20.5507 H   0  0  0  0  0  0  0  0  0  0  0  0
    7.3105    5.9867  -21.3745 H   0  0  0  0  0  0  0  0  0  0  0  0
    8.8734    4.6667  -19.5164 H   0  0  0  0  0  0  0  0  0  0  0  0
    8.0436    4.7290  -17.9245 H   0  0  0  0  0  0  0  0  0  0  0  0
    6.9788    2.6178  -19.9393 H   0  0  0  0  0  0  0  0  0  0  0  0
    7.6043    3.6632  -21.2594 H   0  0  0  0  0  0  0  0  0  0  0  0
    5.2503    5.2710  -22.2457 H   0  0  0  0  0  0  0  0  0  0  0  0
    6.2008    4.1065  -23.2291 H   0  0  0  0  0  0  0  0  0  0  0  0
    4.4135    3.9532  -23.1342 H   0  0  0  0  0  0  0  0  0  0  0  0
    3.3647    3.3766  -20.8283 H   0  0  0  0  0  0  0  0  0  0  0  0
    3.2911    4.3642  -17.4917 H   0  0  0  0  0  0  0  0  0  0  0  0
    2.3942    3.6146  -18.7699 H   0  0  0  0  0  0  0  0  0  0  0  0
    3.6085   -0.8234  -19.8074 H   0  0  0  0  0  0  0  0  0  0  0  0
  1  2  2  0
  1  8  1  0
  2 10  1  0
  3  4  2  0
  3  9  1  0
  4 11  1  0
  5  7  1  0
  5  8  2  0
  6  9  2  0
  6 21  1  0
  7 10  2  0
  7 18  1  0
  8 24  1  0
  9 27  1  0
 10 28  1  0
 11 13  1  0
 11 21  2  0
 12 22  2  0
 12 23  1  0
 12 26  1  0
 13 24  1  0
 13 25  2  0
 14 15  1  0
 14 16  1  0
 15 19  1  0
 16 19  1  0
 17 18  1  0
 17 19  1  0
 18 20  1  6
 18 22  1  0
 19 26  1  0
  1 29  1  0
  2 30  1  0
  3 31  1  0
  4 32  1  0
  5 33  1  0
  6 34  1  0
 14 35  1  0
 14 36  1  0
 15 37  1  0
 15 38  1  0
 16 39  1  0
 16 40  1  0
 17 41  1  0
 17 42  1  0
 20 43  1  0
 20 44  1  0
 20 45  1  0
 22 46  1  0
 23 47  1  0
 23 48  1  0
 24 49  1  0
M  CHG  1  22   1
M  END
>  <OMEGA_C>  (2) 
/h3FQNBPbr/kaq/Bc2nbQACUubuhxLXBYOY5QJIDmcCn54nBahB1QPcji8DylpHBxYicQOynYz8y
d6fBqHzmP9j3J8DfTovBiVmyQIEi6j9Cx63BtM+lQO7i776PKajBdPPvP7I9esAjx4bBqZ7SQOxD
rz9Q7bTBTLRsQJYuQ8Bd6ZXBOq+LQAAXgkAW85nBi12UQG7FI8DdDp7B3xf0QHwR0EAEy5nBstjY
QKRVwUC0UKPBQWP/QIzIoECu25fBic/YQPx7YEAHbaTB8veuQPIDU0BIt6rBI8fUQDKWlkC8T53B
0lGqQOEwh0CBnrTBoLksQCrsDcAnq5LBscqIQJTJZEDvtqPBSr5PQM9NgECqZ5PBwMKNQBM4ob+i
ZaHBryeyQE4MUMCEPKHBKuGwQKLBk0Dy5pXB98J0P120icBpCH/BaSnrQMqbDkCTnLrBbtvLQIpU
/r+7E7DBx2/zQHkqtL7DU7vBi+k+QBSXuMAHc4bBrSWUQE/sn8DvKpTBAyGEQBPynD9D+aHBBJeB
P3n7+b+U2ojBwLwHQZhz5EDq8JvBOOThQDk730DISJPBZqW6QAji0kDnZ6TB0O/pQMqSv0Du/qrB
kPkNQalVlUClIZzBdrIAQV1Ul0B0ZY/BUFLfQJ6JJ0DDg5/BR1bzQEtyakAtE6rBZgKoQFmsqEBE
97HBo2zGQMVog0Ae1bnBvDuNQLQAfUDtErnBv1ZXQAwaWEBboKbBsqFSQGOni0AL74vBnzoZQGVV
Z0CuKJbBZPFmQIDKUr+DdZ7BqrXFQNnmU791Ya7BdTndQEgcoj2XmbTBzHA8QD9dncAyhorBcPZz
QHtSjcC8X5LBY/qeQF0PhD+4ZabB1kLkP+g8MsBvzIrBcnC1QE1f+z8K3azB7timQE3Ksr4TDqfB
u9n1P6DOgsBFqIbBNJPVQB86uz/s3rPBGK9oQMrqRcBgKJbBBeKNQALJfkCPc5rByG+SQJjvIMBk
AJ7Bd9AFQdQdeUBkI5PBcFUAQSECokDCqZrBfQ/0QMQVP0AgJpvBWs/OQOXnjEA8r6nBx0upQMJX
XkDlj6zBGGvZQAKTh0Dz3Z3B0FeYQG6dekC3mLfBoh4oQHX7E8B3XJLBblGGQHaLbkDgoaTBDHFZ
QGCSdEAgMZPBfomNQC8Glb97haDBnjWwQAoyTMAdZqHBBAO1QAVbjUAUtZbBPgSKP64HkcBk+33B
whjtQHIIEkCdJbrBzCvLQLPX8b/qL6/BuXj1QM+1k741ArrBhPJDQJGJvcADg4fBC2yTQJ0TocB2
gZXBjzmHQOhXsj/z06DBpRl9P+StCcCB4IfB5QMXQdvYa0AESpLBnNX8QAfYfEC1KovBb3r5QCp0
wEDwoJbB7/MLQdifp0A+H6HBcvIDQTN0JkAhvKHByu/hQCcTCkAAi5fBHu7qQBx5hEAxiq7BksDF
QDFSrkAhRqvBcNSPQCRyn0B+VLfBtEOxQDFgcECTrb3Bu653QOu5VEC0p7nBSu5PQHr9bECYKKfB
Pu5iQK+ugECQcYvBcR8gQNdpYEB6tJXBQpZoQG7KNr/CLJ3B6srEQHL4cL9PYq/BmsbaQGDwdbwU
yLXBATTfPyuVL8DukYrBJrUpQMo0EMAqGJLBR9ibQDYqYD93d6fBNjk8QCNjm8ATHIvB4G6xQPuM
6D/A0a3B94KlQKG79r4oH6jBibPxP1sNgsDEDofBTK7RQMXPrT+m+7TB+DlsQIwjRsC/+JXBQPKL
QJapg0DHDZrBG3iUQPv4JMBE+J3B5Cr2QOXqz0AqtJrB6dnZQEHrwED3/qPBLi0AQYGZoEAqepjB
1krYQP6dX0CbnqTBNyeuQB1XUkBNx6rBuzrVQLHSlkBru53BJAapQCushkBQtLTBBDV0QCrai8A7
Z5LBw32IQIe5ZED3o6PBgpdQQJyDg0DecJPBrdqNQKl7o78SUaHB14uyQCPUUMBEE6HBcZGxQHRT
lUD+OZbBno6CP95GksCdtX/BBgrqQLvlDUCCtrrBi8HLQLiD/7+PA7DB9M7yQHa/t74OWbvBDvRy
P6eTB8CiiIfB0zEkQPp5nr9Q9pTBd1uDQADOmj9O/KHBX0ZDQG7qu8DNU4jBLvYIQd5M40BCHZ3B
m9rkQEVK4EAPOpTB2Py7QKUS00DQC6XB4UrqQBYLvkBnvqvBljQOQYH5k0CPwJzB9EUBQfkJmECE
9Y/BCH7eQEJmJ0DtjZ/BVbHyQOOUZ0C1WqrBrc2mQJgzqEBWFbLBjeTEQL3RgkA3/rnBpL6LQOa/
e0DbELnBTH9WQO/nVUA1T6bB70hUQCf9j0CaFozBdIAZQGHdbUDNBpbBeVJnQE+CV7+QUZ7B/x3H
QArrWr8sFK7BsM/dQPA2fj1cYrTB4BDaP45wNsBRiorB7/QjQEAHFsChY5LBIzCfQOOpfD+rK6bB
Qdo9QNKKncA9JovBKey0QIi79j+csqzB1P2nQAKlx768yqbB+hb1P9HuhMAJ0IbBSTXVQLJmuD+X
ubPB+ctnQHiYScAEWJbBFliNQIhUgECmaZrBppeSQBrtJMABFZ7BeUIGQcJdfkCs55PBDGL/QOnu
o0A/b5vBulb1QOYZQkCEupvBKpHMQNWhjEBjBqrBBJ2nQHdkW0AMhqzBGc/YQCPxh0AITJ7BjjiV
QBbcdEC5g7fBA75yQFt8jcAQv5LBxT+FQDBha0AUbKTB97tXQMR1f0ApI5PBlSyPQP8sm78gQaDB
Tz+vQIPeUcBnvKHB3jW1QBvzjEAD2JbBTPmOP70ylcA1Mn7BpAbsQLQrEUDuFbrBqGzNQA7l9L9H
y67Bqy32QNZalr5pz7nBPkRlP9D2D8DWa4fBYtEaQIf7q78Wb5XB2UyHQP4Wqz+mlqDBWG1HQHvj
vcAnWojBopwXQUzTc0DtP5PBQmv+QLy4gEDd2YvBsYf3QMNBwkCPa5fBetYKQQwiqkDuEKLBHnoE
QXvfKkAYb6LB3bTkQPLIC0DZ+pfBEkfoQCTihEAPGK/BH1DCQKK2rUC+mKvBn9eLQExanECKX7fB
Y6mtQDncakAOub3ByRByQEgrTUAfS7nBPW5NQNenZUDjtKbBLuVhQGJLiEDZiIvBxkYdQBp3bUD7
fZXBbhluQHDgP78PhpzBH6HBQLqsd78Awq3BMsHXQLxDxr3xo7TBP2hQQFB2mMAPE4bB8ZCHQIJd
gMABbovBvpaaQFprbj8jXabBtJnIPzHPZcDxZ5DB+bexQAOW6j/i8KzBDv6iQAZw5b52mqbBwbDz
P3GtkcA7oojBJiLQQAZ4pT9zRbTBFGt1QIn1Q8DRNZPB6VyPQK9ShkDLXprBpnaaQCIbEcAZPpnB
eAIEQZIYYUBXCJHB8FwDQfmAlEDaf5nB8W3sQKwtLEC43JjBZCDTQCuihEClIanBu5qpQI84V0CQ
GKzB5FfbQNCOgUCP/5zBirWXQDKdeEAi5bbBYighQLq7N8BafJXBocqHQBAMa0Do4qPBi9VZQO3V
jUCGo5PBSMCKQGzuor/kAaDB6APBQNNoG8Aq1JfBlZC3QA69kUDszJbBEpluP2VwqMCxtoPBxm3m
QLl5BUDoDLvBpRLIQBnPAcCv863BFsDuQO9B/b4OQLrBM2FiQMPDr8A7GoDB5w+pQOTyhMAio4nB
uBmCQLTspz/yFKHB0yUHP8E1W8DvWJLB9QIUQaulRkAGdI/BAVb4QJzOcEAsZ4nB14wCQYwitUB3
OZbB4hAQQRLfkkCek5/ByJ7+QE6yBkAOw57BkUvUQOn+AkCyDJXBu3HuQN+VbUBmeK3BOF7PQGpv
pkByZqvBB+6RQE70nkAgU7bBegevQIHua0AWS73B8vRyQDWpV0D7ubjBdMxSQArXXUDaxKXBWlJj
QFofm0BQdYzB96YeQND3hUCs9pXB7RJWQH/3kb9XIKDB

>  <OMEGA_E>  (2) 
GL/GPkCpzz522AY/cFwJP1yTMz8=

>  <OMEGA_NBR>  (2) 
     67154

$$$$
450353
     RDKit          3D

 49 52  0  0  1  0  0  0  0  0999 V2000
    6.1599   -0.9309  -21.9272 C   0  0  0  0  0  0  0  0  0  0  0  0
    6.8566   -0.0057  -22.7210 C   0  0  0  0  0  0  0  0  0  0  0  0
    2.9047   -4.7817  -17.2381 C   0  0  0  0  0  0  0  0  0  0  0  0
    3.8291   -4.3481  -18.1987 C   0  0  0  0  0  0  0  0  0  0  0  0
    4.8917    0.8893  -20.9332 C   0  0  0  0  0  0  0  0  0  0  0  0
    1.8007   -2.6245  -17.4135 C   0  0  0  0  0  0  0  0  0  0  0  0
    5.5734    1.8292  -21.7223 C   0  0  0  0  0  0  0  0  0  0  0  0
    5.1816   -0.4685  -21.0203 C   0  0  0  0  0  0  0  0  0  0  0  0
    1.8746   -3.9100  -16.8472 C   0  0  0  0  0  0  0  0  0  0  0  0
    6.5819    1.3693  -22.6159 C   0  0  0  0  0  0  0  0  0  0  0  0
    3.6985   -3.0497  -18.7389 C   0  0  0  0  0  0  0  0  0  0  0  0
    4.3651    4.0653  -19.2437 C   0  0  0  0  0  0  0  0  0  0  0  0
    4.6364   -2.5589  -19.7573 C   0  0  0  0  0  0  0  0  0  0  0  0
    7.6279    6.5021  -19.2241 C   0  0  0  0  0  0  0  0  0  0  0  0
    6.7765    6.0417  -20.4144 C   0  0  0  0  0  0  0  0  0  0  0  0
    7.9809    5.0245  -18.9823 C   0  0  0  0  0  0  0  0  0  0  0  0
    6.7753    3.5076  -20.5532 C   0  0  0  0  0  0  0  0  0  0  0  0
    5.4678    3.2971  -21.3395 C   0  0  1  0  0  0  0  0  0  0  0  0
    6.6493    4.7058  -19.6639 C   0  0  0  0  0  0  0  0  0  0  0  0
    5.3225    4.2247  -22.5774 C   0  0  0  0  0  0  0  0  0  0  0  0
    2.6988   -2.2175  -18.3336 N   0  0  0  0  0  0  0  0  0  0  0  0
    4.2747    3.5748  -20.4643 N   0  0  0  0  0  0  0  0  0  0  0  0
    3.2460    4.0095  -18.4256 N   0  0  0  0  0  0  0  0  0  0  0  0
    4.4300   -1.2595  -20.1746 N   0  0  0  0  0  0  0  0  0  0  0  0
    5.5673   -3.2508  -20.1545 O   0  0  0  0  0  0  0  0  0  0  0  0
    5.5275    4.6174  -18.7378 O   0  0  0  0  0  0  0  0  0  0  0  0
    0.9561   -4.3033  -15.9396 F   0  0  0  0  0  0  0  0  0  0  0  0
    7.3488    2.2283  -23.3265 F   0  0  0  0  0  0  0  0  0  0  0  0
    6.3705   -1.9870  -22.0096 H   0  0  0  0  0  0  0  0  0  0  0  0
    7.6074   -0.3519  -23.4159 H   0  0  0  0  0  0  0  0  0  0  0  0
    2.9830   -5.7684  -16.8062 H   0  0  0  0  0  0  0  0  0  0  0  0
    4.6296   -4.9976  -18.5210 H   0  0  0  0  0  0  0  0  0  0  0  0
    4.1290    1.2261  -20.2467 H   0  0  0  0  0  0  0  0  0  0  0  0
    1.0124   -1.9530  -17.1067 H   0  0  0  0  0  0  0  0  0  0  0  0
    8.4836    7.1391  -19.4926 H   0  0  0  0  0  0  0  0  0  0  0  0
    7.0591    6.9760  -18.4105 H   0  0  0  0  0  0  0  0  0  0  0  0
    5.8327    6.5901  -20.5507 H   0  0  0  0  0  0  0  0  0  0  0  0
    7.3105    5.9867  -21.3745 H   0  0  0  0  0  0  0  0  0  0  0  0
    8.8734    4.6667  -19.5164 H   0  0  0  0  0  0  0  0  0  0  0  0
    8.0436    4.7290  -17.9245 H   0  0  0  0  0  0  0  0  0  0  0  0
    6.9788    2.6178  -19.9393 H   0  0  0  0  0  0  0  0  0  0  0  0
    7.6043    3.6632  -21.2594 H   0  0  0  0  0  0  0  0  0  0  0  0
    5.2503    5.2710  -22.2457 H   0  0  0  0  0  0  0  0  0  0  0  0
    6.2008    4.1065  -23.2291 H   0  0  0  0  0  0  0  0  0  0  0  0
    4.4135    3.9532  -23.1342 H   0  0  0  0  0  0  0  0  0  0  0  0
    3.3647    3.3766  -20.8283 H   0  0  0  0  0  0  0  0  0  0  0  0
    3.2911    4.3642  -17.4917 H   0  0  0  0  0  0  0  0  0  0  0  0
    2.3942    3.6146  -18.7699 H   0  0  0  0  0  0  0  0  0  0  0  0
    3.6085   -0.8234  -19.8074 H   0  0  0  0  0  0  0  0  0  0  0  0
  1  2  2  0
  1  8  1  0
  2 10  1  0
  3  4  2  0
  3  9  1  0
  4 11  1  0
  5  7  1  0
  5  8  2  0
  6  9  2  0
  6 21  1  0
  7 10  2  0
  7 18  1  0
  8 24  1  0
  9 27  1  0
 10 28  1  0
 11 13  1  0
 11 21  2  0
 12 22  2  0
 12 23  1  0
 12 26  1  0
 13 24  1  0
 13 25  2  0
 14 15  1  0
 14 16  1  0
 15 19  1  0
 16 19  1  0
 17 18  1  0
 17 19  1  0
 18 20  1  6
 18 22  1  0
 19 26  1  0
  1 29  1  0
  2 30  1  0
  3 31  1  0
  4 32  1  0
  5 33  1  0
  6 34  1  0
 14 35  1  0
 14 36  1  0
 15 37  1  0
 15 38  1  0
 16 39  1  0
 16 40  1  0
 17 41  1  0
 17 42  1  0
 20 43  1  0
 20 44  1  0
 20 45  1  0
 22 46  1  0
 23 47  1  0
 23 48  1  0
 24 49  1  0
M  CHG  1  22   1
M  END
>  <OMEGA_C>  (3) 
/h3FQNBPbr/kaq/Bc2nbQACUubuhxLXBYOY5QJIDmcCn54nBahB1QPcji8DylpHBxYicQOynYz8y
d6fBqHzmP9j3J8DfTovBiVmyQIEi6j9Cx63BtM+lQO7i776PKajBdPPvP7I9esAjx4bBqZ7SQOxD
rz9Q7bTBTLRsQJYuQ8Bd6ZXBOq+LQAAXgkAW85nBi12UQG7FI8DdDp7B3xf0QHwR0EAEy5nBstjY
QKRVwUC0UKPBQWP/QIzIoECu25fBic/YQPx7YEAHbaTB8veuQPIDU0BIt6rBI8fUQDKWlkC8T53B
0lGqQOEwh0CBnrTBoLksQCrsDcAnq5LBscqIQJTJZEDvtqPBSr5PQM9NgECqZ5PBwMKNQBM4ob+i
ZaHBryeyQE4MUMCEPKHBKuGwQKLBk0Dy5pXB98J0P120icBpCH/BaSnrQMqbDkCTnLrBbtvLQIpU
/r+7E7DBx2/zQHkqtL7DU7vBi+k+QBSXuMAHc4bBrSWUQE/sn8DvKpTBAyGEQBPynD9D+aHBBJeB
P3n7+b+U2ojBwLwHQZhz5EDq8JvBOOThQDk730DISJPBZqW6QAji0kDnZ6TB0O/pQMqSv0Du/qrB
kPkNQalVlUClIZzBdrIAQV1Ul0B0ZY/BUFLfQJ6JJ0DDg5/BR1bzQEtyakAtE6rBZgKoQFmsqEBE
97HBo2zGQMVog0Ae1bnBvDuNQLQAfUDtErnBv1ZXQAwaWEBboKbBsqFSQGOni0AL74vBnzoZQGVV
Z0CuKJbBZPFmQIDKUr+DdZ7BqrXFQNnmU791Ya7BdTndQEgcoj2XmbTBzHA8QD9dncAyhorBcPZz
QHtSjcC8X5LBY/qeQF0PhD+4ZabB1kLkP+g8MsBvzIrBcnC1QE1f+z8K3azB7timQE3Ksr4TDqfB
u9n1P6DOgsBFqIbBNJPVQB86uz/s3rPBGK9oQMrqRcBgKJbBBeKNQALJfkCPc5rByG+SQJjvIMBk
AJ7Bd9AFQdQdeUBkI5PBcFUAQSECokDCqZrBfQ/0QMQVP0AgJpvBWs/OQOXnjEA8r6nBx0upQMJX
XkDlj6zBGGvZQAKTh0Dz3Z3B0FeYQG6dekC3mLfBoh4oQHX7E8B3XJLBblGGQHaLbkDgoaTBDHFZ
QGCSdEAgMZPBfomNQC8Glb97haDBnjWwQAoyTMAdZqHBBAO1QAVbjUAUtZbBPgSKP64HkcBk+33B
whjtQHIIEkCdJbrBzCvLQLPX8b/qL6/BuXj1QM+1k741ArrBhPJDQJGJvcADg4fBC2yTQJ0TocB2
gZXBjzmHQOhXsj/z06DBpRl9P+StCcCB4IfB5QMXQdvYa0AESpLBnNX8QAfYfEC1KovBb3r5QCp0
wEDwoJbB7/MLQdifp0A+H6HBcvIDQTN0JkAhvKHByu/hQCcTCkAAi5fBHu7qQBx5hEAxiq7BksDF
QDFSrkAhRqvBcNSPQCRyn0B+VLfBtEOxQDFgcECTrb3Bu653QOu5VEC0p7nBSu5PQHr9bECYKKfB
Pu5iQK+ugECQcYvBcR8gQNdpYEB6tJXBQpZoQG7KNr/CLJ3B6srEQHL4cL9PYq/BmsbaQGDwdbwU
yLXBATTfPyuVL8DukYrBJrUpQMo0EMAqGJLBR9ibQDYqYD93d6fBNjk8QCNjm8ATHIvB4G6xQPuM
6D/A0a3B94KlQKG79r4oH6jBibPxP1sNgsDEDofBTK7RQMXPrT+m+7TB+DlsQIwjRsC/+JXBQPKL
QJapg0DHDZrBG3iUQPv4JMBE+J3B5Cr2QOXqz0AqtJrB6dnZQEHrwED3/qPBLi0AQYGZoEAqepjB
1krYQP6dX0CbnqTBNyeuQB1XUkBNx6rBuzrVQLHSlkBru53BJAapQCushkBQtLTBBDV0QCrai8A7
Z5LBw32IQIe5ZED3o6PBgpdQQJyDg0DecJPBrdqNQKl7o78SUaHB14uyQCPUUMBEE6HBcZGxQHRT
lUD+OZbBno6CP95GksCdtX/BBgrqQLvlDUCCtrrBi8HLQLiD/7+PA7DB9M7yQHa/t74OWbvBDvRy
P6eTB8CiiIfB0zEkQPp5nr9Q9pTBd1uDQADOmj9O/KHBX0ZDQG7qu8DNU4jBLvYIQd5M40BCHZ3B
m9rkQEVK4EAPOpTB2Py7QKUS00DQC6XB4UrqQBYLvkBnvqvBljQOQYH5k0CPwJzB9EUBQfkJmECE
9Y/BCH7eQEJmJ0DtjZ/BVbHyQOOUZ0C1WqrBrc2mQJgzqEBWFbLBjeTEQL3RgkA3/rnBpL6LQOa/
e0DbELnBTH9WQO/nVUA1T6bB70hUQCf9j0CaFozBdIAZQGHdbUDNBpbBeVJnQE+CV7+QUZ7B/x3H
QArrWr8sFK7BsM/dQPA2fj1cYrTB4BDaP45wNsBRiorB7/QjQEAHFsChY5LBIzCfQOOpfD+rK6bB
Qdo9QNKKncA9JovBKey0QIi79j+csqzB1P2nQAKlx768yqbB+hb1P9HuhMAJ0IbBSTXVQLJmuD+X
ubPB+ctnQHiYScAEWJbBFliNQIhUgECmaZrBppeSQBrtJMABFZ7BeUIGQcJdfkCs55PBDGL/QOnu
o0A/b5vBulb1QOYZQkCEupvBKpHMQNWhjEBjBqrBBJ2nQHdkW0AMhqzBGc/YQCPxh0AITJ7BjjiV
QBbcdEC5g7fBA75yQFt8jcAQv5LBxT+FQDBha0AUbKTB97tXQMR1f0ApI5PBlSyPQP8sm78gQaDB
Tz+vQIPeUcBnvKHB3jW1QBvzjEAD2JbBTPmOP70ylcA1Mn7BpAbsQLQrEUDuFbrBqGzNQA7l9L9H
y67Bqy32QNZalr5pz7nBPkRlP9D2D8DWa4fBYtEaQIf7q78Wb5XB2UyHQP4Wqz+mlqDBWG1HQHvj
vcAnWojBopwXQUzTc0DtP5PBQmv+QLy4gEDd2YvBsYf3QMNBwkCPa5fBetYKQQwiqkDuEKLBHnoE
QXvfKkAYb6LB3bTkQPLIC0DZ+pfBEkfoQCTihEAPGK/BH1DCQKK2rUC+mKvBn9eLQExanECKX7fB
Y6mtQDncakAOub3ByRByQEgrTUAfS7nBPW5NQNenZUDjtKbBLuVhQGJLiEDZiIvBxkYdQBp3bUD7
fZXBbhluQHDgP78PhpzBH6HBQLqsd78Awq3BMsHXQLxDxr3xo7TBP2hQQFB2mMAPE4bB8ZCHQIJd
gMABbovBvpaaQFprbj8jXabBtJnIPzHPZcDxZ5DB+bexQAOW6j/i8KzBDv6iQAZw5b52mqbBwbDz
P3GtkcA7oojBJiLQQAZ4pT9zRbTBFGt1QIn1Q8DRNZPB6VyPQK9ShkDLXprBpnaaQCIbEcAZPpnB
eAIEQZIYYUBXCJHB8FwDQfmAlEDaf5nB8W3sQKwtLEC43JjBZCDTQCuihEClIanBu5qpQI84V0CQ
GKzB5FfbQNCOgUCP/5zBirWXQDKdeEAi5bbBYighQLq7N8BafJXBocqHQBAMa0Do4qPBi9VZQO3V
jUCGo5PBSMCKQGzuor/kAaDB6APBQNNoG8Aq1JfBlZC3QA69kUDszJbBEpluP2VwqMCxtoPBxm3m
QLl5BUDoDLvBpRLIQBnPAcCv863BFsDuQO9B/b4OQLrBM2FiQMPDr8A7GoDB5w+pQOTyhMAio4nB
uBmCQLTspz/yFKHB0yUHP8E1W8DvWJLB9QIUQaulRkAGdI/BAVb4QJzOcEAsZ4nB14wCQYwitUB3
OZbB4hAQQRLfkkCek5/ByJ7+QE6yBkAOw57BkUvUQOn+AkCyDJXBu3HuQN+VbUBmeK3BOF7PQGpv
pkByZqvBB+6RQE70nkAgU7bBegevQIHua0AWS73B8vRyQDWpV0D7ubjBdMxSQArXXUDaxKXBWlJj
QFofm0BQdYzB96YeQND3hUCs9pXB7RJWQH/3kb9XIKDB

>  <OMEGA_E>  (3) 
GL/GPkCpzz522AY/cFwJP1yTMz8=

>  <OMEGA_NBR>  (3) 
     71635

$$$$
450355
     RDKit          3D

 53 56  0  0  1  0  0  0  0  0999 V2000
    6.1151   -0.8959  -21.9102 C   0  0  0  0  0  0  0  0  0  0  0  0
    6.8393    0.0126  -22.6967 C   0  0  0  0  0  0  0  0  0  0  0  0
    2.8909   -4.9049  -17.3668 C   0  0  0  0  0  0  0  0  0  0  0  0
    3.7637   -4.4277  -18.3535 C   0  0  0  0  0  0  0  0  0  0  0  0
    4.9081    0.9505  -20.8904 C   0  0  0  0  0  0  0  0  0  0  0  0
    1.8728   -2.7001  -17.2920 C   0  0  0  0  0  0  0  0  0  0  0  0
    5.6097    1.8736  -21.6894 C   0  0  0  0  0  0  0  0  0  0  0  0
    5.1607   -0.4176  -20.9829 C   0  0  0  0  0  0  0  0  0  0  0  0
    1.9355   -4.0281  -16.8286 C   0  0  0  0  0  0  0  0  0  0  0  0
    6.6090    1.3919  -22.5788 C   0  0  0  0  0  0  0  0  0  0  0  0
    3.6614   -3.0810  -18.7721 C   0  0  0  0  0  0  0  0  0  0  0  0
    4.3709    4.0084  -19.2454 C   0  0  0  0  0  0  0  0  0  0  0  0
    4.5866   -2.5393  -19.7775 C   0  0  0  0  0  0  0  0  0  0  0  0
    7.9511    4.5613  -18.5857 C   0  0  0  0  0  0  0  0  0  0  0  0
    6.5993    6.0275  -20.1725 C   0  0  0  0  0  0  0  0  0  0  0  0
    6.8347    3.5472  -20.5152 C   0  0  0  0  0  0  0  0  0  0  0  0
    7.9759    5.7458  -17.6186 C   0  0  0  0  0  0  0  0  0  0  0  0
    6.7312    7.1508  -19.1477 C   0  0  0  0  0  0  0  0  0  0  0  0
    5.5359    3.3507  -21.3352 C   0  0  1  0  0  0  0  0  0  0  0  0
    6.6943    4.6392  -19.4779 C   0  0  0  0  0  0  0  0  0  0  0  0
    5.4578    4.2378  -22.6140 C   0  0  0  0  0  0  0  0  0  0  0  0
    2.7219   -2.2512  -18.2412 N   0  0  0  0  0  0  0  0  0  0  0  0
    4.3173    3.6638  -20.5146 N   0  0  0  0  0  0  0  0  0  0  0  0
    3.2074    3.9632  -18.4924 N   0  0  0  0  0  0  0  0  0  0  0  0
    4.4113   -1.2095  -20.1246 N   0  0  0  0  0  0  0  0  0  0  0  0
    5.5046   -3.2251  -20.2132 O   0  0  0  0  0  0  0  0  0  0  0  0
    5.5366    4.3955  -18.6239 O   0  0  0  0  0  0  0  0  0  0  0  0
    7.9362    6.9754  -18.3749 O   0  0  0  0  0  0  0  0  0  0  0  0
    1.0819   -4.4552  -15.8736 F   0  0  0  0  0  0  0  0  0  0  0  0
    7.4071    2.2352  -23.2748 F   0  0  0  0  0  0  0  0  0  0  0  0
    6.2861   -1.9573  -22.0128 H   0  0  0  0  0  0  0  0  0  0  0  0
    7.5774   -0.3512  -23.3961 H   0  0  0  0  0  0  0  0  0  0  0  0
    2.9518   -5.9281  -17.0266 H   0  0  0  0  0  0  0  0  0  0  0  0
    4.5057   -5.0806  -18.7891 H   0  0  0  0  0  0  0  0  0  0  0  0
    4.1629    1.3078  -20.1951 H   0  0  0  0  0  0  0  0  0  0  0  0
    1.1331   -2.0289  -16.8813 H   0  0  0  0  0  0  0  0  0  0  0  0
    8.8502    4.5881  -19.2187 H   0  0  0  0  0  0  0  0  0  0  0  0
    7.9341    3.6226  -18.0125 H   0  0  0  0  0  0  0  0  0  0  0  0
    5.6266    6.1125  -20.6790 H   0  0  0  0  0  0  0  0  0  0  0  0
    7.4075    6.1171  -20.9133 H   0  0  0  0  0  0  0  0  0  0  0  0
    7.0784    2.6033  -20.0055 H   0  0  0  0  0  0  0  0  0  0  0  0
    7.6510    3.8140  -21.2026 H   0  0  0  0  0  0  0  0  0  0  0  0
    7.1024    5.6952  -16.9520 H   0  0  0  0  0  0  0  0  0  0  0  0
    8.8973    5.7121  -17.0188 H   0  0  0  0  0  0  0  0  0  0  0  0
    6.7714    8.1178  -19.6706 H   0  0  0  0  0  0  0  0  0  0  0  0
    5.8612    7.1338  -18.4747 H   0  0  0  0  0  0  0  0  0  0  0  0
    5.4057    5.2974  -22.3233 H   0  0  0  0  0  0  0  0  0  0  0  0
    6.3528    4.0706  -23.2313 H   0  0  0  0  0  0  0  0  0  0  0  0
    4.5597    3.9713  -23.1906 H   0  0  0  0  0  0  0  0  0  0  0  0
    3.4210    3.6077  -20.9544 H   0  0  0  0  0  0  0  0  0  0  0  0
    3.2292    4.2083  -17.5231 H   0  0  0  0  0  0  0  0  0  0  0  0
    2.3465    3.6855  -18.9186 H   0  0  0  0  0  0  0  0  0  0  0  0
    3.6317   -0.7545  -19.6942 H   0  0  0  0  0  0  0  0  0  0  0  0
  1  2  2  0
  1  8  1  0
  2 10  1  0
  3  4  2  0
  3  9  1  0
  4 11  1  0
  5  7  1  0
  5  8  2  0
  6  9  2  0
  6 22  1  0
  7 10  2  0
  7 19  1  0
  8 25  1  0
  9 29  1  0
 10 30  1  0
 11 13  1  0
 11 22  2  0
 12 23  2  0
 12 24  1  0
 12 27  1  0
 13 25  1  0
 13 26  2  0
 14 17  1  0
 14 20  1  0
 15 18  1  0
 15 20  1  0
 16 19  1  0
 16 20  1  0
 17 28  1  0
 18 28  1  0
 19 21  1  6
 19 23  1  0
 20 27  1  0
  1 31  1  0
  2 32  1  0
  3 33  1  0
  4 34  1  0
  5 35  1  0
  6 36  1  0
 14 37  1  0
 14 38  1  0
 15 39  1  0
 15 40  1  0
 16 41  1  0
 16 42  1  0
 17 43  1  0
 17 44  1  0
 18 45  1  0
 18 46  1  0
 21 47  1  0
 21 48  1  0
 21 49  1  0
 23 50  1  0
 24 51  1  0
 24 52  1  0
 25 53  1  0
M  CHG  1  23   1
M  END
>  <OMEGA_C>  (4) 
H6/DQKJWZb8wSK/BVdvaQMDFTjzdkrXB6gM5QB31nMA074rBROFwQBKwjcAK1JLBew+dQOVVcz+D
H6fBS7nvPzHOLMALVorBVYKzQAzT7z/zg63BwSSlQNLQ1b723KfBFb73PxbmgMD+oIbBlHzTQEoq
sj9UobTBzlRqQHwvRcBSLZbBt96LQOBEgECK9pnB0sWSQBWEIsBrOJ7BNG/+QB72kUB2r5TBlS3T
QPXgwEA9YaHB+rXaQLgEY0AUH6TBfjr/QMbdt0D88ozBz2XXQJnT5ECNLpnBKiaxQLJxVkB6rqrB
8DfWQCd0lECm0pvBNKauQNWbh0CA6bTB+zIuQH0TEMAU7pHBcSeKQPZ7akDsHaTB5kVNQAKlfUBs
8JPBUSmNQPfRmr8z/6DBTSWwQMJnTsCPtKHB+iuxQMKnjECt/ZTBOPX9QNw230DR/5LBP3yKP+yQ
jsAk+n3BwAbtQL4ND0DDMrrBlCfJQKqI+r8wGrDBEXryQLnPs75OK7vBp+o8QCWzvcBtNojBhi6Q
QG+UosAFUJbBbTaFQGZkpz+Zj6HB3giRPy/aAcDPDIfBnZoNQQrSkkD5v5nBBOT9QF3YZ0CZGZDB
5Ay0QHSZw0CPbqXBXwrtQKq/w0BfTqfB3IHiQHScJkBHC6DB19T0QMEYdEDYnqnBfEbjQFU/tkDC
nYfBclsOQcfJtkB9JojBQK/YQH7iAUFTXZ3BR4+7QPNH5EBEzJPBmfusQBKEqUAKlrLBHErLQJFC
gkCr2bnBJ+mRQHoqfkBjhrnB3PBaQIvkZkCJoqfBrqtOQJCqhkBoL4zBeiwWQLXea0BXWZfB5W1o
QOsoQb/NjZ3BwozJQOEjV79ksa3BNJzgQBhaqT0J37PBEP41QIe4ncC8F4vB9N9wQD/pjcCVkpLB
KxyeQBu5eT9cr6bB78rgP5RvMMBTQYvBn060QHT29T/RA63BpnuoQLJ1xb405abBH+/pP5V8gsAX
ZIfBu5PWQBwYuj9Ji7PB7HBpQAAtRsCWIZbBBI+NQJ6lgkBx65rBYoWTQFvHIsAF4Z3BouHuQODZ
TkB8WpzBZpD1QEGtt0DwT5/Bwg7IQFumjkBGi6vBV2oCQabgW0CgkJHBb6QFQRcJukBSXJTBpN6k
QIaGWUDEE63BvgfXQAHdkEDi4p/BMaqPQB5Pa0C+97fBUNIpQB6NEsCZbJLBXfmDQFzdaEDYjqTB
UldfQDJEe0CqzpLB4lCPQDoUmb8RXqDBovevQEP9T8DYkaHBwR6zQL8FmEDUpJjB3X4QQVQ+kkDe
LJLBJMhtP/+okMAhJYDBngXuQExFEkDEuLnBUAjRQJZZ8r83Ia7Bs1f6QLGGhr4C77jBi5A6QM0/
vsAHO4jBtq+RQDQyosBRlpXBSnuEQJgJqD8WjqHBl1t4PxO8BsA5cIjBuJADQd1/PkBXZaLBN6zX
QOoyGkAorZvB0yfjQLwx1UDmp6DBLRgHQbV/tEDPjKXBsIPjQF5whkBdp7DBOGW7QIobrkBy563B
zIDsQGo2Z0BeXYvBGLcLQVJhIkBOho/BxlERQUBf1EAQV5TBt/7yQKrQv0BWKI7B+GyEQCn/lkBe
OLjBCRenQPDGYEAiZ77BFKZoQHrYP0C1ELnBgZJKQKv1XEDBRKbBzzFrQNdiiUDyg4vBAmgoQJ6I
XEChQJTBLclsQFqqPL+J8pzB1EzGQASgdL8mjq7BpwvdQCC1/rziwLTBpg84QAs0nsAd2IrBUvtz
QKbEjsCVOZLBabScQK6qWj/4uabBkd7eP8YPM8Bb0IvBgbmyQD8E5T8j/6zBpC+mQFtEAL9DeqfB
iYDpP7JJg8DKp4fBP2XTQBPiqj9qFrTB6hNrQKZUScBfKpbBFgWNQBCIiEC9HpvBQzSUQO7yJsBG
6J3Bp8j2QBJXukBcBaHB57exQN/qyECNpavBGAvRQCZXfkAKRanB3032QL3e6UA9R57B8ym2QGte
90DGNqjB7/2mQDCmUEAML6zBbmXJQF3NqUCz2qPBv/KTQPJNa0CWNbfBysMpQBT2FcCu4ZLBGemF
QAqqYUA5q6PBfjpfQI7GhkBt0JLBUPCMQODpp7/xL6HBDZWzQJKBUMC2rKDBLUiwQLkuo0A5JJrB
b6viQFaeAEFy56bBRpJjP+eBkcAevIDBc3zpQJh7C0CvfrrBj0PNQGmsAMA4Lq/B/RD2QK0Rvr5Z
DrrBlIA9QNI3vsBoqYfBeB6UQDvGosBH3ZTBRymEQM4lmD+JQ6HBc21vPxOmCcCJTonBywUGQbMv
tUA36qfBV3YBQcdVqEBdGJrBYoyPQOx9wEAE0avB41m/QG0/xUA2tbPBRnjjQHIZVUA406PBBobj
QHeYhECxorDBFezjQGnt7kB74ZbBRqcLQXM29UB8IJ3B0UCoQDMqBkF+Xq7BZlClQMRQ/EBZlqDB
qfSKQDusl0Ak/bbBVv6rQPEMYUDNgb3BIuVuQBVSREB867jBONVRQGaFR0BJjaTBMRFoQMSOmEBl
QYzBeAEsQMl0Z0ARY5PB4hpjQJc+Z78cpp7BADzEQIgbab+VAq/BzgbbQAAicrpfXbXB8GXlP+yu
NcDF34nBCxsoQGiqFMAE2JHB1iWdQOjYbj8066bBDDpEQNbvnMBoxYrBrkazQCzL7T/DYK3BKp2l
QJMt375fm6fB7D8BQDamhMBDQ4bBYEXTQGI3sD8pfrTBjylrQHQoSMCSCJbBSMKLQKaXgUAA/5nB
UtCSQM6zJMCcIZ7B9pr+QCyfkkAw6ZTBHHnTQDZZwUBHqqHBDGbaQMGWY0CfN6TBeuz/QG3MuEB7
Q43BQC3YQLOX5UAnjZnBKKCwQNDCVUBApqrB4j3WQFQhlUC5AZzBxmatQIHXhkBQ8LTBp213QJGn
jMCIfJLByNeJQJvfaUDpBqTBgu5MQPvEgUB9/JPBXASOQPawnb8IsaDBiiSvQPi1UcAN7KHBJEKx
QIf5jUD4HJXBHNT+QHzt30CAZpPBlGKeP3d4lcBwD33BvJLsQBkWDkAMH7rBWA/KQJNF/L8vxa/B
0q3yQNikub7p9brB2Jt9PyKYD8Dmk4bBpXQeQCzcqL8VzJTBEUiFQOPYpD8XWqHBgdxOQFo9vcCg
AIjBgaINQbsMk0ByBJrBwOv9QGeIaUCbQJDBmEm0QLIvxEAnr6XB0zztQF3Ew0BtoafB+4jiQNat
J0BCEaDBazf0QFNadEDh0anBKRnkQO2ct0DN4YfBKMMOQcOkt0CngojBPZ/ZQFguAkFkz53B53K8
QB565UBjIZTBNIurQHXSqECRsLLBYNvJQA2NgUBx8rnBBYeQQA/Ge0BVcrnBZwpaQAm3Y0CGaqfB
KYhOQCq9ikBBT4zBDIoVQPvacUAjVJfBALdrQAKPRL9n/JzBfLPIQDIVW7/loK3BpnHfQPjDhD0v
47PBoMbVPzA3OMDs04rB9uUiQIjkFsDMfpLBGGedQMavdj+0k6bBUpQ6QNG7nsBirovBOGuzQLFU
9D+c/qzBVNqnQEyEzb6GyKbBiqPuPxc0hsD3T4fBuFHVQFGstz8Vm7PB2blmQBJmSsBXeJbBnHCN
QP/Og0Cr+ZrBbMWSQLAiJcBt953BTHTtQOwkTUBaRJzBxNP2QMOLtkDrdp/BRivIQMMrjkBQmKvB
8P8BQcibWUAyj5HBVoIGQV9tuEAgkJTB4HmkQLRBWUCxD63BhBPXQF2lkEBl8Z/BuDOPQMS3a0Bl
7rfBNYRwQK8+jsAQGJPBoMmDQFJXaUDJhaTBc2VfQCSGfkBV0ZLB7NeOQAyVnL//TaDB8l6wQLI5
UcAHS6HBaCKzQA84mUAy0ZjBjbgQQSn5j0BZX5LByYGGP5XulsDKiX/BjjfsQHSmEEBc9bnBW0fQ
QF1B9L+zCq7B+wr5QCNWkL5//LjBWK9cP13cEcCKr4fBtp4aQESMrL/lYZXB//KDQH60pj8eZqHB
oD9DQO1fv8CjDonBpZUCQX0nOkBHUqLBdEPVQNFuGkC2cJvBkUblQOeW1EDOy6DBs48HQXCIskC0
wKXBsIzjQHhkhUDSq7DBOPG7QK+yrUAMCq7BUCTsQAJxZ0AGU4vBZMsKQSj8HkDwdY/BrZ8SQaz1
0UAyopTB1Cr1QEYpv0BZUI7BsF+EQPNWl0CwKLjBJHWmQPiwYEBNZL7BPydnQHbzQECgArnBFD5K
QKF4XEBgJabBdJBrQJ5bi0CxkYvBn1coQLrGX0BWL5TB6EZsQP0yRL8fxZzBEkm6QDFvaL/8drHB
O1rQQBTfozyg2LfB0spnQP2Wl8BcaojBmQWOQBU1b8D74YzBD82gQKV8aD+DNKbBWL/XP9DYW8Bc
3o3BE0i3QHUC7z9LcazBbqSjQE4k8L61aqjB3GkOQLqQksBk54jBn83PQMZPsj+qTLXBnDN1QKyR
J8B605HBIwKLQDEGg0Bcc5nBDciUQA2lzL9pJpfB2pTSQBoiBEBZl5LBwg76QK+hiEDbcY/BW3Dd
QGrRcEB6LKLBPXXjQEkW6j9jL4fB8VMPQdvZUUACBI3BwwK2QGDYV0DZNanBz2TVQJrNZEDb5ZXB
xp20QEmtiUACOLPBkNkeQLlQH8BZQ5LByEeNQN3YakANaaPBEFxGQOPzjUCSa5XBsxuOQIpQs785
F6LBKXyxQPNbhL8zM5LBuvGtQNW2h0BhzpLBjiwIQZiCC0CnQ4bBRMGzP5eJsMClrYTBa9vmQCVl
DkCclbvBv7q6QA2C+r8eg7PBkOfhQEi2pL7OxL7BF92BQMx0s8Akr4TBi3KwQGWrdMDCi4zBOh+N
QPkrnz/+oJ/BUgodP1jaU8CuK47BtLzlQBjguz/zOJjB7vOwQI8g3z8U+pLBiQTtQF3MlECd24fB
pGUDQTt2o0AJK5TBrrj4QBuCSECAhqTBFzTlQI02mkCqrKPB493QQGJ6HECvkYHBsXvfQFofRD9M
JIXBKF0VQTudN0CBmpTBukgcQVZEdECD5YjBFb+zQD5Nq0D3n7DB9kjRQGY2hECAI7jBcdWXQE2A
gkDU9LfBkJxjQOhOYkDWXqfBaPhAQNbRmEAD7Y3BUEESQDj5ikBrAZrBBUJwQK6U/L9+rKXB

>  <OMEGA_E>  (4) 
FLz5PswfCz+MjhU/iGAcPxqKKT/Q8Eo/

>  <OMEGA_NBR>  (4) 
     79220

$$$$
450368
     RDKit          3D

 55 58  0  0  1  0  0  0  0  0999 V2000
    6.1012   -0.9357  -21.9308 C   0  0  0  0  0  0  0  0  0  0  0  0
    6.8091   -0.0286  -22.7305 C   0  0  0  0  0  0  0  0  0  0  0  0
    2.8772   -4.8789  -17.3452 C   0  0  0  0  0  0  0  0  0  0  0  0
    3.7808   -4.4136  -18.3090 C   0  0  0  0  0  0  0  0  0  0  0  0
    4.9434    0.9128  -20.8541 C   0  0  0  0  0  0  0  0  0  0  0  0
    1.8364   -2.6829  -17.3498 C   0  0  0  0  0  0  0  0  0  0  0  0
    5.6205    1.8332  -21.6679 C   0  0  0  0  0  0  0  0  0  0  0  0
    5.1753   -0.4532  -20.9787 C   0  0  0  0  0  0  0  0  0  0  0  0
    1.8924   -4.0018  -16.8622 C   0  0  0  0  0  0  0  0  0  0  0  0
    6.5819    1.3498  -22.6039 C   0  0  0  0  0  0  0  0  0  0  0  0
    3.6749   -3.0801  -18.7619 C   0  0  0  0  0  0  0  0  0  0  0  0
    4.3571    4.0157  -19.2208 C   0  0  0  0  0  0  0  0  0  0  0  0
    4.6059   -2.5577  -19.7672 C   0  0  0  0  0  0  0  0  0  0  0  0
    8.1193    7.6422  -19.9130 C   0  0  0  0  0  0  0  0  0  0  0  0
    6.6220    7.5083  -20.2032 C   0  0  0  0  0  0  0  0  0  0  0  0
    8.5703    6.5482  -18.9298 C   0  0  0  0  0  0  0  0  0  0  0  0
    6.3270    6.1527  -20.8234 C   0  0  0  0  0  0  0  0  0  0  0  0
    8.3353    5.1629  -19.5317 C   0  0  0  0  0  0  0  0  0  0  0  0
    6.8434    3.6915  -20.7829 C   0  0  0  0  0  0  0  0  0  0  0  0
    5.4628    3.3221  -21.3918 C   0  0  1  0  0  0  0  0  0  0  0  0
    6.8645    4.9657  -19.9720 C   0  0  0  0  0  0  0  0  0  0  0  0
    5.1487    4.0398  -22.7435 C   0  0  0  0  0  0  0  0  0  0  0  0
    2.7136   -2.2463  -18.2769 N   0  0  0  0  0  0  0  0  0  0  0  0
    4.2910    3.6012  -20.4714 N   0  0  0  0  0  0  0  0  0  0  0  0
    3.2014    4.0009  -18.4560 N   0  0  0  0  0  0  0  0  0  0  0  0
    4.4175   -1.2406  -20.1354 N   0  0  0  0  0  0  0  0  0  0  0  0
    5.5339   -3.2417  -20.1841 O   0  0  0  0  0  0  0  0  0  0  0  0
    1.0049   -4.4193  -15.9350 F   0  0  0  0  0  0  0  0  0  0  0  0
    7.3198    2.1845  -23.3731 F   0  0  0  0  0  0  0  0  0  0  0  0
    5.8184    4.6699  -18.5009 S   0  0  0  0  0  0  0  0  0  0  0  0
    6.2623   -1.9979  -22.0415 H   0  0  0  0  0  0  0  0  0  0  0  0
    7.5317   -0.3918  -23.4463 H   0  0  0  0  0  0  0  0  0  0  0  0
    2.9366   -5.8935  -16.9801 H   0  0  0  0  0  0  0  0  0  0  0  0
    4.5479   -5.0655  -18.7002 H   0  0  0  0  0  0  0  0  0  0  0  0
    4.2336    1.2690  -20.1221 H   0  0  0  0  0  0  0  0  0  0  0  0
    1.0791   -2.0097  -16.9759 H   0  0  0  0  0  0  0  0  0  0  0  0
    8.6820    7.5404  -20.8527 H   0  0  0  0  0  0  0  0  0  0  0  0
    8.3169    8.6305  -19.4725 H   0  0  0  0  0  0  0  0  0  0  0  0
    6.0593    7.6080  -19.2633 H   0  0  0  0  0  0  0  0  0  0  0  0
    6.3146    8.3015  -20.9006 H   0  0  0  0  0  0  0  0  0  0  0  0
    9.6418    6.6732  -18.7147 H   0  0  0  0  0  0  0  0  0  0  0  0
    7.9957    6.6403  -17.9963 H   0  0  0  0  0  0  0  0  0  0  0  0
    5.2374    6.0443  -20.9278 H   0  0  0  0  0  0  0  0  0  0  0  0
    6.7964    6.1121  -21.8174 H   0  0  0  0  0  0  0  0  0  0  0  0
    8.9882    5.0410  -20.4086 H   0  0  0  0  0  0  0  0  0  0  0  0
    8.5861    4.4011  -18.7790 H   0  0  0  0  0  0  0  0  0  0  0  0
    7.1595    2.8656  -20.1286 H   0  0  0  0  0  0  0  0  0  0  0  0
    7.5620    3.8008  -21.6086 H   0  0  0  0  0  0  0  0  0  0  0  0
    5.0306    5.1192  -22.5673 H   0  0  0  0  0  0  0  0  0  0  0  0
    5.9762    3.8720  -23.4486 H   0  0  0  0  0  0  0  0  0  0  0  0
    4.2182    3.6335  -23.1666 H   0  0  0  0  0  0  0  0  0  0  0  0
    3.3768    3.4568  -20.8501 H   0  0  0  0  0  0  0  0  0  0  0  0
    3.2157    4.3567  -17.5215 H   0  0  0  0  0  0  0  0  0  0  0  0
    2.3533    3.6345  -18.8386 H   0  0  0  0  0  0  0  0  0  0  0  0
    3.6182   -0.7933  -19.7341 H   0  0  0  0  0  0  0  0  0  0  0  0
  1  2  2  0
  1  8  1  0
  2 10  1  0
  3  4  2  0
  3  9  1  0
  4 11  1  0
  5  7  1  0
  5  8  2  0
  6  9  2  0
  6 23  1  0
  7 10  2  0
  7 20  1  0
  8 26  1  0
  9 28  1  0
 10 29  1  0
 11 13  1  0
 11 23  2  0
 12 24  2  0
 12 25  1  0
 12 30  1  0
 13 26  1  0
 13 27  2  0
 14 15  1  0
 14 16  1  0
 15 17  1  0
 16 18  1  0
 17 21  1  0
 18 21  1  0
 19 20  1  0
 19 21  1  0
 20 22  1  6
 20 24  1  0
 21 30  1  0
  1 31  1  0
  2 32  1  0
  3 33  1  0
  4 34  1  0
  5 35  1  0
  6 36  1  0
 14 37  1  0
 14 38  1  0
 15 39  1  0
 15 40  1  0
 16 41  1  0
 16 42  1  0
 17 43  1  0
 17 44  1  0
 18 45  1  0
 18 46  1  0
 19 47  1  0
 19 48  1  0
 22 49  1  0
 22 50  1  0
 22 51  1  0
 24 52  1  0
 25 53  1  0
 25 54  1  0
 26 55  1  0
M  CHG  1  24   1
M  END
>  <OMEGA_C>  (5) 
uDzDQJKLb78vcq/BXeTZQECE6rwP2LXBrSM4QI0fnMDnworBGPlxQG48jcDAeJLBBTCeQB6vaT8k
1abBxQ3rP+e0K8BgzIrBC9uzQDOn6j/rV63B0ZulQEkG6L5W1KfBUDryP4cOgMDe5YbB7p7SQL/G
rD/E1LTBWDFrQJcfRcByGJbBc22LQMuAgEAdxJnBUWOTQIixI8AoI57BjegBQc2M9EDrTZ/BeOfT
QMhD8EA9oKHBzB8JQSeL0UA3cJfBA3fKQIPixEBplqbBMF0FQZ02pUD9QJzBJv3aQANBbEBnQ6bB
ps+uQOmcVEBaIqvB3KnbQLTmnkC2xp/BasKkQGZGgUCf8rXBxqstQOvCD8ATN5LBz0+JQLN6ZkBx
xaPBi+RMQMQHgEDopZPB/VuNQFfNnr9LFaHB+xWxQPF3T8AMeaHBKqKAP6NqjcC69X7B0zvqQEbP
C0Aq/LrBmDC6QPVvlUDVAZTBA2XIQF26/7/wVLDBrwPxQA+YyL4RkrvBBPI7QNGXvMA214fBDoiR
QL8YosAXmpXBpHmHQGxtoj8I+qDBqiCKP4CfAMCTzofBTukKQThL8UBr0qbBNhIFQa8WCkGpx5vB
GubBQCN180BIG5rBhBHKQBrTBEFaNKfBqEQaQQGL1UCvt5XB0Nz/QHV91EBt+I/BdJinQB1rwUAh
bKfBFHzZQFqWw0Ajiq7Bgc8PQYlPoUC+RKPB0GAJQaDVjEBTO5bBrhrlQItmN0BzB6HBuvvxQAxA
c0BV3qzBqvqgQHTQo0DJibTByTy/QBzOd0ColrvBw/uGQMuLaEBLVbnBbh1YQDQ8XUDwzKbBp81N
QEtqi0AhLIzB7JwWQNKbaECOtZbBe5BnQD0YS79h353BjGXKQLmrXL8euK3BfijhQGDlWT03CLTB
FJAxQDwqnMBRH4vBtJtsQGJ4jcCKupLBdCGgQKu9eD9ahqbB+JHkP0pWKsC4+orB1Ku1QDiz9D/0
Cq3BTvupQJKqyb7IzKbBcW/nP7gvf8A+MofBjEvXQASqtj/uwbPBfntoQBrPRMCpLZbBTDOJQIcc
hkCWSpvBkVqTQDwyI8Bq+J3B/UcUQVedjED6KZPBzOMMQfGRuEANVpfBhTQBQRYkXUBUlpHBhwQB
QYf+s0CK/6HBjb7qQCKVUUDMIJzBZfLJQC/RjkBhV6zBqculQHBcWUBMH63Bw2ncQGRGlEBoGqHB
h92PQAKTaEAR/rfB0MArQKKtDsAdRpLB2U6DQLZDaEChuqTBtFlgQM4/c0CXrpLB4cyQQL6UmL9H
M6DBnYiuQJY4UsDp5aHBsJdoP8+ljMBdp3/Bmy3uQEw9D0CZOrrB65uxQF+Dq0DgHpnBOJvRQF1c
9b+KJa7Bq476QNNqmb6fKrnBkJwzQCncvMCNVYjBnFaOQObHosCn6pXBnliHQMGgqD8kLaHB4MeE
P4gr/b8d/4fBLWEfQS+kfED++5jBj4UcQbTukECjdovBRR8CQe48x0Bfa5HB7vUaQYYzzUBnfpjB
xfYGQd2THkCzwo7BLobsQHqxeEADnovBP5P1QIF800CDZaTB/UQMQVVXqEASG6jBmgMAQUTUMEAx
0aHBHzHOQJ8CKkAKtZrBbQ7kQAxHhUBwvbHB2Na8QPvIrUAm8a7BeSmEQPtxlUB+ZbjBiwGnQHd6
XUAWer7Bo4dpQOcyPECj3rjBuj1LQEcoVUBnhabBhQxrQF8LhkBxbovBxIwxQFJlSED3uJPBQCFy
QILfNb9Gd5zByvvBQEsDbb/QfK/BZFfYQFAYqrwn97XB5VDuPxlIM8DOTInBY/wqQLU6E8Dfe5HB
KiKeQO9Ibj8ZqabBWRJGQI9wnMBqh4rBpqKzQBY27T8HQq3BzDmlQJCD4r4grafBUi0FQFSQg8Dq
v4XBstPRQNIerj9U1rTB5wdsQOfcR8DF8ZXBSk2KQDrBgECdopnBLI2SQJMfJcCZPJ7BC0YJQSZc
5EDzEZjBhlLlQFIq6EBSz5zBa2MLQe3xu0DJHJHBWsvZQOKawEDRYaPBE4YGQaYClEBdxZfBhjDd
QMxGYEBxV6TBzACyQHaOVUBAX6rB4j7gQNx1lkBPAZ3BtDWuQH5jhkCmvbTBGM53QAScjMClc5LB
guaKQCg0akB/w6PB/axGQFa+gUAeWpTBXgaOQIQinr+Tr6DBwFiuQOKGUsBTM6LBwyapP2Tsk8AA
oXvBiGDqQOskDED9y7rBcvC3QKdGkECMeZLBS7jGQKaM/r+TdrDBErbuQDq5xr7227vBneSKP2VL
DMB3y4XB2aohQM6upb/gZpTBC9GHQAYwpT9luaDB8EVQQMTVvMB/zYfBBPYUQZ+54kATo57BJ5AM
QZ9ZAEHcHZPBqyDOQL+r60CyP5bBaO3jQCBHAkEfAKLBUswbQYHYuUCQ+Y3BjAcAQRHcvUBZaIrB
QAm4QCzowkC7zqXB0TTuQOu4v0BMjKrBMqkSQQ77kEA6GZ7BZSoHQQN7b0CliZLBImXiQKV1JkAK
fp/B+bz2QGPEZUAiW6rB/Q6tQF99qEAFlLLBHRvKQPV0gEAR5rnBzMqQQOxTe0CUDbnB/ipdQI28
ZUCwcqfBaOZDQP4Xi0CCtYzBDDURQLk2ckCRLpjBLchsQPsqRL/5z5zBLHLIQI9YYL9c9a3BVz3f
QEARDj1FS7TB3MbZP1aiMsBdaorBM0ElQAR1EsDNHpLBknufQOs5eD+3eqbB35w3QFlFncAjpYvB
Ph21QJgf9D/PCa3BY9CoQB4bzr5c2qbBPC/tP6bSg8D3E4fBpCfWQIrTtD9t4LPBuJdmQOL5R8CN
VZbBGASKQB+ehkCKQZvBgqCSQLpjJMAA/Z3BADsVQd5djUCzwpPBCHkNQchAuUBJzpfBUV8CQTWy
XUAUEZLB6jkBQTWbtEDPXaLBkEjsQLIWUkBaf5zB6wrKQC3djkCdgKzBecGlQFODWUAKIa3BpTfd
QMF0lECpV6HBe4CPQEKVaEBu+LfBatZtQH9ajcAOG5PBJLaDQDYzaUD2q6TBO4lfQFayd0Bxu5LB
U8OPQGKhmr9qQqDBfCGvQKwlUsCwjaHBViKEP88UlMCLCX/B9TjtQMwQDkABVrrBFw6zQE1Yq0DJ
FJnB0Q3PQKeS978jg67BUhf4QMlnpr5OkLnBxOBrP8LLCsCTHIfBnyQfQJ1cor9U25TBDx2HQH4Y
qT87CaHBeE0+QGcsvsAiI4nBfDUgQUzlfkCJsZnBObQdQYuwkUCpH4zBndoCQWaYx0DoxZHBBmUb
QfAvzkCmEZnBz2kIQfY+H0CvWY/BXCzvQM5ueEDy94vBN3z1QNsB1EBoq6TBblAMQeVOqUDplqjB
Op8AQbrlMUBxT6LBAATQQNX8KUAb9ZrBmM7jQDM2hUDO/bHBxdS8QFLSrUDrE6/Bxx2EQMONlUDi
Z7jBsVqmQGWrXED5fr7BW01oQCa1PEDev7jBX8VLQAmPVkA3ZabBbT5pQNsTiUC1jIvBnPQvQACz
TUDsw5PB9KxvQEdiO789jpzB

>  <OMEGA_E>  (5) 
OD7aPsTaAz+W2A4/GtYhPw==

>  <OMEGA_NBR>  (5) 
     83173

$$$$
450370
     RDKit          3D

 49 52  0  0  1  0  0  0  0  0999 V2000
    6.0803   -0.9502  -21.9891 C   0  0  0  0  0  0  0  0  0  0  0  0
    6.7661   -0.0310  -22.7964 C   0  0  0  0  0  0  0  0  0  0  0  0
    2.9669   -4.7943  -17.2135 C   0  0  0  0  0  0  0  0  0  0  0  0
    3.8671   -4.3582  -18.1954 C   0  0  0  0  0  0  0  0  0  0  0  0
    4.8856    0.8839  -20.9281 C   0  0  0  0  0  0  0  0  0  0  0  0
    1.8369   -2.6499  -17.3813 C   0  0  0  0  0  0  0  0  0  0  0  0
    5.5591    1.8215  -21.7276 C   0  0  0  0  0  0  0  0  0  0  0  0
    5.1417   -0.4792  -21.0463 C   0  0  0  0  0  0  0  0  0  0  0  0
    1.9350   -3.9310  -16.8089 C   0  0  0  0  0  0  0  0  0  0  0  0
    6.5191    1.3471  -22.6709 C   0  0  0  0  0  0  0  0  0  0  0  0
    3.7127   -3.0643  -18.7402 C   0  0  0  0  0  0  0  0  0  0  0  0
    4.3292    4.0220  -19.1820 C   0  0  0  0  0  0  0  0  0  0  0  0
    4.6284   -2.5676  -19.7744 C   0  0  0  0  0  0  0  0  0  0  0  0
    8.0784    6.4083  -19.5146 C   0  0  0  0  0  0  0  0  0  0  0  0
    8.4080    4.9202  -19.2985 C   0  0  0  0  0  0  0  0  0  0  0  0
    7.0228    5.9670  -20.5359 C   0  0  0  0  0  0  0  0  0  0  0  0
    6.8742    3.4241  -20.5878 C   0  0  0  0  0  0  0  0  0  0  0  0
    5.5096    3.2886  -21.3079 C   0  0  1  0  0  0  0  0  0  0  0  0
    6.9719    4.6520  -19.7473 C   0  0  0  0  0  0  0  0  0  0  0  0
    5.3489    4.2254  -22.5385 C   0  0  0  0  0  0  0  0  0  0  0  0
    2.7131   -2.2395  -18.3205 N   0  0  0  0  0  0  0  0  0  0  0  0
    4.3117    3.5772  -20.4245 N   0  0  0  0  0  0  0  0  0  0  0  0
    3.1299    4.0998  -18.4923 N   0  0  0  0  0  0  0  0  0  0  0  0
    4.4014   -1.2718  -20.1936 N   0  0  0  0  0  0  0  0  0  0  0  0
    5.5687   -3.2461  -20.1732 O   0  0  0  0  0  0  0  0  0  0  0  0
    1.0358   -4.3294  -15.8845 F   0  0  0  0  0  0  0  0  0  0  0  0
    7.2720    2.1909  -23.4137 F   0  0  0  0  0  0  0  0  0  0  0  0
    5.7780    4.5953  -18.3740 S   0  0  0  0  0  0  0  0  0  0  0  0
    6.2687   -2.0090  -22.0881 H   0  0  0  0  0  0  0  0  0  0  0  0
    7.4878   -0.3838  -23.5183 H   0  0  0  0  0  0  0  0  0  0  0  0
    3.0648   -5.7767  -16.7757 H   0  0  0  0  0  0  0  0  0  0  0  0
    4.6669   -5.0019  -18.5304 H   0  0  0  0  0  0  0  0  0  0  0  0
    4.1562    1.2263  -20.2091 H   0  0  0  0  0  0  0  0  0  0  0  0
    1.0475   -1.9847  -17.0638 H   0  0  0  0  0  0  0  0  0  0  0  0
    7.6726    6.9200  -18.6295 H   0  0  0  0  0  0  0  0  0  0  0  0
    8.9023    7.0027  -19.9362 H   0  0  0  0  0  0  0  0  0  0  0  0
    9.1861    4.5150  -19.9622 H   0  0  0  0  0  0  0  0  0  0  0  0
    8.6304    4.6393  -18.2585 H   0  0  0  0  0  0  0  0  0  0  0  0
    6.0915    6.5524  -20.5248 H   0  0  0  0  0  0  0  0  0  0  0  0
    7.3859    5.8754  -21.5702 H   0  0  0  0  0  0  0  0  0  0  0  0
    7.0183    2.5453  -19.9421 H   0  0  0  0  0  0  0  0  0  0  0  0
    7.6694    3.4554  -21.3472 H   0  0  0  0  0  0  0  0  0  0  0  0
    5.3168    5.2720  -22.2014 H   0  0  0  0  0  0  0  0  0  0  0  0
    6.2015    4.0856  -23.2194 H   0  0  0  0  0  0  0  0  0  0  0  0
    4.4148    3.9813  -23.0655 H   0  0  0  0  0  0  0  0  0  0  0  0
    3.4110    3.4127  -20.8266 H   0  0  0  0  0  0  0  0  0  0  0  0
    3.1098    4.4734  -17.5649 H   0  0  0  0  0  0  0  0  0  0  0  0
    2.2846    3.7823  -18.9219 H   0  0  0  0  0  0  0  0  0  0  0  0
    3.5768   -0.8437  -19.8237 H   0  0  0  0  0  0  0  0  0  0  0  0
  1  2  2  0
  1  8  1  0
  2 10  1  0
  3  4  2  0
  3  9  1  0
  4 11  1  0
  5  7  1  0
  5  8  2  0
  6  9  2  0
  6 21  1  0
  7 10  2  0
  7 18  1  0
  8 24  1  0
  9 26  1  0
 10 27  1  0
 11 13  1  0
 11 21  2  0
 12 22  2  0
 12 23  1  0
 12 28  1  0
 13 24  1  0
 13 25  2  0
 14 15  1  0
 14 16  1  0
 15 19  1  0
 16 19  1  0
 17 18  1  0
 17 19  1  0
 18 20  1  6
 18 22  1  0
 19 28  1  0
  1 29  1  0
  2 30  1  0
  3 31  1  0
  4 32  1  0
  5 33  1  0
  6 34  1  0
 14 35  1  0
 14 36  1  0
 15 37  1  0
 15 38  1  0
 16 39  1  0
 16 40  1  0
 17 41  1  0
 17 42  1  0
 20 43  1  0
 20 44  1  0
 20 45  1  0
 22 46  1  0
 23 47  1  0
 23 48  1  0
 24 49  1  0
M  CHG  1  22   1
M  END
>  <OMEGA_C>  (6) 
cpHCQFY/c7+u6a/Bz4PYQACP/bwbX7bBc+E9QDRrmcAztYnB7353QAt2i8A9kJHBBlecQPBGYj/J
bKfBex7rP1OXKcAADYvBgeSxQO4l6T8N0q3BNomkQPZd9b7DXqjBU6/3P3eVe8CieIbBJJzQQD9u
rD/7XbXBppxtQB0dRMD465XB9YiKQJK0gEDGdJnBLByUQFBTJMDkMZ7BIkEBQY4QzUDiHZzBMocG
QWBynUBjY5rBmbrgQKzxvkCESaTBjPnbQNEkW0DPs6TBmE6wQNt3UkCPdqrBLBrfQBLdlECB+p3B
cSqrQKA2h0DDTrTB6qItQJZUD8BfkJLBOfmJQEHwZEBRZaPB31BIQKIxg0Ap8JPBBdiMQF7Kor9p
jKHBdTKyQJ/AT8CgYqHB75SEP5SKisDDJn7B2bPoQHI4DEAwT7vBUuW4QAANk0Dd/ZLBNZnIQHGT
AMBttLDBsZvvQHN8xL6JJbzBUyVEQBjbuMCJNIbBnVeVQO0PoMBSPpTBef+EQPH4nD8mrKHBAhaG
PwgJ/r+QgojBGob1QAJx3UArCZXBAnAOQQwW4EBnfZ/BK/oSQSh7kECOsp/BShYKQWN1lEBxEZLB
ve3CQN2s0UCxMqTBjlnsQE0DvEC3j6zBkZXgQMLmIkBUiZ/BZmv1QNAkXUApx6rBaSOqQG+0qECM
nLHBanLGQDW9gkBCwbnBLkaNQNPMfkA5hrjBw01aQC9pWkDrnKbBRwdHQDImj0DohIzBTTYSQKMR
ckD5X5fBL+pkQGT6V78Al57B

>  <OMEGA_E>  (6) 
iFzBPg==

>  <OMEGA_NBR>  (6) 
     84294

$$$$
450310
     RDKit          3D

 49 52  0  0  1  0  0  0  0  0999 V2000
    6.0952   -0.9493  -21.9855 C   0  0  0  0  0  0  0  0  0  0  0  0
    6.7621   -0.0279  -22.8070 C   0  0  0  0  0  0  0  0  0  0  0  0
    1.7858   -2.6627  -17.2800 C   0  0  0  0  0  0  0  0  0  0  0  0
    2.6754   -2.2039  -18.2509 C   0  0  0  0  0  0  0  0  0  0  0  0
    4.9093    0.8845  -20.9120 C   0  0  0  0  0  0  0  0  0  0  0  0
    2.9490   -4.7941  -17.3391 C   0  0  0  0  0  0  0  0  0  0  0  0
    5.5608    1.8235  -21.7266 C   0  0  0  0  0  0  0  0  0  0  0  0
    5.1721   -0.4780  -21.0301 C   0  0  0  0  0  0  0  0  0  0  0  0
    6.5092    1.3503  -22.6823 C   0  0  0  0  0  0  0  0  0  0  0  0
    1.9251   -3.9744  -16.8172 C   0  0  0  0  0  0  0  0  0  0  0  0
    3.6927   -3.0688  -18.7443 C   0  0  0  0  0  0  0  0  0  0  0  0
    4.3270    4.0760  -19.2112 C   0  0  0  0  0  0  0  0  0  0  0  0
    4.6319   -2.5710  -19.7630 C   0  0  0  0  0  0  0  0  0  0  0  0
    8.1332    6.4681  -19.7060 C   0  0  0  0  0  0  0  0  0  0  0  0
    8.3983    4.9878  -19.3814 C   0  0  0  0  0  0  0  0  0  0  0  0
    7.0850    5.9969  -20.7210 C   0  0  0  0  0  0  0  0  0  0  0  0
    6.8489    3.4579  -20.6007 C   0  0  0  0  0  0  0  0  0  0  0  0
    5.4919    3.2961  -21.3228 C   0  0  1  0  0  0  0  0  0  0  0  0
    6.9621    4.7416  -19.8459 C   0  0  0  0  0  0  0  0  0  0  0  0
    5.3093    4.2161  -22.5625 C   0  0  0  0  0  0  0  0  0  0  0  0
    3.8076   -4.3387  -18.2821 N   0  0  0  0  0  0  0  0  0  0  0  0
    4.3009    3.5771  -20.4326 N   0  0  0  0  0  0  0  0  0  0  0  0
    3.1589    4.0518  -18.4659 N   0  0  0  0  0  0  0  0  0  0  0  0
    4.4409   -1.2658  -20.1698 N   0  0  0  0  0  0  0  0  0  0  0  0
    5.5575   -3.2677  -20.1650 O   0  0  0  0  0  0  0  0  0  0  0  0
    7.2423    2.1955  -23.4429 F   0  0  0  0  0  0  0  0  0  0  0  0
    5.7411    4.8364  -18.4934 S   0  0  0  0  0  0  0  0  0  0  0  0
    0.8386   -4.5732  -15.5975 Cl  0  0  0  0  0  0  0  0  0  0  0  0
    6.2869   -2.0076  -22.0840 H   0  0  0  0  0  0  0  0  0  0  0  0
    7.4740   -0.3789  -23.5394 H   0  0  0  0  0  0  0  0  0  0  0  0
    1.0079   -2.0201  -16.8949 H   0  0  0  0  0  0  0  0  0  0  0  0
    2.5929   -1.1951  -18.6276 H   0  0  0  0  0  0  0  0  0  0  0  0
    4.1913    1.2246  -20.1805 H   0  0  0  0  0  0  0  0  0  0  0  0
    3.0498   -5.8071  -16.9784 H   0  0  0  0  0  0  0  0  0  0  0  0
    7.7279    7.0547  -18.8685 H   0  0  0  0  0  0  0  0  0  0  0  0
    8.9894    7.0004  -20.1461 H   0  0  0  0  0  0  0  0  0  0  0  0
    9.1743    4.5088  -19.9966 H   0  0  0  0  0  0  0  0  0  0  0  0
    8.5869    4.7714  -18.3195 H   0  0  0  0  0  0  0  0  0  0  0  0
    6.1780    6.6170  -20.7742 H   0  0  0  0  0  0  0  0  0  0  0  0
    7.4682    5.8198  -21.7367 H   0  0  0  0  0  0  0  0  0  0  0  0
    6.9707    2.6242  -19.8936 H   0  0  0  0  0  0  0  0  0  0  0  0
    7.6516    3.4217  -21.3520 H   0  0  0  0  0  0  0  0  0  0  0  0
    5.2637    5.2659  -22.2372 H   0  0  0  0  0  0  0  0  0  0  0  0
    6.1593    4.0812  -23.2475 H   0  0  0  0  0  0  0  0  0  0  0  0
    4.3755    3.9520  -23.0805 H   0  0  0  0  0  0  0  0  0  0  0  0
    3.3998    3.3623  -20.8093 H   0  0  0  0  0  0  0  0  0  0  0  0
    3.1402    4.4582  -17.5524 H   0  0  0  0  0  0  0  0  0  0  0  0
    2.3348    3.6279  -18.8415 H   0  0  0  0  0  0  0  0  0  0  0  0
    3.6387   -0.8185  -19.7741 H   0  0  0  0  0  0  0  0  0  0  0  0
  1  2  2  0
  1  8  1  0
  2  9  1  0
  3  4  2  0
  3 10  1  0
  4 11  1  0
  5  7  1  0
  5  8  2  0
  6 10  2  0
  6 21  1  0
  7  9  2  0
  7 18  1  0
  8 24  1  0
  9 26  1  0
 10 28  1  0
 11 13  1  0
 11 21  2  0
 12 22  2  0
 12 23  1  0
 12 27  1  0
 13 24  1  0
 13 25  2  0
 14 15  1  0
 14 16  1  0
 15 19  1  0
 16 19  1  0
 17 18  1  0
 17 19  1  0
 18 20  1  6
 18 22  1  0
 19 27  1  0
  1 29  1  0
  2 30  1  0
  3 31  1  0
  4 32  1  0
  5 33  1  0
  6 34  1  0
 14 35  1  0
 14 36  1  0
 15 37  1  0
 15 38  1  0
 16 39  1  0
 16 40  1  0
 17 41  1  0
 17 42  1  0
 20 43  1  0
 20 44  1  0
 20 45  1  0
 22 46  1  0
 23 47  1  0
 23 48  1  0
 24 49  1  0
M  CHG  1  22   1
M  END
>  <OMEGA_C>  (7) 
7gvDQNADc79B4q/BgWPYQJi35LyodLbBk5TkP5lpKsBoPYrBXTorQHUMDcDrAZLBMhmdQJFtYj/O
S6fBa7w8QDdpmcCUtorBCfKxQCln6T/+z63B+IGlQEK49L6dPajBmEvQQCrXrD9EdbXBUWr2P39c
fsCRiYbBy1RsQGlnRMA+9JXB7naKQFxugkCCsJnBljiUQJWKJMC5Gp7BwiECQU/6zkD9pZ3BeF8G
Qcibn0AxDZvBbLjiQMvmv0CGxKXBbSrbQNtNXUBIzqTB5L2vQCPzUkAYlarBYMneQNC6l0B3xJ7B
Z+WpQETqhkAEgLTB4K9zQEbWisDNQZLBEaGJQJvvZEDxdaPB/ytKQA6ogUAaupPBlBuOQKsEor+r
W6HBU9exQL8hUcACUqHB/cDnQEeDDEAJi7vB/ra3QIjDmkCA8pPBZrBWP+pXksCBj3nBNS7JQMF7
AMALrLDBxSrvQDz+wb7FULzB8QGBP0dJAcCsKIfBZ/ElQNb3mL9IBZXBHR+GQMbAnD+icaHBfzBD
QGfTucDE04fB6kr3QBXA4UCe8pbBZdQPQU4D4EBJK6HB0MkSQSBIkEAh+Z/BzWMJQTWvmEBtjpLB
SLLFQJm+00CYMabBz/vuQKk7ukDK5K3Byg/fQDDyJ0AAJp/BK9r0QI/8WkDR0KrBAnCoQDSCqEC2
5bHBJBnFQGKZgkDb+rnB6AOMQPbtfEDjpLjBwJZZQKcwV0B1eabBmfhIQKOpjkBKa4zBn20VQMAu
aEB4u5bBDOFoQFCJUb9gMZ7B

>  <OMEGA_E>  (7) 
PHQEPw==

>  <OMEGA_NBR>  (7) 
     85416

$$$$
450372
     RDKit          3D

 47 50  0  0  1  0  0  0  0  0999 V2000
    6.0712   -0.9296  -21.9993 C   0  0  0  0  0  0  0  0  0  0  0  0
    6.7595   -0.0148  -22.8121 C   0  0  0  0  0  0  0  0  0  0  0  0
    2.9570   -4.7760  -17.2138 C   0  0  0  0  0  0  0  0  0  0  0  0
    3.8587   -4.3339  -18.1919 C   0  0  0  0  0  0  0  0  0  0  0  0
    4.9071    0.9155  -20.9267 C   0  0  0  0  0  0  0  0  0  0  0  0
    1.8327   -2.6277  -17.3656 C   0  0  0  0  0  0  0  0  0  0  0  0
    5.5836    1.8499  -21.7309 C   0  0  0  0  0  0  0  0  0  0  0  0
    5.1479   -0.4510  -21.0447 C   0  0  0  0  0  0  0  0  0  0  0  0
    1.9281   -3.9131  -16.8016 C   0  0  0  0  0  0  0  0  0  0  0  0
    6.5313    1.3675  -22.6803 C   0  0  0  0  0  0  0  0  0  0  0  0
    3.7079   -3.0355  -18.7285 C   0  0  0  0  0  0  0  0  0  0  0  0
    4.3280    3.9848  -19.1853 C   0  0  0  0  0  0  0  0  0  0  0  0
    4.6221   -2.5384  -19.7667 C   0  0  0  0  0  0  0  0  0  0  0  0
    6.9028    3.4831  -20.6004 C   0  0  0  0  0  0  0  0  0  0  0  0
    7.1171    6.0634  -20.4136 C   0  0  0  0  0  0  0  0  0  0  0  0
    8.4020    4.9604  -19.1871 C   0  0  0  0  0  0  0  0  0  0  0  0
    5.5380    3.3224  -21.3167 C   0  0  1  0  0  0  0  0  0  0  0  0
    6.9542    4.6754  -19.6991 C   0  0  0  0  0  0  0  0  0  0  0  0
    5.3736    4.2670  -22.5373 C   0  0  0  0  0  0  0  0  0  0  0  0
    2.7101   -2.2118  -18.3025 N   0  0  0  0  0  0  0  0  0  0  0  0
    4.3297    3.6035  -20.4474 N   0  0  0  0  0  0  0  0  0  0  0  0
    3.1265    3.9749  -18.4957 N   0  0  0  0  0  0  0  0  0  0  0  0
    4.4094   -1.2364  -20.1786 N   0  0  0  0  0  0  0  0  0  0  0  0
    5.5449   -3.2289  -20.1847 O   0  0  0  0  0  0  0  0  0  0  0  0
    8.4011    6.1708  -19.8814 O   0  0  0  0  0  0  0  0  0  0  0  0
    1.0339   -4.3134  -15.8727 F   0  0  0  0  0  0  0  0  0  0  0  0
    7.2834    2.2071  -23.4282 F   0  0  0  0  0  0  0  0  0  0  0  0
    5.7429    4.6005  -18.3572 S   0  0  0  0  0  0  0  0  0  0  0  0
    6.2465   -1.9901  -22.1036 H   0  0  0  0  0  0  0  0  0  0  0  0
    7.4686   -0.3743  -23.5431 H   0  0  0  0  0  0  0  0  0  0  0  0
    3.0518   -5.7626  -16.7847 H   0  0  0  0  0  0  0  0  0  0  0  0
    4.6577   -4.9768  -18.5306 H   0  0  0  0  0  0  0  0  0  0  0  0
    4.1859    1.2649  -20.2027 H   0  0  0  0  0  0  0  0  0  0  0  0
    1.0447   -1.9632  -17.0434 H   0  0  0  0  0  0  0  0  0  0  0  0
    7.0913    2.5813  -19.9994 H   0  0  0  0  0  0  0  0  0  0  0  0
    7.6887    3.5863  -21.3631 H   0  0  0  0  0  0  0  0  0  0  0  0
    7.0867    6.0119  -21.5120 H   0  0  0  0  0  0  0  0  0  0  0  0
    6.4172    6.8363  -20.0632 H   0  0  0  0  0  0  0  0  0  0  0  0
    8.4804    5.0677  -18.0952 H   0  0  0  0  0  0  0  0  0  0  0  0
    9.1544    4.2396  -19.5397 H   0  0  0  0  0  0  0  0  0  0  0  0
    5.3460    5.3112  -22.1924 H   0  0  0  0  0  0  0  0  0  0  0  0
    6.2223    4.1300  -23.2237 H   0  0  0  0  0  0  0  0  0  0  0  0
    4.4362    4.0291  -23.0613 H   0  0  0  0  0  0  0  0  0  0  0  0
    3.4348    3.4871  -20.8782 H   0  0  0  0  0  0  0  0  0  0  0  0
    3.0870    4.3125  -17.5553 H   0  0  0  0  0  0  0  0  0  0  0  0
    2.2988    3.6301  -18.9384 H   0  0  0  0  0  0  0  0  0  0  0  0
    3.5992   -0.7958  -19.7921 H   0  0  0  0  0  0  0  0  0  0  0  0
  1  2  2  0
  1  8  1  0
  2 10  1  0
  3  4  2  0
  3  9  1  0
  4 11  1  0
  5  7  1  0
  5  8  2  0
  6  9  2  0
  6 20  1  0
  7 10  2  0
  7 17  1  0
  8 23  1  0
  9 26  1  0
 10 27  1  0
 11 13  1  0
 11 20  2  0
 12 21  2  0
 12 22  1  0
 12 28  1  0
 13 23  1  0
 13 24  2  0
 14 17  1  0
 14 18  1  0
 15 18  1  0
 15 25  1  0
 16 18  1  0
 16 25  1  0
 17 19  1  6
 17 21  1  0
 18 28  1  0
  1 29  1  0
  2 30  1  0
  3 31  1  0
  4 32  1  0
  5 33  1  0
  6 34  1  0
 14 35  1  0
 14 36  1  0
 15 37  1  0
 15 38  1  0
 16 39  1  0
 16 40  1  0
 19 41  1  0
 19 42  1  0
 19 43  1  0
 21 44  1  0
 22 45  1  0
 22 46  1  0
 23 47  1  0
M  CHG  1  21   1
M  END
>  <OMEGA_C>  (8) 
M0fCQCL5bb+f/q/B/03YQCBncrwyf7bB2D89QCTVmMDEtYnBwvV2QO2uisD1iJHBvwadQPxgaj/h
aafBIJfqP8grKMC57IrB0ayyQLzK7D/w2K3B8rukQE3j5r6FW6jBz8v2P+hwesC8aYbBzQDRQKIJ
rz9WcbXB/01tQK9FQsD905XBXH+KQJUGf0CSe5nBKOiTQAF1IsAhIp7BlOPcQMHqXkCdzaTBcr/j
QD0HwkAXT6PBc24GQby7nkA0f5nBfzexQESiVECdiKrBKYneQO+clUDSl53B7PSrQEKLiEBmTLTB
+XEtQOKNDcB8a5LB34yKQCqgZkBClKPBURlIQDdkfkBG95PBCxqNQEhCnr/gbaHB6W+xQBimTsBQ
eqHBumoGQS93xUAKDZ/B7VaEPyQHisCo9n3B+hHpQLdBDUD5bLvB0cW3QPI2k0B325LBZuPHQDW9
/r8T1LDB9/7uQM2jv74+WLzBSFBDQDNnuMATR4bBHgyVQJ9Bn8CSPpTBr/KFQPrnoT8On6HBYbeF
Px5K+7/fWIjBm+viQIwzJUC8/p/Bxgn2QMOFZUCY56rBaMbiQKNhwECQGKzBkVnNQJvC2kCJgaDB
3K8HQYkqokDpwpDBRHgSQfCqh0BjUZzBRhKrQCT1qUAcirHBxBzHQFAphEATyrnBKPWNQDvugEB8
fbjB19NbQMksX0CaBqfBlJFFQAUAikA9cYzBkB8TQDBTaEDfgZfBNFlmQOq5S79IVp7B

>  <OMEGA_E>  (8) 
5KDgPg==

>  <OMEGA_NBR>  (8) 
     86505

$$$$
450373
     RDKit          3D

 53 56  0  0  1  0  0  0  0  0999 V2000
    6.0091   -0.9154  -21.9803 C   0  0  0  0  0  0  0  0  0  0  0  0
    6.6939   -0.0165  -22.8087 C   0  0  0  0  0  0  0  0  0  0  0  0
    3.0283   -4.8207  -17.1945 C   0  0  0  0  0  0  0  0  0  0  0  0
    3.9063   -4.3544  -18.1829 C   0  0  0  0  0  0  0  0  0  0  0  0
    4.8970    0.9473  -20.8813 C   0  0  0  0  0  0  0  0  0  0  0  0
    1.8102   -2.7262  -17.3768 C   0  0  0  0  0  0  0  0  0  0  0  0
    5.5612    1.8651  -21.7165 C   0  0  0  0  0  0  0  0  0  0  0  0
    5.1201   -0.4243  -20.9995 C   0  0  0  0  0  0  0  0  0  0  0  0
    1.9672   -3.9946  -16.7884 C   0  0  0  0  0  0  0  0  0  0  0  0
    6.4893    1.3658  -22.6770 C   0  0  0  0  0  0  0  0  0  0  0  0
    3.7002   -3.0691  -18.7340 C   0  0  0  0  0  0  0  0  0  0  0  0
    4.3499    3.9889  -19.2058 C   0  0  0  0  0  0  0  0  0  0  0  0
    4.6141   -2.5301  -19.7488 C   0  0  0  0  0  0  0  0  0  0  0  0
    8.4265    4.5910  -19.0466 C   0  0  0  0  0  0  0  0  0  0  0  0
    6.8661    6.0066  -20.4968 C   0  0  0  0  0  0  0  0  0  0  0  0
    6.9025    3.4850  -20.6150 C   0  0  0  0  0  0  0  0  0  0  0  0
    8.6670    5.8002  -18.1203 C   0  0  0  0  0  0  0  0  0  0  0  0
    7.7863    7.1103  -19.9688 C   0  0  0  0  0  0  0  0  0  0  0  0
    5.5331    3.3438  -21.3388 C   0  0  1  0  0  0  0  0  0  0  0  0
    7.0303    4.6757  -19.6994 C   0  0  0  0  0  0  0  0  0  0  0  0
    5.3714    4.2324  -22.6075 C   0  0  0  0  0  0  0  0  0  0  0  0
    2.6640   -2.2874  -18.3243 N   0  0  0  0  0  0  0  0  0  0  0  0
    4.3357    3.6693  -20.4821 N   0  0  0  0  0  0  0  0  0  0  0  0
    3.1556    3.9553  -18.5037 N   0  0  0  0  0  0  0  0  0  0  0  0
    4.3985   -1.2138  -20.1214 N   0  0  0  0  0  0  0  0  0  0  0  0
    5.5562   -3.1958  -20.1646 O   0  0  0  0  0  0  0  0  0  0  0  0
    7.9266    6.9776  -18.5434 O   0  0  0  0  0  0  0  0  0  0  0  0
    1.1024   -4.4119  -15.8394 F   0  0  0  0  0  0  0  0  0  0  0  0
    7.2469    2.1877  -23.4390 F   0  0  0  0  0  0  0  0  0  0  0  0
    5.7863    4.5156  -18.3549 S   0  0  0  0  0  0  0  0  0  0  0  0
    6.1606   -1.9790  -22.0915 H   0  0  0  0  0  0  0  0  0  0  0  0
    7.3827   -0.3891  -23.5524 H   0  0  0  0  0  0  0  0  0  0  0  0
    3.1651   -5.7970  -16.7535 H   0  0  0  0  0  0  0  0  0  0  0  0
    4.7287   -4.9687  -18.5187 H   0  0  0  0  0  0  0  0  0  0  0  0
    4.2037    1.3109  -20.1373 H   0  0  0  0  0  0  0  0  0  0  0  0
    0.9925   -2.0935  -17.0645 H   0  0  0  0  0  0  0  0  0  0  0  0
    9.1940    4.5811  -19.8346 H   0  0  0  0  0  0  0  0  0  0  0  0
    8.4943    3.6649  -18.4569 H   0  0  0  0  0  0  0  0  0  0  0  0
    5.8226    6.3442  -20.4128 H   0  0  0  0  0  0  0  0  0  0  0  0
    7.1069    5.8192  -21.5536 H   0  0  0  0  0  0  0  0  0  0  0  0
    7.0646    2.5770  -20.0156 H   0  0  0  0  0  0  0  0  0  0  0  0
    7.6860    3.5620  -21.3833 H   0  0  0  0  0  0  0  0  0  0  0  0
    8.3525    5.5324  -17.1008 H   0  0  0  0  0  0  0  0  0  0  0  0
    9.7409    6.0385  -18.1220 H   0  0  0  0  0  0  0  0  0  0  0  0
    8.7744    7.0223  -20.4441 H   0  0  0  0  0  0  0  0  0  0  0  0
    7.3524    8.0932  -20.2044 H   0  0  0  0  0  0  0  0  0  0  0  0
    5.3535    5.2923  -22.3137 H   0  0  0  0  0  0  0  0  0  0  0  0
    6.2164    4.0553  -23.2892 H   0  0  0  0  0  0  0  0  0  0  0  0
    4.4301    3.9771  -23.1163 H   0  0  0  0  0  0  0  0  0  0  0  0
    3.4414    3.6394  -20.9286 H   0  0  0  0  0  0  0  0  0  0  0  0
    3.1334    4.2270  -17.5416 H   0  0  0  0  0  0  0  0  0  0  0  0
    2.3160    3.6594  -18.9592 H   0  0  0  0  0  0  0  0  0  0  0  0
    3.6094   -0.7711  -19.6955 H   0  0  0  0  0  0  0  0  0  0  0  0
  1  2  2  0
  1  8  1  0
  2 10  1  0
  3  4  2  0
  3  9  1  0
  4 11  1  0
  5  7  1  0
  5  8  2  0
  6  9  2  0
  6 22  1  0
  7 10  2  0
  7 19  1  0
  8 25  1  0
  9 28  1  0
 10 29  1  0
 11 13  1  0
 11 22  2  0
 12 23  2  0
 12 24  1  0
 12 30  1  0
 13 25  1  0
 13 26  2  0
 14 17  1  0
 14 20  1  0
 15 18  1  0
 15 20  1  0
 16 19  1  0
 16 20  1  0
 17 27  1  0
 18 27  1  0
 19 21  1  6
 19 23  1  0
 20 30  1  0
  1 31  1  0
  2 32  1  0
  3 33  1  0
  4 34  1  0
  5 35  1  0
  6 36  1  0
 14 37  1  0
 14 38  1  0
 15 39  1  0
 15 40  1  0
 16 41  1  0
 16 42  1  0
 17 43  1  0
 17 44  1  0
 18 45  1  0
 18 46  1  0
 21 47  1  0
 21 48  1  0
 21 49  1  0
 23 50  1  0
 24 51  1  0
 24 52  1  0
 25 53  1  0
M  CHG  1  23   1
M  END
>  <OMEGA_C>  (9) 
lErAQBpZar+u16/BSDTWQDDthrxCeLbB285BQNJCmsBujonBwgB6QKJXi8CjdpHBN7ScQJKBcj/v
DKfBb7TnP/15LsCXA4vBdfWxQK287j9mu63BkNejQI852b70/qfB6sz7P9mnf8CRTobB8qfPQOfR
rj9xarXBzs9sQOtrRMA535XBlDKLQFNJf0BjpZnByaaTQBHtIcCg/Z3BGNMGQdLpkkBiX5jBLLfb
QFQ2wEBt+aPB6ODcQO0JX0CU66TBG6wKQfSauUBr9pDBein5QJ+H40AhwJ/BJA+xQG8BVkDRtarB
VfjgQBSflUBgmJ3Bs+KrQNNvh0A43LTBiX8qQKNkEsBDmJLBp72KQFnWakBX26PBA/VJQPcjfUCR
B5TBQsCMQGFfm7+m+KDBO8yxQMqITMAjUaHB26b9QEBI30DPWJTBMRqNP00ujcA+bn3BWubnQCID
DEATg7vBjim5QLZ/kEDK1pLBjyPFQDxO/b9eu7DB6j7sQKQ6x75ba7zBoZBKQKqAucAtB4bBn1GX
QJb/nsA9JpTB9ISGQFDLpz8sGaHBCRd+Pzr7BcAnhIjBlxoTQQ+YkkArrZ7B0OgHQauNakDVp5PB
jFK6QAIEy0BZTaPBl2vjQNc2ukDSbazBkBHiQMPtJED/H6DBZvP1QLb3Y0DtEKvBzKMFQT8JsUCA
zojBo9obQbA7wUDr+ZDB8GMMQVa24ECYjaPBfkbrQOl9AUGxoqHB8E+rQFJaqUBugrLBqOzGQKTE
gUA/ULrBv8ONQDmJfkAl7rjBKj9cQHjraEC3bafB44hIQLBDh0AhVYzByTgUQCI0akB5rJfBXQBn
QExpRb9ykJ3BorfIQGbpXb/g863B5vrfQEDPOz0OK7TB+5I2QCVKncCs14rBA0BwQErkjcC2hZLB
s1WfQF63eT/QkqbBGDDjP85HL8Av+orB6JO1QM8M9T/6+azB5oyoQDCmyr7R9qbBaAjtP+PCgcB+
BIfByOvWQHM1tj8PvLPBHJ9oQFxXRsDcKJbBwKqKQPKXhUBSGJvB/eqSQFloI8ADAJ7B1YLuQAYr
T0ACm5zBK+IBQdRss0DDCKLBsq7KQCfxjkDsQqzB6WsEQaCOW0AEdZLBWJMOQRBntUCnjZfBB3Wm
QObiWUAECK3BVYXeQM4rk0D/IKHBooWQQDxLaUCo57fBp8opQBo4EsBDWpLBVFGEQISraUDBpaTB
Q7ddQCikdkBN2JLBNyOPQEjHmb+YcKDBA2qvQIDNUMByoqHBz6IVQdIKi0Dzl5TBkC95P7SBj8DD
H3/BtFvuQLgPD0AuE7rBu+K0QDO9qECvb5jBV1rPQCtW9r8Pga7B2iX5QDXkn76fWbnBQVY7QMG6
vcBH7IfBvP6QQGRqosCZoZXBopGGQP+sqT/jPKHBQASAPzIgBcBSEYjBEToBQVlxL0AuraLBhq3S
QIOsJkDxwprBSMH2QLFX00DY0aPBkJ0MQbBoqUA9i6jBAyPkQEoGhkCB6rHB/0q9QKowrkAci67B
/FT0QOa3dUDOGIzBWQILQRmeHUAW4Y/B2JUcQX1FykB1oJjBVVAEQXFowkCeL5HB8T+FQKXylUAG
V7jBT4inQM5cXUAoZb7BrEBqQMWZPUA+vrjB9KNMQA82WUCEhqbBS2FmQC3wh0DCkovBae4sQNSV
TkBUKpTBINNsQERhPL+z/JzBiUHFQAx3fL8N+67BGXfcQE4Ki73pGbXBd/c5QFemnMB4e4rBxoZ0
QJzRjcA4GpLBbyieQMw1Vz8vnKbBTOPjPwqhL8B1d4vBD5G0QIpD4z87z6zBN9+lQAZKBb+OxKfB
Pm7vP2BUgcD2KofB2tjTQLfKpj/MQbTBmC9rQHHpR8BQLZbBEW+MQBrNhkDTn5rBNZqTQP7iJsDg
Jp7BQVv8QJD7v0CQ2KXBai2wQNMxyEAsbq3BXOzSQM8sgEAfJKrBIxn8QBGO8EAIm6TBQzO1QDMT
+EC6qqvBf1aoQIMAUEBYE6zBYEzOQFZ9rUD+D6bBnaqSQFZKZUAE/7bBQt4qQBbAE8DeyJLBIlGH
QEEXYEBSaqPBqDRYQADshUBAB5PBcYWLQAuDqr9FzaHBAbWzQMxlT8BAoqDBM4LhQKmaAUE/x6zB
xxF2P6PdjsCp5X/Be7joQODXB0CgGbvB11a4QIsvqUDKi5jBaE7LQITgAsCAxK/BehT1QALs1L5I
fbrBNaE/QHmDvMBhNofBcgqUQIMaosC60pTBKbCGQB4vlz/z4aDBcaR8P2WcBcCB3YjBtkoGQdan
t0BaX63B4uwGQZjSsUBvFJ/BYdOOQD0wv0AHvqvB3L+3QEzWwEBA07XB0aDlQDvwW0CzPKTB+Hfk
QPNUgUC3w7HBpGTvQD4K+UB9rZzBSHcOQQjY/EAeZaXBfCqiQObLBEGEorHBBBiqQLM9AEHTlaPB
T96IQNRzlEDqE7fBtn2pQC+XWUCoiL3BR7VsQOhePEDWFLjB3iRVQD1ORUCcfKTBEwpcQEWNmECj
iozBbL4lQNBQZUCeCZTBGfddQNb2cr9t4J/BQgbCQPjTbL8be6/BqBfYQCDfqLwbBrbBekDtP2Eb
M8AfYonByswqQDUOE8AiiJHBAgKeQARTbj81sabB+2lFQCBnnMDzlYrBR0uzQOwv7T+GVK3BoVil
QO3S4b5tp6fB4nIEQPp9g8BC1YXBV27RQGwZrj/X7bTBywRsQEm2R8Av85XBzUSKQGILgUBUqZnB
YbWSQPH/JMAGNJ7Bz5kGQZJokkClr5fB4tbbQDjSv0A3iqPBZePcQMtoXkCjPKTBsg0MQeCju0C5
t5HBDBfrQC6P5kC+Jp3Br+axQA5cVUC6XKrBOaTgQCLBlUDSB53BuYuuQK65hkBJqLTBv4R3QFCQ
jMAweJLB9NWKQFlMakCkxaPB07FGQCSfgUB8WpTBO4COQH+Pnb8bk6DB6zmuQFqxUsAMPKLBSscK
QWAU30AZE5nBXBSnP1fak8Bh23vBI/DpQPATDEAu6LrBjM+3QOeJkUCijpLBjuvGQLhv/r/1arDB
Z1ruQDe8xr5V8bvBJJ2JP1oaDMCq54XBfp8hQMxSpb9pdJTBJqeHQN0npT9mw6DBL11PQAHVvMDE
3ofBn8ASQUOojEA0453BWYwGQaghb0BV/pHBTvG5QHdGxEB5oqXBCvjuQPBKvUBe5qrBHBvhQBjc
JEB2R5/BRcP2QOrkYUDvL6rB/pwAQUN2wEDQI4vBJlwcQXN0uUCkc47BJnjrQEpwAUGeYKLBFBrV
QE4j7EAobJbBGpKtQO+9qEBuaLLBmobKQLjRgEDkybnB3CyRQP3BfEAyCbnB+wVdQIGmZUD/cqfB
5cpDQMg3i0DzuozB2moRQEXicEBXJZjBD8puQCGCQb8ZjZzBuezIQJOYXL9Ls63B8OHfQKQHQD0Z
BbTBYybaPxZsM8D3SYrByMkkQAIYE8CgD5LBD3ifQMEzfD9uZabBNEI7QELHnMDGIovB0pm1QO3a
9T+O4qzBh+KoQA7rxr6SsqbBi1nxPzjWg8Cwv4bBuc3WQHVQtj8npbPBuGpnQIupR8AhIZbB5e6K
QA9uhEB+6JrBsFOSQAYUJMAr9p3BfdrvQAHfSkCvfJzBKUUCQdFPskAvMKHBZwrMQN/GjkBGyavB
6FAFQedfVEA/X5LBlC4PQbafskCjxJbBE1anQHPoWkBW4qzBlZbfQK+MkUCUlaDBg4qSQNm/bEDn
2bfBfuJwQLjGjMCWp5LBq8GEQCJNa0Bqq6TBLG9aQAULdkD9BJPBOAaQQLX3mL9tCaDBfG+tQEvR
UsAe+qHBx2oWQf7dh0CcV5TBWIuIP/o/lMBmZH7BhUvuQIb+DkD5/LnBjRW2QNCHpUBWmpfB+LbP
QOme9b+fL67BA9z4QM8pob5nPrnBWNVoP4lBDMBDFofBkCodQOHVpL/R9JTBPLGGQAdKqz9vE6HB
vKlDQB1YvcDgcIjBr8QBQe3xLEAqwKLBDiLUQJrJIUBHvprBgij3QBNm0kD9kKLBCOoMQby7qUA9
3KfBrZDlQDMWhkB1cbHB/TS/QBl2rkBi4q3BpGT2QEB2bED41IvBaAQMQUrOFUBNIJDBtBodQXbY
x0B9rpfBggYFQbtVvkBhNJDBUP2HQE7tl0BEM7jB7AKqQHfGYECFPL7BHJVtQKRSQkC/8LjBNDNN
QHKhXkCh06bBnolhQJ0Th0CKqYvB03MoQGtbUEBtr5TB845xQD6sNr8VHZzB

>  <OMEGA_E>  (9) 
TBH2PlwlDT/Clw4/iMwaP/T7KD8=

>  <OMEGA_NBR>  (9) 
     91242

$$$$
450374
     RDKit          3D

 53 56  0  0  1  0  0  0  0  0999 V2000
    6.0091   -0.9154  -21.9803 C   0  0  0  0  0  0  0  0  0  0  0  0
    6.6939   -0.0165  -22.8087 C   0  0  0  0  0  0  0  0  0  0  0  0
    3.0283   -4.8207  -17.1945 C   0  0  0  0  0  0  0  0  0  0  0  0
    3.9063   -4.3544  -18.1829 C   0  0  0  0  0  0  0  0  0  0  0  0
    4.8970    0.9473  -20.8813 C   0  0  0  0  0  0  0  0  0  0  0  0
    1.8102   -2.7262  -17.3768 C   0  0  0  0  0  0  0  0  0  0  0  0
    5.5612    1.8651  -21.7165 C   0  0  0  0  0  0  0  0  0  0  0  0
    5.1201   -0.4243  -20.9995 C   0  0  0  0  0  0  0  0  0  0  0  0
    1.9672   -3.9946  -16.7884 C   0  0  0  0  0  0  0  0  0  0  0  0
    6.4893    1.3658  -22.6770 C   0  0  0  0  0  0  0  0  0  0  0  0
    3.7002   -3.0691  -18.7340 C   0  0  0  0  0  0  0  0  0  0  0  0
    4.3499    3.9889  -19.2058 C   0  0  0  0  0  0  0  0  0  0  0  0
    4.6141   -2.5301  -19.7488 C   0  0  0  0  0  0  0  0  0  0  0  0
    8.4265    4.5910  -19.0466 C   0  0  0  0  0  0  0  0  0  0  0  0
    6.8661    6.0066  -20.4968 C   0  0  0  0  0  0  0  0  0  0  0  0
    6.9025    3.4850  -20.6150 C   0  0  0  0  0  0  0  0  0  0  0  0
    8.6670    5.8002  -18.1203 C   0  0  0  0  0  0  0  0  0  0  0  0
    7.7863    7.1103  -19.9688 C   0  0  0  0  0  0  0  0  0  0  0  0
    5.5331    3.3438  -21.3388 C   0  0  1  0  0  0  0  0  0  0  0  0
    7.0303    4.6757  -19.6994 C   0  0  0  0  0  0  0  0  0  0  0  0
    5.3714    4.2324  -22.6075 C   0  0  0  0  0  0  0  0  0  0  0  0
    2.6640   -2.2874  -18.3243 N   0  0  0  0  0  0  0  0  0  0  0  0
    4.3357    3.6693  -20.4821 N   0  0  0  0  0  0  0  0  0  0  0  0
    3.1556    3.9553  -18.5037 N   0  0  0  0  0  0  0  0  0  0  0  0
    4.3985   -1.2138  -20.1214 N   0  0  0  0  0  0  0  0  0  0  0  0
    5.5562   -3.1958  -20.1646 O   0  0  0  0  0  0  0  0  0  0  0  0
    7.9266    6.9776  -18.5434 O   0  0  0  0  0  0  0  0  0  0  0  0
    1.1024   -4.4119  -15.8394 F   0  0  0  0  0  0  0  0  0  0  0  0
    7.2469    2.1877  -23.4390 F   0  0  0  0  0  0  0  0  0  0  0  0
    5.7863    4.5156  -18.3549 S   0  0  0  0  0  0  0  0  0  0  0  0
    6.1606   -1.9790  -22.0915 H   0  0  0  0  0  0  0  0  0  0  0  0
    7.3827   -0.3891  -23.5524 H   0  0  0  0  0  0  0  0  0  0  0  0
    3.1651   -5.7970  -16.7535 H   0  0  0  0  0  0  0  0  0  0  0  0
    4.7287   -4.9687  -18.5187 H   0  0  0  0  0  0  0  0  0  0  0  0
    4.2037    1.3109  -20.1373 H   0  0  0  0  0  0  0  0  0  0  0  0
    0.9925   -2.0935  -17.0645 H   0  0  0  0  0  0  0  0  0  0  0  0
    9.1940    4.5811  -19.8346 H   0  0  0  0  0  0  0  0  0  0  0  0
    8.4943    3.6649  -18.4569 H   0  0  0  0  0  0  0  0  0  0  0  0
    5.8226    6.3442  -20.4128 H   0  0  0  0  0  0  0  0  0  0  0  0
    7.1069    5.8192  -21.5536 H   0  0  0  0  0  0  0  0  0  0  0  0
    7.0646    2.5770  -20.0156 H   0  0  0  0  0  0  0  0  0  0  0  0
    7.6860    3.5620  -21.3833 H   0  0  0  0  0  0  0  0  0  0  0  0
    8.3525    5.5324  -17.1008 H   0  0  0  0  0  0  0  0  0  0  0  0
    9.7409    6.0385  -18.1220 H   0  0  0  0  0  0  0  0  0  0  0  0
    8.7744    7.0223  -20.4441 H   0  0  0  0  0  0  0  0  0  0  0  0
    7.3524    8.0932  -20.2044 H   0  0  0  0  0  0  0  0  0  0  0  0
    5.3535    5.2923  -22.3137 H   0  0  0  0  0  0  0  0  0  0  0  0
    6.2164    4.0553  -23.2892 H   0  0  0  0  0  0  0  0  0  0  0  0
    4.4301    3.9771  -23.1163 H   0  0  0  0  0  0  0  0  0  0  0  0
    3.4414    3.6394  -20.9286 H   0  0  0  0  0  0  0  0  0  0  0  0
    3.1334    4.2270  -17.5416 H   0  0  0  0  0  0  0  0  0  0  0  0
    2.3160    3.6594  -18.9592 H   0  0  0  0  0  0  0  0  0  0  0  0
    3.6094   -0.7711  -19.6955 H   0  0  0  0  0  0  0  0  0  0  0  0
  1  2  2  0
  1  8  1  0
  2 10  1  0
  3  4  2  0
  3  9  1  0
  4 11  1  0
  5  7  1  0
  5  8  2  0
  6  9  2  0
  6 22  1  0
  7 10  2  0
  7 19  1  0
  8 25  1  0
  9 28  1  0
 10 29  1  0
 11 13  1  0
 11 22  2  0
 12 23  2  0
 12 24  1  0
 12 30  1  0
 13 25  1  0
 13 26  2  0
 14 17  1  0
 14 20  1  0
 15 18  1  0
 15 20  1  0
 16 19  1  0
 16 20  1  0
 17 27  1  0
 18 27  1  0
 19 21  1  6
 19 23  1  0
 20 30  1  0
  1 31  1  0
  2 32  1  0
  3 33  1  0
  4 34  1  0
  5 35  1  0
  6 36  1  0
 14 37  1  0
 14 38  1  0
 15 39  1  0
 15 40  1  0
 16 41  1  0
 16 42  1  0
 17 43  1  0
 17 44  1  0
 18 45  1  0
 18 46  1  0
 21 47  1  0
 21 48  1  0
 21 49  1  0
 23 50  1  0
 24 51  1  0
 24 52  1  0
 25 53  1  0
M  CHG  1  23   1
M  END
>  <OMEGA_C>  (10) 
lErAQBpZar+u16/BSDTWQDDthrxCeLbB285BQNJCmsBujonBwgB6QKJXi8CjdpHBN7ScQJKBcj/v
DKfBb7TnP/15LsCXA4vBdfWxQK287j9mu63BkNejQI852b70/qfB6sz7P9mnf8CRTobB8qfPQOfR
rj9xarXBzs9sQOtrRMA535XBlDKLQFNJf0BjpZnByaaTQBHtIcCg/Z3BGNMGQdLpkkBiX5jBLLfb
QFQ2wEBt+aPB6ODcQO0JX0CU66TBG6wKQfSauUBr9pDBein5QJ+H40AhwJ/BJA+xQG8BVkDRtarB
VfjgQBSflUBgmJ3Bs+KrQNNvh0A43LTBiX8qQKNkEsBDmJLBp72KQFnWakBX26PBA/VJQPcjfUCR
B5TBQsCMQGFfm7+m+KDBO8yxQMqITMAjUaHB26b9QEBI30DPWJTBMRqNP00ujcA+bn3BWubnQCID
DEATg7vBjim5QLZ/kEDK1pLBjyPFQDxO/b9eu7DB6j7sQKQ6x75ba7zBoZBKQKqAucAtB4bBn1GX
QJb/nsA9JpTB9ISGQFDLpz8sGaHBCRd+Pzr7BcAnhIjBlxoTQQ+YkkArrZ7B0OgHQauNakDVp5PB
jFK6QAIEy0BZTaPBl2vjQNc2ukDSbazBkBHiQMPtJED/H6DBZvP1QLb3Y0DtEKvBzKMFQT8JsUCA
zojBo9obQbA7wUDr+ZDB8GMMQVa24ECYjaPBfkbrQOl9AUGxoqHB8E+rQFJaqUBugrLBqOzGQKTE
gUA/ULrBv8ONQDmJfkAl7rjBKj9cQHjraEC3bafB44hIQLBDh0AhVYzByTgUQCI0akB5rJfBXQBn
QExpRb9ykJ3BorfIQGbpXb/g863B5vrfQEDPOz0OK7TB+5I2QCVKncCs14rBA0BwQErkjcC2hZLB
s1WfQF63eT/QkqbBGDDjP85HL8Av+orB6JO1QM8M9T/6+azB5oyoQDCmyr7R9qbBaAjtP+PCgcB+
BIfByOvWQHM1tj8PvLPBHJ9oQFxXRsDcKJbBwKqKQPKXhUBSGJvB/eqSQFloI8ADAJ7B1YLuQAYr
T0ACm5zBK+IBQdRss0DDCKLBsq7KQCfxjkDsQqzB6WsEQaCOW0AEdZLBWJMOQRBntUCnjZfBB3Wm
QObiWUAECK3BVYXeQM4rk0D/IKHBooWQQDxLaUCo57fBp8opQBo4EsBDWpLBVFGEQISraUDBpaTB
Q7ddQCikdkBN2JLBNyOPQEjHmb+YcKDBA2qvQIDNUMByoqHBz6IVQdIKi0Dzl5TBkC95P7SBj8DD
H3/BtFvuQLgPD0AuE7rBu+K0QDO9qECvb5jBV1rPQCtW9r8Pga7B2iX5QDXkn76fWbnBQVY7QMG6
vcBH7IfBvP6QQGRqosCZoZXBopGGQP+sqT/jPKHBQASAPzIgBcBSEYjBEToBQVlxL0AuraLBhq3S
QIOsJkDxwprBSMH2QLFX00DY0aPBkJ0MQbBoqUA9i6jBAyPkQEoGhkCB6rHB/0q9QKowrkAci67B
/FT0QOa3dUDOGIzBWQILQRmeHUAW4Y/B2JUcQX1FykB1oJjBVVAEQXFowkCeL5HB8T+FQKXylUAG
V7jBT4inQM5cXUAoZb7BrEBqQMWZPUA+vrjB9KNMQA82WUCEhqbBS2FmQC3wh0DCkovBae4sQNSV
TkBUKpTBINNsQERhPL+z/JzBiUHFQAx3fL8N+67BGXfcQE4Ki73pGbXBd/c5QFemnMB4e4rBxoZ0
QJzRjcA4GpLBbyieQMw1Vz8vnKbBTOPjPwqhL8B1d4vBD5G0QIpD4z87z6zBN9+lQAZKBb+OxKfB
Pm7vP2BUgcD2KofB2tjTQLfKpj/MQbTBmC9rQHHpR8BQLZbBEW+MQBrNhkDTn5rBNZqTQP7iJsDg
Jp7BQVv8QJD7v0CQ2KXBai2wQNMxyEAsbq3BXOzSQM8sgEAfJKrBIxn8QBGO8EAIm6TBQzO1QDMT
+EC6qqvBf1aoQIMAUEBYE6zBYEzOQFZ9rUD+D6bBnaqSQFZKZUAE/7bBQt4qQBbAE8DeyJLBIlGH
QEEXYEBSaqPBqDRYQADshUBAB5PBcYWLQAuDqr9FzaHBAbWzQMxlT8BAoqDBM4LhQKmaAUE/x6zB
xxF2P6PdjsCp5X/Be7joQODXB0CgGbvB11a4QIsvqUDKi5jBaE7LQITgAsCAxK/BehT1QALs1L5I
fbrBNaE/QHmDvMBhNofBcgqUQIMaosC60pTBKbCGQB4vlz/z4aDBcaR8P2WcBcCB3YjBtkoGQdan
t0BaX63B4uwGQZjSsUBvFJ/BYdOOQD0wv0AHvqvB3L+3QEzWwEBA07XB0aDlQDvwW0CzPKTB+Hfk
QPNUgUC3w7HBpGTvQD4K+UB9rZzBSHcOQQjY/EAeZaXBfCqiQObLBEGEorHBBBiqQLM9AEHTlaPB
T96IQNRzlEDqE7fBtn2pQC+XWUCoiL3BR7VsQOhePEDWFLjB3iRVQD1ORUCcfKTBEwpcQEWNmECj
iozBbL4lQNBQZUCeCZTBGfddQNb2cr9t4J/BQgbCQPjTbL8be6/BqBfYQCDfqLwbBrbBekDtP2Eb
M8AfYonByswqQDUOE8AiiJHBAgKeQARTbj81sabB+2lFQCBnnMDzlYrBR0uzQOwv7T+GVK3BoVil
QO3S4b5tp6fB4nIEQPp9g8BC1YXBV27RQGwZrj/X7bTBywRsQEm2R8Av85XBzUSKQGILgUBUqZnB
YbWSQPH/JMAGNJ7Bz5kGQZJokkClr5fB4tbbQDjSv0A3iqPBZePcQMtoXkCjPKTBsg0MQeCju0C5
t5HBDBfrQC6P5kC+Jp3Br+axQA5cVUC6XKrBOaTgQCLBlUDSB53BuYuuQK65hkBJqLTBv4R3QFCQ
jMAweJLB9NWKQFlMakCkxaPB07FGQCSfgUB8WpTBO4COQH+Pnb8bk6DB6zmuQFqxUsAMPKLBSscK
QWAU30AZE5nBXBSnP1fak8Bh23vBI/DpQPATDEAu6LrBjM+3QOeJkUCijpLBjuvGQLhv/r/1arDB
Z1ruQDe8xr5V8bvBJJ2JP1oaDMCq54XBfp8hQMxSpb9pdJTBJqeHQN0npT9mw6DBL11PQAHVvMDE
3ofBn8ASQUOojEA0453BWYwGQaghb0BV/pHBTvG5QHdGxEB5oqXBCvjuQPBKvUBe5qrBHBvhQBjc
JEB2R5/BRcP2QOrkYUDvL6rB/pwAQUN2wEDQI4vBJlwcQXN0uUCkc47BJnjrQEpwAUGeYKLBFBrV
QE4j7EAobJbBGpKtQO+9qEBuaLLBmobKQLjRgEDkybnB3CyRQP3BfEAyCbnB+wVdQIGmZUD/cqfB
5cpDQMg3i0DzuozB2moRQEXicEBXJZjBD8puQCGCQb8ZjZzBuezIQJOYXL9Ls63B8OHfQKQHQD0Z
BbTBYybaPxZsM8D3SYrByMkkQAIYE8CgD5LBD3ifQMEzfD9uZabBNEI7QELHnMDGIovB0pm1QO3a
9T+O4qzBh+KoQA7rxr6SsqbBi1nxPzjWg8Cwv4bBuc3WQHVQtj8npbPBuGpnQIupR8AhIZbB5e6K
QA9uhEB+6JrBsFOSQAYUJMAr9p3BfdrvQAHfSkCvfJzBKUUCQdFPskAvMKHBZwrMQN/GjkBGyavB
6FAFQedfVEA/X5LBlC4PQbafskCjxJbBE1anQHPoWkBW4qzBlZbfQK+MkUCUlaDBg4qSQNm/bEDn
2bfBfuJwQLjGjMCWp5LBq8GEQCJNa0Bqq6TBLG9aQAULdkD9BJPBOAaQQLX3mL9tCaDBfG+tQEvR
UsAe+qHBx2oWQf7dh0CcV5TBWIuIP/o/lMBmZH7BhUvuQIb+DkD5/LnBjRW2QNCHpUBWmpfB+LbP
QOme9b+fL67BA9z4QM8pob5nPrnBWNVoP4lBDMBDFofBkCodQOHVpL/R9JTBPLGGQAdKqz9vE6HB
vKlDQB1YvcDgcIjBr8QBQe3xLEAqwKLBDiLUQJrJIUBHvprBgij3QBNm0kD9kKLBCOoMQby7qUA9
3KfBrZDlQDMWhkB1cbHB/TS/QBl2rkBi4q3BpGT2QEB2bED41IvBaAQMQUrOFUBNIJDBtBodQXbY
x0B9rpfBggYFQbtVvkBhNJDBUP2HQE7tl0BEM7jB7AKqQHfGYECFPL7BHJVtQKRSQkC/8LjBNDNN
QHKhXkCh06bBnolhQJ0Th0CKqYvB03MoQGtbUEBtr5TB845xQD6sNr8VHZzB

>  <OMEGA_E>  (10) 
TBH2PlwlDT/Clw4/iMwaP/T7KD8=

>  <OMEGA_NBR>  (10) 
     95979

$$$$
450375
     RDKit          3D

 53 56  0  0  1  0  0  0  0  0999 V2000
    5.3011   -1.0270  -22.2436 C   0  0  0  0  0  0  0  0  0  0  0  0
    5.9375   -0.2076  -23.1853 C   0  0  0  0  0  0  0  0  0  0  0  0
    3.2379   -5.0487  -17.1479 C   0  0  0  0  0  0  0  0  0  0  0  0
    4.1347   -4.4168  -18.0263 C   0  0  0  0  0  0  0  0  0  0  0  0
    5.1091    0.8797  -20.7368 C   0  0  0  0  0  0  0  0  0  0  0  0
    1.6651   -3.2446  -17.5617 C   0  0  0  0  0  0  0  0  0  0  0  0
    5.7422    1.7384  -21.6766 C   0  0  0  0  0  0  0  0  0  0  0  0
    4.9024   -0.4840  -21.0090 C   0  0  0  0  0  0  0  0  0  0  0  0
    1.9850   -4.4544  -16.9165 C   0  0  0  0  0  0  0  0  0  0  0  0
    6.1859    1.1504  -22.9074 C   0  0  0  0  0  0  0  0  0  0  0  0
    3.7529   -3.2017  -18.6482 C   0  0  0  0  0  0  0  0  0  0  0  0
    4.5985    4.8932  -20.0624 C   0  0  0  0  0  0  0  0  0  0  0  0
    4.6472   -2.5127  -19.6007 C   0  0  0  0  0  0  0  0  0  0  0  0
    7.7623    6.0487  -22.2743 C   0  0  0  0  0  0  0  0  0  0  0  0
    5.5143    6.4720  -23.3958 C   0  0  0  0  0  0  0  0  0  0  0  0
    5.9965    4.1940  -22.4961 C   0  0  0  0  0  0  0  0  0  0  0  0
    8.0175    7.5668  -22.3802 C   0  0  0  0  0  0  0  0  0  0  0  0
    5.8914    7.9651  -23.4421 C   0  0  0  0  0  0  0  0  0  0  0  0
    6.0268    3.2239  -21.2620 C   0  0  2  0  0  0  0  0  0  0  0  0
    6.2309    5.7103  -22.2363 C   0  0  0  0  0  0  0  0  0  0  0  0
    7.3743    3.2349  -20.4925 C   0  0  0  0  0  0  0  0  0  0  0  0
    2.5368   -2.6446  -18.4015 N   0  0  0  0  0  0  0  0  0  0  0  0
    4.9314    3.6500  -20.3283 N   0  0  0  0  0  0  0  0  0  0  0  0
    3.5134    5.1253  -19.2311 N   0  0  0  0  0  0  0  0  0  0  0  0
    4.2485   -1.2548  -20.0543 N   0  0  0  0  0  0  0  0  0  0  0  0
    5.7312   -2.9986  -19.9128 O   0  0  0  0  0  0  0  0  0  0  0  0
    7.3237    8.1068  -23.5236 O   0  0  0  0  0  0  0  0  0  0  0  0
    1.0914   -5.0355  -16.0846 F   0  0  0  0  0  0  0  0  0  0  0  0
    6.8746    1.8286  -23.8470 F   0  0  0  0  0  0  0  0  0  0  0  0
    5.5285    6.2758  -20.6212 S   0  0  0  0  0  0  0  0  0  0  0  0
    5.1181   -2.0682  -22.4643 H   0  0  0  0  0  0  0  0  0  0  0  0
    6.2411   -0.6223  -24.1352 H   0  0  0  0  0  0  0  0  0  0  0  0
    3.5063   -5.9738  -16.6595 H   0  0  0  0  0  0  0  0  0  0  0  0
    5.1030   -4.8518  -18.2251 H   0  0  0  0  0  0  0  0  0  0  0  0
    4.7793    1.2846  -19.7914 H   0  0  0  0  0  0  0  0  0  0  0  0
    0.7036   -2.7871  -17.3816 H   0  0  0  0  0  0  0  0  0  0  0  0
    8.2142    5.5512  -23.1450 H   0  0  0  0  0  0  0  0  0  0  0  0
    8.2317    5.6734  -21.3530 H   0  0  0  0  0  0  0  0  0  0  0  0
    4.4267    6.3870  -23.2547 H   0  0  0  0  0  0  0  0  0  0  0  0
    5.7975    6.0068  -24.3515 H   0  0  0  0  0  0  0  0  0  0  0  0
    6.7751    3.8574  -23.1965 H   0  0  0  0  0  0  0  0  0  0  0  0
    5.0087    4.0916  -22.9692 H   0  0  0  0  0  0  0  0  0  0  0  0
    7.6544    8.0615  -21.4673 H   0  0  0  0  0  0  0  0  0  0  0  0
    9.0969    7.7476  -22.4907 H   0  0  0  0  0  0  0  0  0  0  0  0
    5.4280    8.4312  -24.3241 H   0  0  0  0  0  0  0  0  0  0  0  0
    5.5270    8.4618  -22.5308 H   0  0  0  0  0  0  0  0  0  0  0  0
    7.6116    4.2633  -20.1824 H   0  0  0  0  0  0  0  0  0  0  0  0
    7.2935    2.5932  -19.6027 H   0  0  0  0  0  0  0  0  0  0  0  0
    8.1731    2.8557  -21.1468 H   0  0  0  0  0  0  0  0  0  0  0  0
    4.4120    2.9283  -19.8708 H   0  0  0  0  0  0  0  0  0  0  0  0
    3.2784    6.0602  -18.9650 H   0  0  0  0  0  0  0  0  0  0  0  0
    2.9659    4.3579  -18.8975 H   0  0  0  0  0  0  0  0  0  0  0  0
    3.4149   -0.8722  -19.6558 H   0  0  0  0  0  0  0  0  0  0  0  0
  1  2  2  0
  1  8  1  0
  2 10  1  0
  3  4  2  0
  3  9  1  0
  4 11  1  0
  5  7  1  0
  5  8  2  0
  6  9  2  0
  6 22  1  0
  7 10  2  0
  7 19  1  0
  8 25  1  0
  9 28  1  0
 10 29  1  0
 11 13  1  0
 11 22  2  0
 12 23  2  0
 12 24  1  0
 12 30  1  0
 13 25  1  0
 13 26  2  0
 14 17  1  0
 14 20  1  0
 15 18  1  0
 15 20  1  0
 16 19  1  0
 16 20  1  0
 17 27  1  0
 18 27  1  0
 19 21  1  1
 19 23  1  0
 20 30  1  0
  1 31  1  0
  2 32  1  0
  3 33  1  0
  4 34  1  0
  5 35  1  0
  6 36  1  0
 14 37  1  0
 14 38  1  0
 15 39  1  0
 15 40  1  0
 16 41  1  0
 16 42  1  0
 17 43  1  0
 17 44  1  0
 18 45  1  0
 18 46  1  0
 21 47  1  0
 21 48  1  0
 21 49  1  0
 23 50  1  0
 24 51  1  0
 24 52  1  0
 25 53  1  0
M  CHG  1  23   1
M  END
>  <OMEGA_C>  (11) 
A6OpQFxzg7/78rHBJQC+QAObVL58e7nBWTpPQOOOocDNLonBv0+EQFFWjcDlNZDBAn6jQFg0YT/v
5KXBzSLVP1CoT8BJfozB3r+3QGyD3j/Baa3Bm+CcQLXS975cEqjBtxT+Pz2KjsALVYfB7PLFQJJB
kz9GQrfBCTBwQBfoTMBwL5XByiaTQBSVnEC9f6DBdbWUQHfPIMAkzpzBcGT4QFSPwUC2MbLBVXWw
QLkaz0CpKrvBb+O/QBE1hkAd+LPBiUcAQVwj8kC3CrPBq4a8QBPi/kBiibvBctvAQJ1TTkCDGKrB
5mPHQAa7tkDb47HBBvrrQHkIT0Ce8KPBpVsiQItBKcA7NpPB8s2dQDCaaUBeoKLB3NtgQLcCpEAz
2ZnBZ/OHQB2eoL8vb6DBWGa3QO/oP8BmTZ/BIFzqQJa1AUFCMLzBdbOLP9oiocBWrYDB4PzbQFEO
6j+8xr7BRemwQCfTyEA/+KTBIcejQFddBMDutrPBuLbHQPBNH7/kFMHBB2hgQH4pv8CgRoXBLUyj
QP1Bm8AQzZHBxe+YQHNtpD/jVJ7BNxw0P5pfMsCGDYvBTW0DQb+jsUAPKbnB9rQDQVSMtUDx0qrB
z6eNQFJizECSCbrBE4W5QL43wED4z8LBqc3YQGDgdkCBkrnBVUegQBzugkDewLfBK/H0QM77AEHx
vKvBzIwRQe7r90AE7bPBELKtQFrmBkG4l8LBCd2wQHljB0EJP7TBl5LzQJBsiECkdaHBhGTpQOv2
JUBa0pzBBsUCQaPDNkCTLKnBLS+NQKdoO0B0957BgtBRQBftwUBYuJfBEtE9QORzi0AaLpfBho5a
QKhGX7/7Pp3B

>  <OMEGA_E>  (11) 
QFxkPw==

>  <OMEGA_NBR>  (11) 
     97163

$$$$
450316
     RDKit          3D

 53 56  0  0  1  0  0  0  0  0999 V2000
    5.9969   -0.9161  -21.9842 C   0  0  0  0  0  0  0  0  0  0  0  0
    6.6867   -0.0192  -22.8103 C   0  0  0  0  0  0  0  0  0  0  0  0
    3.0283   -4.8479  -17.2212 C   0  0  0  0  0  0  0  0  0  0  0  0
    3.9142   -4.3623  -18.1922 C   0  0  0  0  0  0  0  0  0  0  0  0
    4.8927    0.9493  -20.8821 C   0  0  0  0  0  0  0  0  0  0  0  0
    1.8048   -2.7547  -17.3811 C   0  0  0  0  0  0  0  0  0  0  0  0
    5.5612    1.8652  -21.7163 C   0  0  0  0  0  0  0  0  0  0  0  0
    5.1104   -0.4229  -21.0017 C   0  0  0  0  0  0  0  0  0  0  0  0
    6.4889    1.3635  -22.6759 C   0  0  0  0  0  0  0  0  0  0  0  0
    1.9586   -4.0339  -16.8154 C   0  0  0  0  0  0  0  0  0  0  0  0
    3.7073   -3.0701  -18.7267 C   0  0  0  0  0  0  0  0  0  0  0  0
    4.3525    3.9906  -19.2077 C   0  0  0  0  0  0  0  0  0  0  0  0
    4.6155   -2.5245  -19.7427 C   0  0  0  0  0  0  0  0  0  0  0  0
    8.4311    4.5939  -19.0508 C   0  0  0  0  0  0  0  0  0  0  0  0
    6.8606    6.0066  -20.4919 C   0  0  0  0  0  0  0  0  0  0  0  0
    6.9063    3.4852  -20.6173 C   0  0  0  0  0  0  0  0  0  0  0  0
    8.6686    5.8004  -18.1205 C   0  0  0  0  0  0  0  0  0  0  0  0
    7.7679    7.1166  -19.9547 C   0  0  0  0  0  0  0  0  0  0  0  0
    5.5365    3.3442  -21.3401 C   0  0  1  0  0  0  0  0  0  0  0  0
    7.0327    4.6741  -19.6991 C   0  0  0  0  0  0  0  0  0  0  0  0
    5.3777    4.2309  -22.6104 C   0  0  0  0  0  0  0  0  0  0  0  0
    2.6671   -2.2966  -18.3119 N   0  0  0  0  0  0  0  0  0  0  0  0
    4.3388    3.6731  -20.4845 N   0  0  0  0  0  0  0  0  0  0  0  0
    3.1563    3.9657  -18.5082 N   0  0  0  0  0  0  0  0  0  0  0  0
    4.3890   -1.2120  -20.1223 N   0  0  0  0  0  0  0  0  0  0  0  0
    5.5582   -3.1869  -20.1622 O   0  0  0  0  0  0  0  0  0  0  0  0
    7.9133    6.9728  -18.5307 O   0  0  0  0  0  0  0  0  0  0  0  0
    7.2533    2.1832  -23.4334 F   0  0  0  0  0  0  0  0  0  0  0  0
    5.7915    4.5042  -18.3535 S   0  0  0  0  0  0  0  0  0  0  0  0
    0.8226   -4.6055  -15.6272 Cl  0  0  0  0  0  0  0  0  0  0  0  0
    6.1424   -1.9802  -22.0983 H   0  0  0  0  0  0  0  0  0  0  0  0
    7.3741   -0.3938  -23.5543 H   0  0  0  0  0  0  0  0  0  0  0  0
    3.1658   -5.8297  -16.7929 H   0  0  0  0  0  0  0  0  0  0  0  0
    4.7437   -4.9671  -18.5277 H   0  0  0  0  0  0  0  0  0  0  0  0
    4.2005    1.3150  -20.1381 H   0  0  0  0  0  0  0  0  0  0  0  0
    0.9829   -2.1295  -17.0650 H   0  0  0  0  0  0  0  0  0  0  0  0
    9.1962    4.5908  -19.8412 H   0  0  0  0  0  0  0  0  0  0  0  0
    8.5052    3.6658  -18.4651 H   0  0  0  0  0  0  0  0  0  0  0  0
    5.8136    6.3344  -20.4120 H   0  0  0  0  0  0  0  0  0  0  0  0
    7.1086    5.8257  -21.5482 H   0  0  0  0  0  0  0  0  0  0  0  0
    7.0703    2.5761  -20.0201 H   0  0  0  0  0  0  0  0  0  0  0  0
    7.6891    3.5652  -21.3859 H   0  0  0  0  0  0  0  0  0  0  0  0
    8.3660    5.5244  -17.0996 H   0  0  0  0  0  0  0  0  0  0  0  0
    9.7401    6.0490  -18.1308 H   0  0  0  0  0  0  0  0  0  0  0  0
    8.7561    7.0455  -20.4328 H   0  0  0  0  0  0  0  0  0  0  0  0
    7.3212    8.0962  -20.1802 H   0  0  0  0  0  0  0  0  0  0  0  0
    5.3621    5.2914  -22.3184 H   0  0  0  0  0  0  0  0  0  0  0  0
    6.2227    4.0507  -23.2912 H   0  0  0  0  0  0  0  0  0  0  0  0
    4.4361    3.9770  -23.1193 H   0  0  0  0  0  0  0  0  0  0  0  0
    3.4451    3.6473  -20.9324 H   0  0  0  0  0  0  0  0  0  0  0  0
    3.1342    4.2361  -17.5457 H   0  0  0  0  0  0  0  0  0  0  0  0
    2.3153    3.6773  -18.9660 H   0  0  0  0  0  0  0  0  0  0  0  0
    3.5941   -0.7735  -19.7030 H   0  0  0  0  0  0  0  0  0  0  0  0
  1  2  2  0
  1  8  1  0
  2  9  1  0
  3  4  2  0
  3 10  1  0
  4 11  1  0
  5  7  1  0
  5  8  2  0
  6 10  2  0
  6 22  1  0
  7  9  2  0
  7 19  1  0
  8 25  1  0
  9 28  1  0
 10 30  1  0
 11 13  1  0
 11 22  2  0
 12 23  2  0
 12 24  1  0
 12 29  1  0
 13 25  1  0
 13 26  2  0
 14 17  1  0
 14 20  1  0
 15 18  1  0
 15 20  1  0
 16 19  1  0
 16 20  1  0
 17 27  1  0
 18 27  1  0
 19 21  1  6
 19 23  1  0
 20 29  1  0
  1 31  1  0
  2 32  1  0
  3 33  1  0
  4 34  1  0
  5 35  1  0
  6 36  1  0
 14 37  1  0
 14 38  1  0
 15 39  1  0
 15 40  1  0
 16 41  1  0
 16 42  1  0
 17 43  1  0
 17 44  1  0
 18 45  1  0
 18 46  1  0
 21 47  1  0
 21 48  1  0
 21 49  1  0
 23 50  1  0
 24 51  1  0
 24 52  1  0
 25 53  1  0
M  CHG  1  23   1
M  END
>  <OMEGA_C>  (12) 
V+a/QKCIar+936/BJPnVQOBznbyLe7bBUNBBQKchm8DwxInB1YF6QBOYi8CbiZHBG5GcQJcIcz+h
DqfB5APnP8NNMMCWDIvBi/WxQGbA7j/7uq3Bv4ijQDyJ2L6HA6jBuaTPQJqGrj8vaLXBALX6PwEW
gcAGhobBiERtQAt8RMBW0JXBc0eLQIllf0BGqZnBY7KTQGGRIcD58J3Bv+UGQT4Bk0AkaJjB34nb
QEc2wEBz76PBzgDdQCMOX0Aw8KTBvLIKQfOcuUDb9pDBCZP4QI6740Ayo5/BsSqxQA8HVkB+uKrB
GwzhQB+SlUDbl53BBBasQO9jh0AX4rTBkrIqQOT7EsDafpLBcdeKQNcTa0Bb4KPBXAFKQM/NfUDR
EJTB33KMQPAjm79/+qDBK92xQJr1S8A+TKHBaTn9QNwg30DpPpTBMhvoQOu5C0CTd7vBs1O5QFQi
kEDn05LB5ZJSP55gk8DzCHrBVY7EQEp3/b9dybDBbfjrQOKkyb4+b7zBdpxKQBiNusDFV4bBVMyX
QFLynsC0OJTB5GqGQI9SqD/WGqHBz6B7P2lJCMAdhYjBoSMTQbjnkkC1up7BShUIQSScakCIuJPB
1gi6QASzykDRS6PBW3njQAtsukC/YqzBEEDiQELfJEAnKaDBhA32QJ4rZEBmFqvBQNsFQRbIsEAH
zIjBkdcbQXKRwUDiC5HB3xgMQfZ04UBKdqPBE0fqQBWKAUH8cKHBJJarQM5SqUD8i7LBFyDHQA+f
gUBmVLrB0fSNQKCHfkBd9LjBw3tcQK5taUCFdafBGpdIQAuOh0ChXYzBeC4UQFJZa0BgupfBbwVm
QDkGRr/Wn53BW6fIQL8wWL8c663B69DfQHAPhj1ZL7TBMf81QItYnMChv4rByZBvQHY3jcBOe5LB
GgyfQH7gfz/CpabBJ9LjPyj2LMDq5IrB9GC1QKHm9z82EK3BW2uoQCh0vr4G9abB9q7WQH+yuD9K
z7PBnxDtPw2GgMBk5YbBwVxoQK7xRMBbIZbBACKLQK9wg0Dy25rBIdmSQAwOIsCK9p3BjmHvQBij
SUDscZzBQWMCQW+nsUCb56DBTj3MQFIBj0BxtavBBd8EQYzdUUBbPpLBVQEPQcp5sUAiZJbBJkun
QAz0W0Cp8KzBnoffQOk3kUDkdqDBDpuSQOoGb0Dv4LfBVO8pQPpxEMAwUJLBt6SEQFbAa0C7tqTB
8axdQF7tbkDJ25LBDT+PQKOllr9pW6DBsR6vQBi2T8C3p6HB4BQWQUaShkBlAZTBmyjuQPRPEEDJ
JLrBPsK1QKggpUDvi5fBnnI5P5OukcCMWnrB4WzPQBJt879Kaa7Bt/f4QP3zlr68XLnBrWY6QKbG
vMBB0IfBG22QQF/xocCNnpXB1hqGQEjxrD+kXqHBnlGBP8BzAsD2+YfBo6ABQSMQLEBzsqLBgnjT
QOq2IEAw1prB4cH3QOrj0UBxSKLBuiwNQSoIqUD+g6fBXtflQOxUhkBwWLHB4LG/QD3crkD/wK3B
OkH1QNRmaUByuIvBWnULQTvyEkBFEZDBbv8cQeCaxkCiKJfBCLAEQQEMvUAH4I/B6jGIQLkfmUDd
ILjBlBWqQMB7Y0A8Rr7BQYxtQPPwRECXCrnBtspMQMG5YEB87qbBViFmQCEUgkDJYovBEGcsQHtr
SEB0j5TBQ65tQLwyNb+Sy5zBZqDEQEy9fL8a/K7BwqfbQFw7lb3/LbXBwyQ8QJyMncBLcorBa6V1
QJljjsA7JZLBDtidQJIZWD+RlabBbvjiP2/dMsArfIvBHg60QLdI4z++36zBCn6lQA/KBL+ZtqfB
qArTQLkopj94YLTBWKTyPzK0gsA9FofBVchqQOBMScDnPpbBPOWMQAFmh0BlsprBcHuTQGIQJ8Cs
H57BpHn8QO4lwEAoVabB8tmvQIFZyEAHla3BKLPSQLdIgEC3cKrBMEr8QAq48EDiBqXBwuK0QJY6
+EDJyKvB2POnQPoiUEAuK6zBOGvOQMGcrUAmWKbB9KaRQKIYZUAmBLfB2XIpQHNOFsCx4ZLBiGeH
QJuaYEAhaqPB10lZQPYvh0D5E5PBHkeLQE1yqr/ds6HBcgG0QNmYTsDigqDBbhbhQGrJAUHUC63B
HJjnQLEuB0D2UbvBBFK5QIc8qUCHvZjBzOFAPzR8lMDbKnvBNJ/KQLz5AsDxwa/BlCH0QBcR2b4o
mLrBeAtDQDRPvcCbJofB3cqUQHVUosAk6ZTBH5mGQMsYmD9W0KDBsJB3P2nJCcD65YjBew0GQfX9
t0AF863B6kEHQVjcsUB0rJ/ByJyOQFI/v0BbyqvBn/u2QEYkwUBWArbB6tvlQLosXEBToKTBcqbj
QHxtgUDDJbLBsy7wQM8F+UBiB53BSIcOQVwI/UAG9KXBQ3GhQLTlBEEMqbHB9TyqQB46AEENp6PB
nO6HQLBglEBMGrfBJhCoQEwGWUDdob3Bm3RqQItGPEDy97fBw1JVQNt+RUDDWqTBC8JdQDb/mUBQ
oYzBT00mQHpzaEAPCJTBhLBdQLqtcr+BsJ/B

>  <OMEGA_E>  (12) 
kMf3PqYMDT/82xA/

>  <OMEGA_NBR>  (12) 
    100125

$$$$
450315
     RDKit          3D

 53 56  0  0  1  0  0  0  0  0999 V2000
    5.9969   -0.9161  -21.9842 C   0  0  0  0  0  0  0  0  0  0  0  0
    6.6867   -0.0192  -22.8103 C   0  0  0  0  0  0  0  0  0  0  0  0
    3.0283   -4.8479  -17.2212 C   0  0  0  0  0  0  0  0  0  0  0  0
    3.9142   -4.3623  -18.1922 C   0  0  0  0  0  0  0  0  0  0  0  0
    4.8927    0.9493  -20.8821 C   0  0  0  0  0  0  0  0  0  0  0  0
    1.8048   -2.7547  -17.3811 C   0  0  0  0  0  0  0  0  0  0  0  0
    5.5612    1.8652  -21.7163 C   0  0  0  0  0  0  0  0  0  0  0  0
    5.1104   -0.4229  -21.0017 C   0  0  0  0  0  0  0  0  0  0  0  0
    6.4889    1.3635  -22.6759 C   0  0  0  0  0  0  0  0  0  0  0  0
    1.9586   -4.0339  -16.8154 C   0  0  0  0  0  0  0  0  0  0  0  0
    3.7073   -3.0701  -18.7267 C   0  0  0  0  0  0  0  0  0  0  0  0
    4.3525    3.9906  -19.2077 C   0  0  0  0  0  0  0  0  0  0  0  0
    4.6155   -2.5245  -19.7427 C   0  0  0  0  0  0  0  0  0  0  0  0
    8.4311    4.5939  -19.0508 C   0  0  0  0  0  0  0  0  0  0  0  0
    6.8606    6.0066  -20.4919 C   0  0  0  0  0  0  0  0  0  0  0  0
    6.9063    3.4852  -20.6173 C   0  0  0  0  0  0  0  0  0  0  0  0
    8.6686    5.8004  -18.1205 C   0  0  0  0  0  0  0  0  0  0  0  0
    7.7679    7.1166  -19.9547 C   0  0  0  0  0  0  0  0  0  0  0  0
    5.5365    3.3442  -21.3401 C   0  0  1  0  0  0  0  0  0  0  0  0
    7.0327    4.6741  -19.6991 C   0  0  0  0  0  0  0  0  0  0  0  0
    5.3777    4.2309  -22.6104 C   0  0  0  0  0  0  0  0  0  0  0  0
    2.6671   -2.2966  -18.3119 N   0  0  0  0  0  0  0  0  0  0  0  0
    4.3388    3.6731  -20.4845 N   0  0  0  0  0  0  0  0  0  0  0  0
    3.1563    3.9657  -18.5082 N   0  0  0  0  0  0  0  0  0  0  0  0
    4.3890   -1.2120  -20.1223 N   0  0  0  0  0  0  0  0  0  0  0  0
    5.5582   -3.1869  -20.1622 O   0  0  0  0  0  0  0  0  0  0  0  0
    7.9133    6.9728  -18.5307 O   0  0  0  0  0  0  0  0  0  0  0  0
    7.2533    2.1832  -23.4334 F   0  0  0  0  0  0  0  0  0  0  0  0
    5.7915    4.5042  -18.3535 S   0  0  0  0  0  0  0  0  0  0  0  0
    0.8226   -4.6055  -15.6272 Cl  0  0  0  0  0  0  0  0  0  0  0  0
    6.1424   -1.9802  -22.0983 H   0  0  0  0  0  0  0  0  0  0  0  0
    7.3741   -0.3938  -23.5543 H   0  0  0  0  0  0  0  0  0  0  0  0
    3.1658   -5.8297  -16.7929 H   0  0  0  0  0  0  0  0  0  0  0  0
    4.7437   -4.9671  -18.5277 H   0  0  0  0  0  0  0  0  0  0  0  0
    4.2005    1.3150  -20.1381 H   0  0  0  0  0  0  0  0  0  0  0  0
    0.9829   -2.1295  -17.0650 H   0  0  0  0  0  0  0  0  0  0  0  0
    9.1962    4.5908  -19.8412 H   0  0  0  0  0  0  0  0  0  0  0  0
    8.5052    3.6658  -18.4651 H   0  0  0  0  0  0  0  0  0  0  0  0
    5.8136    6.3344  -20.4120 H   0  0  0  0  0  0  0  0  0  0  0  0
    7.1086    5.8257  -21.5482 H   0  0  0  0  0  0  0  0  0  0  0  0
    7.0703    2.5761  -20.0201 H   0  0  0  0  0  0  0  0  0  0  0  0
    7.6891    3.5652  -21.3859 H   0  0  0  0  0  0  0  0  0  0  0  0
    8.3660    5.5244  -17.0996 H   0  0  0  0  0  0  0  0  0  0  0  0
    9.7401    6.0490  -18.1308 H   0  0  0  0  0  0  0  0  0  0  0  0
    8.7561    7.0455  -20.4328 H   0  0  0  0  0  0  0  0  0  0  0  0
    7.3212    8.0962  -20.1802 H   0  0  0  0  0  0  0  0  0  0  0  0
    5.3621    5.2914  -22.3184 H   0  0  0  0  0  0  0  0  0  0  0  0
    6.2227    4.0507  -23.2912 H   0  0  0  0  0  0  0  0  0  0  0  0
    4.4361    3.9770  -23.1193 H   0  0  0  0  0  0  0  0  0  0  0  0
    3.4451    3.6473  -20.9324 H   0  0  0  0  0  0  0  0  0  0  0  0
    3.1342    4.2361  -17.5457 H   0  0  0  0  0  0  0  0  0  0  0  0
    2.3153    3.6773  -18.9660 H   0  0  0  0  0  0  0  0  0  0  0  0
    3.5941   -0.7735  -19.7030 H   0  0  0  0  0  0  0  0  0  0  0  0
  1  2  2  0
  1  8  1  0
  2  9  1  0
  3  4  2  0
  3 10  1  0
  4 11  1  0
  5  7  1  0
  5  8  2  0
  6 10  2  0
  6 22  1  0
  7  9  2  0
  7 19  1  0
  8 25  1  0
  9 28  1  0
 10 30  1  0
 11 13  1  0
 11 22  2  0
 12 23  2  0
 12 24  1  0
 12 29  1  0
 13 25  1  0
 13 26  2  0
 14 17  1  0
 14 20  1  0
 15 18  1  0
 15 20  1  0
 16 19  1  0
 16 20  1  0
 17 27  1  0
 18 27  1  0
 19 21  1  6
 19 23  1  0
 20 29  1  0
  1 31  1  0
  2 32  1  0
  3 33  1  0
  4 34  1  0
  5 35  1  0
  6 36  1  0
 14 37  1  0
 14 38  1  0
 15 39  1  0
 15 40  1  0
 16 41  1  0
 16 42  1  0
 17 43  1  0
 17 44  1  0
 18 45  1  0
 18 46  1  0
 21 47  1  0
 21 48  1  0
 21 49  1  0
 23 50  1  0
 24 51  1  0
 24 52  1  0
 25 53  1  0
M  CHG  1  23   1
M  END
>  <OMEGA_C>  (13) 
V+a/QKCIar+936/BJPnVQOBznbyLe7bBUNBBQKchm8DwxInB1YF6QBOYi8CbiZHBG5GcQJcIcz+h
DqfB5APnP8NNMMCWDIvBi/WxQGbA7j/7uq3Bv4ijQDyJ2L6HA6jBuaTPQJqGrj8vaLXBALX6PwEW
gcAGhobBiERtQAt8RMBW0JXBc0eLQIllf0BGqZnBY7KTQGGRIcD58J3Bv+UGQT4Bk0AkaJjB34nb
QEc2wEBz76PBzgDdQCMOX0Aw8KTBvLIKQfOcuUDb9pDBCZP4QI6740Ayo5/BsSqxQA8HVkB+uKrB
GwzhQB+SlUDbl53BBBasQO9jh0AX4rTBkrIqQOT7EsDafpLBcdeKQNcTa0Bb4KPBXAFKQM/NfUDR
EJTB33KMQPAjm79/+qDBK92xQJr1S8A+TKHBaTn9QNwg30DpPpTBMhvoQOu5C0CTd7vBs1O5QFQi
kEDn05LB5ZJSP55gk8DzCHrBVY7EQEp3/b9dybDBbfjrQOKkyb4+b7zBdpxKQBiNusDFV4bBVMyX
QFLynsC0OJTB5GqGQI9SqD/WGqHBz6B7P2lJCMAdhYjBoSMTQbjnkkC1up7BShUIQSScakCIuJPB
1gi6QASzykDRS6PBW3njQAtsukC/YqzBEEDiQELfJEAnKaDBhA32QJ4rZEBmFqvBQNsFQRbIsEAH
zIjBkdcbQXKRwUDiC5HB3xgMQfZ04UBKdqPBE0fqQBWKAUH8cKHBJJarQM5SqUD8i7LBFyDHQA+f
gUBmVLrB0fSNQKCHfkBd9LjBw3tcQK5taUCFdafBGpdIQAuOh0ChXYzBeC4UQFJZa0BgupfBbwVm
QDkGRr/Wn53BW6fIQL8wWL8c663B69DfQHAPhj1ZL7TBMf81QItYnMChv4rByZBvQHY3jcBOe5LB
GgyfQH7gfz/CpabBJ9LjPyj2LMDq5IrB9GC1QKHm9z82EK3BW2uoQCh0vr4G9abB9q7WQH+yuD9K
z7PBnxDtPw2GgMBk5YbBwVxoQK7xRMBbIZbBACKLQK9wg0Dy25rBIdmSQAwOIsCK9p3BjmHvQBij
SUDscZzBQWMCQW+nsUCb56DBTj3MQFIBj0BxtavBBd8EQYzdUUBbPpLBVQEPQcp5sUAiZJbBJkun
QAz0W0Cp8KzBnoffQOk3kUDkdqDBDpuSQOoGb0Dv4LfBVO8pQPpxEMAwUJLBt6SEQFbAa0C7tqTB
8axdQF7tbkDJ25LBDT+PQKOllr9pW6DBsR6vQBi2T8C3p6HB4BQWQUaShkBlAZTBmyjuQPRPEEDJ
JLrBPsK1QKggpUDvi5fBnnI5P5OukcCMWnrB4WzPQBJt879Kaa7Bt/f4QP3zlr68XLnBrWY6QKbG
vMBB0IfBG22QQF/xocCNnpXB1hqGQEjxrD+kXqHBnlGBP8BzAsD2+YfBo6ABQSMQLEBzsqLBgnjT
QOq2IEAw1prB4cH3QOrj0UBxSKLBuiwNQSoIqUD+g6fBXtflQOxUhkBwWLHB4LG/QD3crkD/wK3B
OkH1QNRmaUByuIvBWnULQTvyEkBFEZDBbv8cQeCaxkCiKJfBCLAEQQEMvUAH4I/B6jGIQLkfmUDd
ILjBlBWqQMB7Y0A8Rr7BQYxtQPPwRECXCrnBtspMQMG5YEB87qbBViFmQCEUgkDJYovBEGcsQHtr
SEB0j5TBQ65tQLwyNb+Sy5zBZqDEQEy9fL8a/K7BwqfbQFw7lb3/LbXBwyQ8QJyMncBLcorBa6V1
QJljjsA7JZLBDtidQJIZWD+RlabBbvjiP2/dMsArfIvBHg60QLdI4z++36zBCn6lQA/KBL+ZtqfB
qArTQLkopj94YLTBWKTyPzK0gsA9FofBVchqQOBMScDnPpbBPOWMQAFmh0BlsprBcHuTQGIQJ8Cs
H57BpHn8QO4lwEAoVabB8tmvQIFZyEAHla3BKLPSQLdIgEC3cKrBMEr8QAq48EDiBqXBwuK0QJY6
+EDJyKvB2POnQPoiUEAuK6zBOGvOQMGcrUAmWKbB9KaRQKIYZUAmBLfB2XIpQHNOFsCx4ZLBiGeH
QJuaYEAhaqPB10lZQPYvh0D5E5PBHkeLQE1yqr/ds6HBcgG0QNmYTsDigqDBbhbhQGrJAUHUC63B
HJjnQLEuB0D2UbvBBFK5QIc8qUCHvZjBzOFAPzR8lMDbKnvBNJ/KQLz5AsDxwa/BlCH0QBcR2b4o
mLrBeAtDQDRPvcCbJofB3cqUQHVUosAk6ZTBH5mGQMsYmD9W0KDBsJB3P2nJCcD65YjBew0GQfX9
t0AF863B6kEHQVjcsUB0rJ/ByJyOQFI/v0BbyqvBn/u2QEYkwUBWArbB6tvlQLosXEBToKTBcqbj
QHxtgUDDJbLBsy7wQM8F+UBiB53BSIcOQVwI/UAG9KXBQ3GhQLTlBEEMqbHB9TyqQB46AEENp6PB
nO6HQLBglEBMGrfBJhCoQEwGWUDdob3Bm3RqQItGPEDy97fBw1JVQNt+RUDDWqTBC8JdQDb/mUBQ
oYzBT00mQHpzaEAPCJTBhLBdQLqtcr+BsJ/B

>  <OMEGA_E>  (13) 
kMf3PqYMDT/82xA/

>  <OMEGA_NBR>  (13) 
    103087

$$$$
50495912
     RDKit          3D

 46 49  0  0  1  0  0  0  0  0999 V2000
    5.0432    0.0637  -20.4618 C   0  0  0  0  0  0  0  0  0  0  0  0
    7.0176   -0.8122  -22.2632 C   0  0  0  0  0  0  0  0  0  0  0  0
    5.5164   -3.1827  -18.8522 C   0  0  0  0  0  0  0  0  0  0  0  0
    3.3492   -2.2481  -19.3737 C   0  0  0  0  0  0  0  0  0  0  0  0
    8.5697    4.4351  -17.3318 C   0  0  0  0  0  0  0  0  0  0  0  0
    3.5785   -3.9878  -17.8268 C   0  0  0  0  0  0  0  0  0  0  0  0
    5.3786   -1.3075  -20.5218 C   0  0  0  0  0  0  0  0  0  0  0  0
    4.7415   -2.2597  -19.5862 C   0  0  0  0  0  0  0  0  0  0  0  0
    5.7578    1.0167  -21.2336 C   0  0  0  0  0  0  0  0  0  0  0  0
    8.3805    3.4147  -18.3718 C   0  0  0  0  0  0  0  0  0  0  0  0
    6.3604   -1.7442  -21.4417 C   0  0  0  0  0  0  0  0  0  0  0  0
    6.7290    0.5597  -22.1560 C   0  0  0  0  0  0  0  0  0  0  0  0
    9.6312    2.9021  -18.6509 C   0  0  0  0  0  0  0  0  0  0  0  0
    4.2836    3.2806  -18.9991 C   0  0  0  0  0  0  0  0  0  0  0  0
    6.8743    3.1503  -20.3827 C   0  0  0  0  0  0  0  0  0  0  0  0
    5.5936    2.5291  -21.0106 C   0  0  2  0  0  0  0  0  0  0  0  0
    7.0379    2.8932  -18.8594 C   0  0  1  0  0  0  0  0  0  0  0  0
   10.0400    1.7781  -19.5891 C   0  0  0  0  0  0  0  0  0  0  0  0
    6.9419    1.4163  -18.3949 C   0  0  0  0  0  0  0  0  0  0  0  0
    4.9249   -4.0290  -17.9827 N   0  0  0  0  0  0  0  0  0  0  0  0
    2.7881   -3.1184  -18.5056 N   0  0  0  0  0  0  0  0  0  0  0  0
    9.8421    4.4878  -17.0399 N   0  0  0  0  0  0  0  0  0  0  0  0
    4.3459    2.8728  -20.2530 N   0  0  0  0  0  0  0  0  0  0  0  0
    3.0467    3.3283  -18.3822 N   0  0  0  0  0  0  0  0  0  0  0  0
   10.5194    3.5574  -17.8556 O   0  0  0  0  0  0  0  0  0  0  0  0
    6.6531   -3.0596  -21.5759 F   0  0  0  0  0  0  0  0  0  0  0  0
    7.4014    1.4345  -22.9407 F   0  0  0  0  0  0  0  0  0  0  0  0
    5.6763    3.7983  -18.0601 S   0  0  0  0  0  0  0  0  0  0  0  0
    4.2358    0.3897  -19.8228 H   0  0  0  0  0  0  0  0  0  0  0  0
    7.7489   -1.1520  -22.9816 H   0  0  0  0  0  0  0  0  0  0  0  0
    6.5876   -3.2121  -18.9866 H   0  0  0  0  0  0  0  0  0  0  0  0
    2.7288   -1.5421  -19.9057 H   0  0  0  0  0  0  0  0  0  0  0  0
    7.7918    5.0372  -16.8859 H   0  0  0  0  0  0  0  0  0  0  0  0
    3.1162   -4.6752  -17.1338 H   0  0  0  0  0  0  0  0  0  0  0  0
    7.7491    2.7269  -20.8980 H   0  0  0  0  0  0  0  0  0  0  0  0
    6.8435    4.2377  -20.5458 H   0  0  0  0  0  0  0  0  0  0  0  0
    5.4929    2.9799  -22.0090 H   0  0  0  0  0  0  0  0  0  0  0  0
   11.1234    1.6068  -19.5068 H   0  0  0  0  0  0  0  0  0  0  0  0
    9.5017    0.8585  -19.3158 H   0  0  0  0  0  0  0  0  0  0  0  0
    9.7902    2.0553  -20.6239 H   0  0  0  0  0  0  0  0  0  0  0  0
    5.9831    0.9894  -18.7242 H   0  0  0  0  0  0  0  0  0  0  0  0
    7.7697    0.8397  -18.8332 H   0  0  0  0  0  0  0  0  0  0  0  0
    7.0051    1.3724  -17.2975 H   0  0  0  0  0  0  0  0  0  0  0  0
    3.4793    2.7847  -20.7440 H   0  0  0  0  0  0  0  0  0  0  0  0
    2.9710    3.6483  -17.4378 H   0  0  0  0  0  0  0  0  0  0  0  0
    2.2281    3.0427  -18.8805 H   0  0  0  0  0  0  0  0  0  0  0  0
  1  7  2  0
  1  9  1  0
  2 11  2  0
  2 12  1  0
  3  8  2  0
  3 20  1  0
  4  8  1  0
  4 21  2  0
  5 10  1  0
  5 22  2  0
  6 20  2  0
  6 21  1  0
  7  8  1  0
  7 11  1  0
  9 12  2  0
  9 16  1  0
 10 13  2  0
 10 17  1  0
 11 26  1  0
 12 27  1  0
 13 18  1  0
 13 25  1  0
 14 23  2  0
 14 24  1  0
 14 28  1  0
 15 16  1  0
 15 17  1  0
 16 23  1  0
 17 19  1  6
 17 28  1  0
 22 25  1  0
  1 29  1  0
  2 30  1  0
  3 31  1  0
  4 32  1  0
  5 33  1  0
  6 34  1  0
 15 35  1  0
 15 36  1  0
 16 37  1  6
 18 38  1  0
 18 39  1  0
 18 40  1  0
 19 41  1  0
 19 42  1  0
 19 43  1  0
 23 44  1  0
 24 45  1  0
 24 46  1  0
M  CHG  1  23   1
M  END
>  <OMEGA_C>  (14) 
72GhQEiIgj22saPBxo/gQL7sT78fG7LBtIawQAuxS8BM0ZbB3FlWQEHhD8BE/ZrBWh0JQarsjUBw
p4rBCQZlQDA4f8AznY7B2R2sQNVap7+7LKTBnrqXQA+fEMCRsJzB4T+4QCMigj9V3qnBoBYGQXGK
WkB0+ZLBnYjLQOhC37+riKvBSFTXQBhIDz97P7HBhBkaQae7OUAjNZXBIhOJQJj1UUAs/pfBSvrb
QESeSUDTD6PBnv6yQDDcIUDMFajBNjbhQBMqOUAk4JbBqqMgQSKY4z9/tpzByyPeQK9KtT+oKJPB
hZidQHDtgMCb3I/BynAyQFqTR8CNC5TBQ3kdQUicj0C/UYjB4hGLQIDbN0AUBqLBBP1CQDcCVUCl
DpPBU08oQXmsY0A22I7BiubUQErRQ8CJm6zBVdjsQLeetz98hrfBqKS1QHEXc0Aqe5DBiIuHQJuA
xz4olZ7BCff3QDl2k79O2rfB7M3SQH2TTcCm5JfBn6QuQCRkxb/JPp/Bh1b5QPswoUA5FofB7G9H
QBmblcABEonBYPj3QPCELkAXL6fBS/7aQDybh0C8XaTBkMWvQDK2PkBYErDBkPkxQduszT8HDpzB
HgcYQabHWz+thprBrKQcQZOJA0C+/aTBXnW/QJZJfT8Ty5XBg6H4QCr0Vj9PqpbBaingQEWsrz9g
YYrBbqxeQA04MkDF86XB1CQ+QPN8aUCIgIvBjpgOQOe7QkAtC5fBn0WkQFC7uT1gUqPB0K/lQAQz
SL8YFrHBKeFaQJGTBcCLM5rBFO6vQCZtUMACCpfBee8ZQXLAXUAUu5TBHdNgQOVSfMBH347BZNCv
QMz1or+2fKPBr56ZQDfsDcBNQZzBECq6QMR9hD/kuqnBf+MEQewtgUCEOpfBBWbQQJDM2r/njKrB
A9zaQPxwFD+CubDBWtMHQVyarEAVgpjBu/yIQCnsTkAVIZjBgZHXQIJRVUA2J6XB4jywQNU8IkAR
4ajBL5vhQDNuTkCvEZnBJdjvQBhoz0ARkJvBxJroQEjL4z8X7pTBzwgzQIEAPcAXl5PBtAWbQAJI
g8C/dJDBZb0nQfAdjkCQRpTBCUKJQMNeNkC8QKLBnRRGQNHDSUAgdZLBh90cQYajtED6j5bB4Vba
QBdUQcByjavB4vvvQC5Ptz+IRrfBmmu1QAsxekAmdZHBZmCKQP4X1j4kPJ7BCZj+QLsyj7+ob7bB
hPg2QOA/pb9N753BEeXRQJAEWMC1UpjByWIdQTfCGkCqfJPBfAlAQKw4lMBOoonBUJTzQM33PUCz
nKnBMRrSQG6VjEDWD6fBizqpQIAhOEClDrHBZisAQfh57kDD4ZvBwA7iQA0kyEANdKPBoCLWQNXA
0EC1j5XBImnLQHUTmD9YQ5bBSrsBQUHjqD8LRJnBOervQLon5z8RU4zBb6xZQL+cMECk26XB4Y9D
QMI+XkB+4orBw8IRQNeOMUCh7pXBqNqjQBIBxz1/QaPBWP/gQHSfR7/vKLLBVP5aQKsgBMDFfpnB
1FivQIwaVMDV5pfBcnkGQbDMkkDqmonBFb5jQAV5fcBZnY7BCMmtQAfTo79o6aPB0rGYQPP5DsAI
e5zBlDW6QLM2hj8uianBLucEQZrWYUCXupHBkj3MQHmo279zj6vB8GDYQAQDGD+hHrHB+VcZQZSB
QkC7KJPBxQCIQMm/T0DMHZjBXCrdQPOPS0B5aKLBNue0QFHFI0CSzafBoETgQPL2PED4IJbB+zgh
Qb0z8z9JKprBPB/eQH/RvD/JYJLB/4c1QBR8O8DEpZLBqp2bQNgihcAmFpHBE2waQTKHlUBcjobB
s+KLQM2oOUAZP6LB9cs/QJSITEAXc5PBSmsmQYbkbkDTc4zBbrvUQBQFQsCRAK3BWzDtQBWmvD/I
frfB/a2yQLGCdEB+P5DBseaKQBlv2z7w5Z3BE733QGsyj7/lErjB3Z02QMWDnr9EtJzB/6jQQK6t
XcCV3ZnBMszyQGsYpkCXqobBasNEQC/RlMBvNonBd7j5QP9aL0DrJ6bBsrzcQKN6iECg4qPBShGz
QJN4QEBP06/BTncyQacr4D9k3ZjBAZMYQXVWej8vFpjBTlQeQepRCUDCnqLBaYPAQK6igT9TX5XB
Kez5QDUgbT9yhJXBLGveQJcmuD9OlYnBQShiQGZPN0D+mqbBrhA4QNDPXkAM2IvBTIsNQD3uN0B4
rpfBPv2hQDjyez28q6PBckHhQJZqTL9sE7LB9KVZQKQ3CMAYz5nBItavQEl8U8B4uJfBZc8JQUtq
nUB1k5PBncpkQLaef8DDoI7BmvusQD92p7+rGKTBjFyYQPe5EMBylZzBdhC5QMVVgj8QuKnBN5YE
QdlmYECjypHBaGjMQJFO3r8LhavBZBbYQOxNEj/nHrHBO/QUQQlNP0DYjYvBTh+IQN50U0BsJZjB
wnndQBpzRUAyQqLBKn+0QIaPIUCwvqfBMoPfQPaTOUBk75XBtTUZQSu+yz/+OofBUmfZQGY4uT8b
FpLBSAc1QJbQP8C965LBzIacQOPwhMBf3JDBtGcbQRlApkA3aI7BQKWLQMjGOECLH6LBoiJAQDVI
U0CkbJPBdnkiQXiYgEBXVInBmNTVQFccQ8BKxqzBCortQKmDuj+qUbfBXJOzQKKGd0Deb5DBK7aH
QLbMwz5Crp7Bynr4QEEQkb//4rfBPhI0QPz1qb/HNZ3BCnHRQPYKW8CugJnB16UAQUees0A5W5jB
hHJGQDIKlsA5NYnBI1n5QKfwJECgxqXBcEnfQJUyhUDD+qPBJh6zQD6/P0D4r6/BdfsnQaWozD91
coLBCrcLQfthoz8ALYLBJgEbQYWvYz+F8Y3BSBm7QCiBhj9mP5XBLCD0QDMiVD9G+ZTBUqPYQK1t
tj9ISonBiSNhQCyGM0ARVqbB8jI5QEc9Z0B234vBNy8NQN0yP0BakJfBeqCgQDDnKj1M66PBaM7g
QFE0Ub83HLLBnMCwQJPsS8DXuJbBvONWQCOyEMBmEpvBE1MLQcfpmkCe7pTBB/tkQEbBf8BeqY7B
RmCsQMAOqb8tMaTBWw2YQCM0EcCVrJzBu2m3QKNyfz+uCqrBML8FQS+5W0AqMpPBJmjMQHj53784
a6vB57HWQE2mDD/iZbHBW/8WQU4bN0Cr8Y3BaPuIQHxVVEBzDpjB70HcQPicREDp/KLBK6KyQMZM
IECOEqjBm2rgQJ+QN0DZu5bB+HEbQSbZtz9hTIrB3/jZQP53tT+C1ZLB5qCdQJQQgcC7zY/Bg6Qy
QMtVSMCeKJTBi/wdQUYPokCjmpDBy8SKQF8uN0C/96HBsyNDQB1HV0ARA5PBYl8lQTLZdkChIYzB
+tfWQJvLQ8DESqzBM8vrQGoQtz/6t7fBuAm2QFQGd0BrxpDBuA+GQMEqtz4+AZ/BIGH4QMGIk7+M
1LfBNBTTQKiBTcB0tJfBEF0vQFRhx78qYp/ByaIBQWQ2skD6FZnBxxtHQGXmlcAAJonBjLD3QDsf
JUB+2abBfWDdQEfhhED5naTBbM6vQAdjPkA0/6/Bkx8rQbaFsj9KUIbBmOsOQbQDjz/WqoTB0YAb
QRg6RD9fR5HBmqG6QH5Ihj+li5XBMWjzQK1eRz/mIZbBd0vbQJ4Vsj/zCorBGcxdQLGWL0BXyKXB
gcg+QL2SbEDNfIvBIo8OQNkbRECK5JbBlnenQMoOPD0xYKLBgMTkQKQKUr/SSbHBx8RfQJikBMC/
2pjBrt6uQEMGXsDDLZjBgscCQaA9vUAo85vB2pZgQB5TgsCKMY/B8WWxQEeSqr8mF6PBRaaaQAxE
E8C+CpzBrgq8QH7Wfz/gA6nBFAkEQRtQkECBaZjBGYDQQAlF4b/doqrBwILaQLWtCz8MmLDBcKAY
QdsSi0B/g5TBbAeIQLPaWEB5dJjBrSPXQCN9WkD0iKXBWIOwQG3ZH0BMb6jBDgniQETPYUB/eJnB
rgMkQWS/SECt8I/B02TqQM+BCUAaN5TBD+02QKg9PcCne5LB02eZQE3SisAo6JHBHykVQWXVz0A4
F5rBiYGJQN9kMEDNtqHBsZZCQKmdWkCUCpPBPNUiQRF0sUC4ZZXBEi7aQPBwRMDc+qvBkqztQMAE
tD+gcbfBiJezQHJoiECgvZLBTsmPQHVDwT5Nq5zBXHf8QORgk78h/rbB0tI+QBiSl7+giJvBPMzP
QFq+asATRJrBPuXpQGdWzEAIf5/Bcdg+QH/vmMD4M4rBgo3zQNtFQUDwqanBEgrQQHKZjUAFg6jB
O5mnQJ/uMUBvpLDBh3o0QbJdWkCGvo3BSnAbQbE0MkBryojB0GMkQcB0FUAG95XBZSTOQM2/wD/4
RZXBsiYDQUN61j8QBJjBDq7wQPg+EkA6oIvBpWZbQJ1kGkASkKTBe3M9QDzHekCeJ4zByt8PQDa5
O0BfBpbBOaSmQHpfGz1+HaLBHGTUQDxwVb8mL7TBbLRYQJJmDsBnwpnBM9SwQLEBVcBq7pfB7p4Y
QRgjO0DZd43BlG9pQO6WgsBuk47BavqqQMbYq783IaTBbdyXQA3kE8BHnpzBThC7QAvTfT8puqjB
AscDQZlcZUAEAI/BqqvBQCbG478dRa3BDY7RQNtaCz9L5LHBMc8GQQrbnECs9IvBIzWHQNwpVEC4
yJfBhH/gQLmxQUDf75/BKvG4QH2BH0BSM6bBhnvfQINCOEA8ipPBZ73vQNkDw0D6a4zBeMrfQMYc
sz+5wo/BQ642QMiBR8Am2ZLBJPKeQOk2hsAe8pDB6QUmQSWTckBoYonBfqmOQOQqN0DMf6HBFS86
QJwRZUAUB5XBtzwbQYKNoECWRYjBtGzEQA1PRsADqq/BjOTjQFWHtz+Kp7jBJrKuQBE4aUBYDI7B
BnuTQIcpvj4ccJvB2QHlQJcylb+UR7vBiBoxQO7iuL83GZ3BuVXSQICYWsAo7pnBez4cQeCr8j83
ZY/B2mxNQN0xmcC2DonBVNL8QPshH0A84KLB38PjQM4cg0BBx6HBN0u6QCm4P0CSBK7BpTgAQUqc
30BdcInBWJ/lQP1fyEBGvpTBynTTQPTAvEAvbIfB5W3DQH26YT8r7ZLB0eX8QG4YZz8YtpLBM0bf
QALGrj8894bB+VNqQIw7MEAwQabB3lMsQNI4fED+xY3BAEMLQCkdWkD/SprBCIOmQHw/tDwBk6LB
gKngQCDgW78DQ7LBpiWaQFihDcASrJHB9ft/QDvqV8CsVqHBJTQaQSJWhEA8/pTB9WBdQNNog8Bg
HpDBx7euQICjrb8XzKPBfEKYQNO3FMDt5JzBqdO6QAxheT+KRanBcZsEQaMkj0CF2ZjBfCLMQL3w
5b8UoqvBwMrXQE/wAz+nN7HBhXUFQZDouUDUuJvBKIyJQNuNVUDIE5jBVnnXQDJdV0Bky6XBDyaw
QB9OHkAYdKjBdWXjQMpLX0Bzy5nB06/oQAMh10CAR6DBwhHvQOQqB0DPz5TB3JqFQBIoR8C8covB
E8xWQB3bh8CC45rBBTUmQWSRpkAAl5XBH+2JQNlcL0AIfaHBSFBGQKkcWECbhZLBjq8ZQS4QyEBs
wpnB/3fVQFkzR8BTu6zBF9zqQOSusD9CDrjBUeK1QBz4hEB5SZLBioOQQBFBtj41eJzBqWD3QMX2
mL8sMbjBJQqsQJJHtL93CY7BH7d7QNbOXsA+66nBGEofQbqpSkCSJZLBNsY8QG8omsCuDIvBI0/z
QAShPEDiBKrBd9TQQKgOjECr0qjBdHqmQN5aMUCrkrDB3yb2QAVA90ChjaHBQ1TdQN0qykDV86fB
acDNQLsl2UDxoprB5q7TQLW5tj82k5XBpmsFQbQ/2D8lCJnBmfT2QAioD0AkTYzBd0dbQEyVG0CY
S6TBYMhCQOPTdkBxhIvBL3oSQJ09O0A8hZXBtcKmQD6KU7ywuKLBNPTOQIylUL/KybXB6+OnQFlA
G8AIAJPBaAxxQB+VUcB/t6DBI2cXQYNjNUDZ+4rBoJtxQCQJhsC2f4/B7PKpQGLXsL8NM6XBesCY
QF7EF8DMnJ3BAPO4QOn2dj+6fanBxGEFQbvhYEBYT5DBAJ+9QJ5x5L+e2q7B1gLNQKKtDT8DGrPB
hi0LQXsbm0AV75DBfxSJQPk4UUBicJfBfsbgQMXQO0Ba36DB82e3QP7kHEBfm6bBj67hQJEKNUAB
bJTBXO/+QBsQwUC5uJXB6C/gQED4rT8VZJDBHOuXQN7MVcDvHozBRrJRQKBJhcCBmZnBBvYlQbhq
bkBCmojBuTGOQLJzM0CKNqHBwzA/QCMZX0DB55PB8rkeQRJJn0BWO4zB6qXAQOA1RsBTcLHB9Ofd
QPTxuz+64rnBND6zQAZHbEBTrY7BNjCWQM2rlj6FjJvBlczdQER/j79JMr3BUEnAQNki3r8xXZDB
e6FYQDZgUMBdzKjBB2oYQXxa4z/2UonBJWpYQAM0ncAU6onB/Zb7QKyVFUAv+6PBEZXlQFx8f0AS
+6LByAy3QK4EP0C0Ta7Bxy0JQUwi3kBis5TB/2z5QORbu0CcS57BFAbgQJc4xUBvpJHBMODCQICu
Xz+iVZPBv1L8QFOeUD9iZJPBjFDgQM+arD9nl4fByhJnQGz6KkCRgqXB6+U0QNiad0C8oIzB1qUN
QCOZUEBiopjBpDqnQHADrbv/qKLBBCnPQEeCT7+Jw7XBWuqnQNPwGsDs9pLBfX1xQJQ4UcDpuaDB
L80VQa94hUA+qZbBv5JxQN/mhcCWg4/B3jeqQP37r7++KKXBwOyYQIliF8Chlp3Bmym5QD3keD9U
fKnBqHcFQQXkXkCALZDBjcy9QBK8479R067BBi/NQBEBDz8HGbPBSFwMQXmzZUB3sIXBoSCJQDaI
UEAEbpfB0e7fQJkgP0Cq9KDBHxO3QEyaHUAXrabBOCviQDZFM0CjjZTB/CsCQcOfRUAJ33bBLn7i
QJSKpj+2PJHBt9mXQGuJVcDpGozBVPNRQBIihcDhoJnBzMAkQbTck0CqSJDBEPaNQB9AM0CpO6HB
SXo/QK9+X0Dk5JPB+EQfQVmCiEBFvoXBoczAQAjiRcBMaLHB+gPeQCVivD/S57nBk5SzQNBRaUDo
mI7B8gaXQNbFmj6bb5vBAg/eQJsZj79qKb3BPkbAQCuM3b+GTZDBpE1ZQKb6T8CI0ajBV3oVQTEf
iUBSQJ/BUzpYQC8VncCb8YnB+I/7QOidHUAscqTBqX3iQPMFgkAooqLB20W2QHRIP0CwZq7BoFQM
Qd8EV0A6LGnBppPkQCT3YkCp9HTB238AQaE1/z/Zm3fBbo7FQAG4Tj9UUpTBhgb/QEStTz91lZTB
4SLjQJ2wnD/PdYjBmm1mQHSVKkAxfaXBxX01QGZ6d0A2lYzB4sQNQFNNUkDWp5jB

>  <OMEGA_E>  (14) 
pHHmPtTV9j6saPY+CFnuPhDj5j7Aygg/EE0HPyoGTT+Wbks/itJKPw==

>  <OMEGA_NBR>  (14) 
     15852

$$$$
