50164882
     RDKit          3D

 54 55  0  0  1  0  0  0  0  0999 V2000
    7.7489    4.7186  -20.0607 C   0  0  0  0  0  0  0  0  0  0  0  0
    8.2504    4.9242  -21.3608 C   0  0  0  0  0  0  0  0  0  0  0  0
    6.0380    4.4549  -22.2982 C   0  0  0  0  0  0  0  0  0  0  0  0
    5.5489    4.2305  -20.9982 C   0  0  0  0  0  0  0  0  0  0  0  0
    6.3927    4.3766  -19.8926 C   0  0  0  0  0  0  0  0  0  0  0  0
    7.3941    4.8021  -22.4774 C   0  0  0  0  0  0  0  0  0  0  0  0
    4.3362    3.7665  -19.2209 C   0  0  0  0  0  0  0  0  0  0  0  0
    6.7320    1.7749  -17.4879 C   0  0  0  0  0  0  0  0  0  0  0  0
    7.6021   -1.0782  -17.9336 C   0  0  0  0  0  0  0  0  0  0  0  0
    5.4928    6.6538  -17.0701 C   0  0  0  0  0  0  0  0  0  0  0  0
    5.9708   -1.2401  -22.8093 C   0  0  0  0  0  0  0  0  0  0  0  0
    7.1870    0.9800  -22.8052 C   0  0  0  0  0  0  0  0  0  0  0  0
    4.6678    0.9003  -22.9157 C   0  0  0  0  0  0  0  0  0  0  0  0
    6.0359    2.8436  -16.6621 C   0  0  0  0  0  0  0  0  0  0  0  0
    5.2915    5.2328  -16.5326 C   0  0  0  0  0  0  0  0  0  0  0  0
    6.9177   -0.0548  -20.1360 C   0  0  0  0  0  0  0  0  0  0  0  0
    6.4681   -0.4195  -18.7293 C   0  0  2  0  0  0  0  0  0  0  0  0
    6.0947    4.2096  -17.3618 C   0  0  2  0  0  0  0  0  0  0  0  0
    5.9179    0.2304  -22.3259 C   0  0  0  0  0  0  0  0  0  0  0  0
    4.2989    3.8448  -20.5330 N   0  0  0  0  0  0  0  0  0  0  0  0
    5.6135    4.1259  -18.7827 N   0  0  0  0  0  0  0  0  0  0  0  0
    3.2636    3.3807  -18.4312 N   0  0  0  0  0  0  0  0  0  0  0  0
    5.9468    0.7593  -18.0247 N   0  0  0  0  0  0  0  0  0  0  0  0
    7.3253   -1.5759  -16.8118 O   0  0  0  0  0  0  0  0  0  0  0  0
    7.9296    1.8822  -17.7346 O   0  0  0  0  0  0  0  0  0  0  0  0
    8.7747   -1.1069  -18.3994 O   0  0  0  0  0  0  0  0  0  0  0  0
    5.7594    0.3048  -20.8940 O   0  0  0  0  0  0  0  0  0  0  0  0
    8.0197    5.0635  -24.0842 Cl  0  0  0  0  0  0  0  0  0  0  0  0
    8.3965    4.8221  -19.2027 H   0  0  0  0  0  0  0  0  0  0  0  0
    9.2909    5.1754  -21.5040 H   0  0  0  0  0  0  0  0  0  0  0  0
    5.3818    4.3623  -23.1509 H   0  0  0  0  0  0  0  0  0  0  0  0
    4.9106    7.3621  -16.4624 H   0  0  0  0  0  0  0  0  0  0  0  0
    6.5595    6.9174  -17.0188 H   0  0  0  0  0  0  0  0  0  0  0  0
    5.1530    6.7019  -18.1152 H   0  0  0  0  0  0  0  0  0  0  0  0
    5.0697   -1.7713  -22.4687 H   0  0  0  0  0  0  0  0  0  0  0  0
    6.0166   -1.2633  -23.9081 H   0  0  0  0  0  0  0  0  0  0  0  0
    6.8640   -1.7304  -22.3947 H   0  0  0  0  0  0  0  0  0  0  0  0
    7.1485    2.0242  -22.4614 H   0  0  0  0  0  0  0  0  0  0  0  0
    8.0805    0.4903  -22.3905 H   0  0  0  0  0  0  0  0  0  0  0  0
    7.2331    0.9573  -23.9040 H   0  0  0  0  0  0  0  0  0  0  0  0
    4.6186    1.9465  -22.5794 H   0  0  0  0  0  0  0  0  0  0  0  0
    4.7196    0.8704  -24.0140 H   0  0  0  0  0  0  0  0  0  0  0  0
    3.7696    0.3636  -22.5762 H   0  0  0  0  0  0  0  0  0  0  0  0
    4.9832    2.5583  -16.5193 H   0  0  0  0  0  0  0  0  0  0  0  0
    6.5311    2.9201  -15.6828 H   0  0  0  0  0  0  0  0  0  0  0  0
    5.6293    5.1927  -15.4865 H   0  0  0  0  0  0  0  0  0  0  0  0
    4.2228    4.9771  -16.5829 H   0  0  0  0  0  0  0  0  0  0  0  0
    7.6154    0.7947  -20.0959 H   0  0  0  0  0  0  0  0  0  0  0  0
    7.4161   -0.9169  -20.6033 H   0  0  0  0  0  0  0  0  0  0  0  0
    5.6558   -1.1557  -18.8189 H   0  0  0  0  0  0  0  0  0  0  0  0
    7.1447    4.5374  -17.3728 H   0  0  0  0  0  0  0  0  0  0  0  0
    2.4766    3.1772  -19.0135 H   0  0  0  0  0  0  0  0  0  0  0  0
    3.5111    2.5650  -17.9084 H   0  0  0  0  0  0  0  0  0  0  0  0
    4.9551    0.8376  -17.9233 H   0  0  0  0  0  0  0  0  0  0  0  0
  1  2  2  0
  1  5  1  0
  2  6  1  0
  3  4  1  0
  3  6  2  0
  4  5  2  0
  4 20  1  0
  5 21  1  0
  6 28  1  0
  7 20  2  0
  7 21  1  0
  7 22  1  0
  8 14  1  0
  8 23  1  0
  8 25  2  0
  9 17  1  0
  9 24  1  0
  9 26  2  0
 10 15  1  0
 11 19  1  0
 12 19  1  0
 13 19  1  0
 14 18  1  0
 15 18  1  0
 16 17  1  0
 16 27  1  0
 17 23  1  0
 18 21  1  0
 19 27  1  0
  1 29  1  0
  2 30  1  0
  3 31  1  0
 10 32  1  0
 10 33  1  0
 10 34  1  0
 11 35  1  0
 11 36  1  0
 11 37  1  0
 12 38  1  0
 12 39  1  0
 12 40  1  0
 13 41  1  0
 13 42  1  0
 13 43  1  0
 14 44  1  0
 14 45  1  0
 15 46  1  0
 15 47  1  0
 16 48  1  0
 16 49  1  0
 17 50  1  6
 18 51  1  6
 22 52  1  0
 22 53  1  0
 23 54  1  0
M  CHG  1  24  -1
M  END
>  <OMEGA_C>  (1) 
ofb3QAP/lkBYfKDBhAEEQaaSnUDZ4qrBijfBQGCOjkCgYrLBZpCxQDFgh0BD/KfB+ZDMQNcMjEAg
JJ/BjpzsQJWqmUCt0bPBGsKKQKoNcUBPxJnBYWzXQAcx4z9R54vBhkTzQAEBir/0d4/B7sSvQNXr
1ECNj4jBzRC/QFa8nr94ebbBAfzlQOrgej/7cLbBjl6VQOZ5Zj9IU7fB3yXBQNj9NUD0S4XBHVSp
QF1zp0C9QoTB4V3dQAiAYL2RFqHBvPrOQHLD1r6W1ZXB7wfDQFe1hkAF5YrBY1+9QMrpaz52m7LB
2JCJQPoQdkCtQ6TBv6GzQCoHhEABQ5bBZt9QQIJdWEAWc5PBX0y+QIpiQj+CMpDB2GjqQAS2yb+V
fobBXr/9QDnt8D9p4I3BQGUMQcOvjb/hMZPBEU24QCcJnD7gJqfBolAAQWIIokCArMDBKVgGQY5O
mkAXn5nBqacUQdecpUAeCKzB+DesQNKXi0AdNbnBSCOdQJOW60AOs4PBdefRQFNb3UCJJojBqOWk
QNp11kDv65DBYjuiQFy44r/sv7PB8IfAQI60ob/QQ7/BoqXbQCl83b9JKLPBmcDkQDyMAUDrsLPB
nEkBQVAI+z7LH7PBiHXnQF8TdT9TO7/BpsuTQCwm+T+RorTBzAaXQMLSXj/AHMDB0kFxQKIkuj4M
nLTBGXafQG+6I0CdJ4TBiv7QQHXiOkDl7HrBPCO0QDMqpkC5yHfBbyGHQLpEn0DDqYTBi7HzQHJu
Sz9vxKDB0lDtQNS7ar+K06TBBPy0QDPuk780jZbBdaHkQAEykUB/+4rB738eQPZWS0CqG5jBdbZg
QIgoJEBjRI/B2I+eQN1sVj/lYo/BIjH3QHOilUAojKDBdecDQT6YmEB7/qrB653BQLcxhkCxYbLB
7jSxQGhjg0D/7qfB86nLQJFdi0AxIp/B4f/sQOUfkUA15rPBymyJQLz2c0DTmpnBKMLZQJDI6j8B
BY3BvrHEQMhQFr7oPKbBipStQFfb1EAAQojBMIKwQNiKb8BqVIrBy/P1QOCENsA8Y4LBE5f3QPXb
ksBD6ZDBs9rAQKbwM0Dg+4XBJEipQBMQp0Dr54PBocjHQKdjlL9Zk5PBVdrVQADsCjy/sZrBKGvC
QCUbh0AI6YrBtJHfQBLIVcCczIzBJNyIQIivcUDtHaTBRFmyQI7shUDKNJbB95BNQDzvXkB/L5PB
SbbEQLcqmj9Vc5XBuP+jQGg//T4JNKnBuEIAQcRi3D8x0IvBknDYQB7LZ79XmazBdv7hQJwAFcD1
PpXBMccAQWKUlUCK0sDBHcgFQecqm0DetJnB5YoUQcWVoEC+MqzBMzWtQHYKgECuLrnBeGmbQHD4
6kB8IoPBw4PPQJE13kDaS4jB7uWgQOor1kDSdZDBVuOgQBXIgsBGuJHB5DGwQJq1kcCaYYTBBimf
QO/bN8CEI4fBAJkLQTVrJMDrMITBq7jkQJp6/b/OXX7BicH1QJJMasD62XjBw34MQQ9fisAztJLB
O+f2QBnxq8BQvYrBjfjnQOe6nsC7N5jBcFufQMLVHkAMZIXBvDbPQPR/NUBP53vB3OW1QNL9pUDP
Y3fBB0iHQCr0nUDg24PBNEbKQD9wWr9bJYvBF1WmQEmNtL+xb5XBNgT5QDxuTj2f6ZrBnQ/kQMZy
kUD+CYvB8vgbQHI0TkAcypfB/VNdQHv3LUAXbY7BzOmoQH97yj8pBJjBHnf3QHH2lEDIX6DB/CAE
QZgtmEBXzarBGR3CQBtBhkAnSrLBhIixQN4xg0AO3KfBS+nLQC2pikCFA5/BipXtQCP7kEBgv7PB
YnCJQN5Rc0CslpnBmQ3ZQLQy5z8Gl4zB1NfCQEREAr5Q0KXBOUmuQNY81EAYPojBIxS+QO69TsBt
VoTBbPPaQP4Iyr87Bm7Btg0HQcAEP8BPx4HB2+K/QIeMMkBIuoXB0jCpQGmYpkDR3IPBEF7UQPBx
qL+KbJTBxuTXQADLwDthrprBlyHCQKoyhkAGxorBVAHjQDhoDsBgFoLBqAWJQDXhcUCbGqTBknCy
QADwhEDdHZbBKvlMQI4qX0CZO5PBjGDDQA6ciD9tUpTBOJieQMLawz7jmafBJSAAQRwX5z/TG4zB
uDbXQCG0Ob97FK3BrhDmQOToj7/OwInBEjQBQRWTlUD7pMDBw90FQVdUmkBvgZnBPsgUQbsnoECS
9avB1cOtQK5ygEDmHrnBqzucQBit6kDBLoPBzljQQHYe3UBnNYjBRe+hQEab1UDVeZDBNRbDQGkP
bcAxLozBqLK9QEEZgMCfJnzB+lWfQCx0LMBwWITB1bH0QEalXL+3d2rBJAi8QP/Ahr8fNG7B0mTa
QNQeF8DfqWHBch0UQY+UEcAmMIDBaZYGQQaBb8AWznbB3MgJQbeRXsCihonB4EqeQKndHUCPQYXB
AbLNQIKDNEAQRnvBiHq1QBN5pUDtPXfB/xCHQOP1nUBl44PBCY6yQAFNzr9qzZPBGWXmQC6PBsCe
nJjBafn5QLS+eT5RyZvBp+XjQG4jkECM2YrBuTgbQJvIT0Ah4pfBrJhbQHKGLUCgho7B8nKkQKMZ
oj//nZXBix/4QJqKl0CXmqDB+x8EQdY6m0BWF6vBoPnBQIV2iEBRV7LBUxOyQAjVhEDu2KfBSM7M
QAugjEC5FZ/BvSbtQInvk0Ap87PB0jeLQCa1ckCEcZnBEHXWQEfg7z+4jIzBerKnQCSI/T4vLabB
GAusQFxO1kCumYjBWKASQTjUlb9pkp3B6LT9QGnue78ofq/Bb6QGQWy9TcAsVqfBQVnEQJzpOkAu
E4XB/mupQG7zqEBC+4PBCiXMQEtiaL8ltJfB747HQPLK9j5Xp5zBPAfEQABviUBgt4rBcIQAQc6R
4b/zwKTBpjmKQHOocUBN9aPBi9uzQDithkDVFZbB+l5TQFoHWECY+pLB2yK6QKcwqT+R6JPBd0yI
QPbxlr70P6bB6Vz9QPDR3T+ET43BB8qwQEoblT9WaK7B4W3XQNCQ8b8Hjp/BiIwAQXIzmUCe68DB
yl4GQZQFnUBxzpnBJbEUQdGlo0CRW6zB00ytQHGEgkBhGrnBuM+YQDUt7EBmqIPBmZPNQE8C4UBG
oIjBjaGfQPtJ1kDG1ZDBgoATQYQt3r8FCZbBMgYiQXsvn784y6HBAR4PQf1b672705vBgAfkQIGA
tb8YabTBKHf2QOqjlD1j2a3BxSMOQXwvh7/h0LPBmmv0QBqwasAkaKzBWgoWQWi+TsDEmKvBWREI
QUJbcsC+2p/BJnajQBhEKUAV2ILBUkXYQFeZPkBTq3vBhsK1QC40qUDienfBetCHQNp7nkDx8oPB
Bj3lQONQYL+giZHB5IetQNW/mL+KApTBFQ/nQF35Tj8alp/BWCjlQHRMlUA77YrBrakiQG9tRECu
jZfB/vdmQOqyJ0CBV47BkOyaQG0ywj8CF5PBR7b4QGL8mECybaDBvkwEQULMn0Cd0qrBvuHBQCLr
j0B7SbLBmYKyQB4biEDu46fBS3/NQDxojUDcEZ/BYiftQIS4m0DMu7PBQa+MQDhubkDoo5nBe8bU
QCSe6z+y+4vBtufmQHi6d78WAJTBQLSuQDoY10DCmIjBtVeqQLOy+T5EFbjBLjHnQA7Zjb/CibPB
CXH2QHEvoz9GbrfB18TFQHPdPUAmzITBtR+pQEaGqUD/U4TBIravQKRHlz1DMqHB/ia7QC5viL74
kZXBH27EQBqxiUD/z4rBG9PVQLUoqz7RLbLBmiaLQADEc0CzJKTBoNy0QAIphUBmKpbBrBZXQMxk
UEDGSZPBqNm1QBLgaD9gw47BK1H1QJdJjL+PpYrBxZT4QFy27z8WBJDByLr6QPPeur9R0pvBRVzS
QOhpNj8N8abB+aYAQSqxo0CImMDB47UGQWqYnEAPkpnB7ucUQY8mqEDK+6vB49GsQAztjECgGLnB
5/aaQJE97UA43IPBd4nQQOd84EAg+ofBIKGkQJBO2EDrBZHBtWKeQL7UwT+iDrfB/squQEYJjz7i
psDBxg+TQKqrY762uLTBTfkCQe4Emr9yU6/BHBvQQM5i6b98KbDBVNbrQAcrqb+oF7zBO7wKQcD4
lj+rWLPB0Sj6QJjegD8l6r/B3RLrQD0HFECCzLbBAXqlQKrhLkCR1oHBTuDbQDafQ0CR+XvBnCOz
QMSFqECFynfBRTuHQG1XoEAO8YTBKDynQEV2W7/1X6XBMf+TQKOEQD80LaHBggKjQNkuf7/F8pLB
dETlQARUlkBwEovB75klQB/OP0D/6pfBAgVrQKlbHUBMJ4/BN5KYQAuzhz+VxIvBC9X3QPYymkCn
t6DBXIgDQZODoUANKqvBd1TAQCKQkEC2b7LB2HKxQNzZiECq+6fBXuLMQPfijUCqOZ/B4lPrQPrl
nEB3ArTBRGSMQKBUbkACqpnBN4PVQInV5T/1covB5cjdQIWYmL+9x5TBijSwQCmC1kD0/IjBaf8A
QVE1hD80prTBgwu0QESDKD8877nBXJLpQJYTnL/75LrB8xjEQKJqO0ANtYTBJmCqQFVUqUD9eITB
rhfLQArGGT9yM6LBPfG9QGiFsb2o4ZfBh6vEQN5eiEDI4orBxRHcQICnBz3jn7TBYTKKQD6XdUAK
JKTBo+q0QDFYhEDaQZbBuuFWQN7+T0C/RpPB2my3QNInZj/kbI/BSoACQZ0lbr/9sJPBaO76QDXj
6T9Fao7BnzrQQP4YGMAvepTBRvDRQEqF2b6+B6rBxIn+QDvfpUDy68DBRm0GQV39nUDg7JnB5AEU
QRyrqkCOaazBSQ2rQEMTjUBGMLnBQR+dQJpE7UDrQ4TBajLSQKqA30CYk4jBE36lQPw110BrXpHB
7/8OQYn+ED9x17DBmPYEQVL0pj+A8bzBLPf4QPMC+D9/LrDBA6KZQNTQjL3S0bnBSIyqQPzFxz+l
f7XBTIK7QLdubT+mQsLB5w7PQF2u+L8J+brBMKnxQJEEcL8uKMPBa9YCQQNR1r80C7fBpPOiQCJ8
LEAtaILBy9vXQBrxQUD38HrBkwO1QFnoqEBqK3jBPE+IQKydoECI4ITBPZWxQLLqoz+E4aTBTsPo
QDD1lT9486DBHQ+fQD88FL8QZ5nBnPrlQFW2k0BJIIvBOKIkQKjpQEC625fBZp5qQCD0G0DJU4/B
dUKaQMj4bj8qJYzBvoX3QAi5mUAExqDB8GkDQXbhoUB+MKvBYNW/QBOakkAFjLLBvuywQFjAiUAq
JajB/XDMQLeJjUA3Wp/Bdg/rQJNDnkAvEbTB6PGKQDL+cUDx5ZnBh6PXQKMv2D/QwYvBkDzvQObA
tL9GWYzBGw+vQH501EDqBYnB5Gb+QDuks74pCrTBvvHCQJ1Yoz+RFrfBHBeyQItil7+cE7bB4vHA
QBLSMkB0cYXBQbqqQHAVp0DSWITBll/jQA8z6b5UwZ7B6XLPQNsNKr9XrpPBV8PDQDmHhUCpCovB
FWrOQMRRSL3khrHBhiuJQLNqeUAzYaTBlSO0QPupg0BbcJbB96ZRQBZVWUAAf5PBPmm/QPx7FD/H
w47Bu5sJQUIpaL8gNIrBV4z9QA4x6D/8G47B9TjlQDDtI8AbEonBztjEQPh+9z21JKbBwGf+QF62
p0C39cDBgEcGQcDFnEAB9pnB2usTQYvpqkBXYqzBzWKqQGF8kEAcTbnBleecQKEj60AfDoTBs//Q
QLTH3UB0IInBOWCiQMnd1EA7O5HBGOUDQei8pb/hLbDB3GEBQUIM4L6GvrzBLTsJQa1O7z6197DB
yTyhQMvbwj+ofbXBF43XQGsTBUDE/LPBdtrHQBpQlj+Vw7/B1kmQQIJPeL90TrTBIJi2QCmHn78X
yr7B3j+7QCndCMAQX7LBCwafQB1yIUBvi4TB1NjPQF/VN0Cg/XrBOE23QLwUp0BRQXjBvq2IQNEq
nkBvO4TB/ff+QCNYYj55Ap7BViTuQHWctr/g46HB+9ezQJGPqr+0ypTBWZnlQNw5j0DQIIvBO1Qe
QM1YTkDwEpjB8QVhQMTtI0Ajh4/B9eOfQLUzIj8bdI3Bb8n3QBe5l0CYoKDBteEDQQPXnkBMBavB
VuzAQGRGkEDkirLBv0ixQH/aiEAcJ6jBnFnMQFvfjEDUSp/Bl1DsQMxgm0AV9rPBBoWKQCYWckAM
AJrBo+3WQE4+4D9n64vBwc33QPdgkb+jYIzBjf+wQK1d1ECOJYjBw6bOQMTanb/FerXBOJTsQOzW
ij/cUbLBcdadQP+dQj8GmbXBEue/QHyLNEAHiYXBXzCpQNWUpkBQQ4TB0hPgQEq6y75Gm57B5QfS
QGUEHr9HGpPBU7DCQGwchkBYBovB98/FQCDHGD53V7DBKEiJQEjheECBeqTBY2qzQKA3hEBubpbB
YT9QQOJFWEAkyJPBVum/QGdIGz/+eo7BC+QOQVbbWb+z+I7Bkl38QILh9T9wkI7Bs93vQHp/8b8J
joTBYGq8QMA6pTzlCaXBuhYAQeqMpEAqzcDBk0wGQcSNmkASxJnBcYYUQXn0pkAtJ6zBq+mrQMt/
jUAMXrnB+HieQPzP6kBvMoPBb0XTQBj020BFfofBVN+mQBQ+10BDi5DBaSmzQKjl8r92FLTBDpTT
QBYjjr8sI77BnoDrQNMw1r8W37HBalTmQElDBECGrK7BNrYEQePgJD9Ztq7B23/xQC5+mj9w+rrB
6zeXQEgl3z96A7LBE2yjQJv5YD/+O77BUUaCQMlFwz2dTrTB0AieQAmBIkB7uITBo5HOQPwLOUBS
HHvBTUGzQEn3o0AvtnfBMtuGQEVBn0AV6ITB9Pz4QI/xwT7e0p7BBA7tQM86q78/1KHBdiu5QHav
sr/7GJPBCm3kQDEnkEBoBovB1P0dQBcYTEDYfpjBxPtfQO1SI0DOvY/BxmygQMQbHj9MDo3BJ8n4
QHWFl0BDjKDB1mUEQSElnkDH9KrB22DBQCEakkDMX7LBXdaxQC9MikDy+qfBjTrNQF9EjUDZK5/B
IyTtQIlRm0Ao3bPBmdqLQDJtcECU2JnBvHDWQLeV4j+asIvBX7nqQAVba7+i/ZfB4wyvQCBd1UCQ
k4jBXtrtQHj8jT2qoLTBU8OlQPFpnD8BabfBgDevQHh8lr9JDrzBXHLDQAq0OEDS9oTB8gWpQBW+
p0DoXoTBDCKyQCTp9z4zOKHB87u+QECYa75M8ZbB+NbDQDaEh0Ak5YrBw5C8QLAEp71uHbTBLBKK
QDLqeUAOTKTBmoi0QHA6hEBYTJbB+aFUQEKcUkB0nJPB5Ve7QEr4ND8j/I3Be74EQT+Rrr6smZzB
B0j6QCPs8j9wjY/BZaLtQJnOB8AOJJXBgUOvQLMlAr/JlKnBUqcAQctHokB5w8DB8NYGQY5GmkA8
s5nBsCEVQcdkpUBlH6zBiPOrQEIJkUDhJbnBqJ2bQA2c60BlyoPB+P3QQNte3kBm+IfBr+GkQOrj
1kAZ/pDBtgj9QE56YL90O7LBmH33QMyApD4J2bzBMQv4QFb/Xj/0Kq/B8OiCQGEYij859LbBk1Wv
QNAnAkBx+bHB+ceuQCjwvT+Fp7/BWkGMQMFupr+s07vB+x65QKAIY7+SLcTBtbe+QKbyB8Df2rnB
iS6iQKkrKEA39oLB1TbWQKz4PkAHH3vBzh6zQEV7pkCU5HfBhQKHQFQAn0D894TBm/ySQF/Xej9V
LaDBOIDKQCD6nT/OTKPBChOnQNmag7+gpJXBMw3lQK4rk0BaAYvBVEQiQGvTRUABSJjB+rlmQKFF
HUDvz4/Bx9SiQHnvED+Q94jBxSb3QP4blkD10qDBuDgDQV5snUCIRqvBNTm/QEacjkDVh7LBEjSw
QNRDh0AZFajBX87LQARBi0DdUZ/Bl3XqQB7vmUBtHLTBlRGKQBuJcEBGxZnBSATYQNrO4D+kXYvB
NAHrQKwRlL/qCpPBUyiyQH4q1EAouojBgQvMQHTzt7+U67DBJBS9QJzA8z4f/bzBcSKKQFhVlT1P
/K3BYCrAQP1RNECVJoXBO1yqQHwDp0A1YoTBChvsQHwvCT+6UqLBRY3RQLCYub2xEJnBPBfDQLRw
hUAt+IrBmAq6QAAuwDy6QLHB3UqIQIvCdkCNQKTBs1WzQMDggkBtWpbBy6RPQF80WEBcaZPBIwPA
QGxVaj981JHBPU0JQWL+gL/pkZHBlTX/QAgl5j9uwovBOPLXQErqDcCxbJDBg8bRQHw6gj8sAKvB
gWD9QIS9o0DmA8HBwDUGQeLLmEARDJrB6s4TQfS1pUANiKzBW9qpQMibi0B1R7nBMi+gQFN160BU
5YPBgYbUQB+Y20DOUIjBO1+nQMvh1UDJF5HBnbDKQGiq6L+xq6jBpKq4QDk+BcCkJrbBfm7tQNoS
uL9QtbPBHs2wQH1bwD+uu73BQ7DeQOSJ5D7Pl7/BaeypQP04Sr4jCcLBZ199QIJfjj8ZUa7BtYlu
QECnC78oh7PBn3+GQIJtoL7Wy6XBFlyeQI6fIUCZaITBdlrOQCtvOkBfRHrBHhe1QGqNpUBUBXjB
2O+HQBbXn0ClyYTBerD+QM2TsD/mHJ/BFQsBQS2iab57d6XBzWK2QIxCG78/2JzBSvHkQMIRj0B9
H4vB3q0cQKCSTEDmBpjBRPheQKI9I0CCWY/B5iqgQNOrgD9ogpHB

>  <OMEGA_E>  (1) 
HAAQP3w2MD+owCo/HEIpP5q2HT84FRw/XHgbPz5jFj/uDRM/KHQTPw==

>  <OMEGA_NBR>  (1) 
     71339

$$$$
50164878
     RDKit          3D

 58 59  0  0  1  0  0  0  0  0999 V2000
    7.7450    4.7445  -20.0783 C   0  0  0  0  0  0  0  0  0  0  0  0
    8.2380    4.9503  -21.3822 C   0  0  0  0  0  0  0  0  0  0  0  0
    6.0234    4.4642  -22.3070 C   0  0  0  0  0  0  0  0  0  0  0  0
    5.5447    4.2351  -21.0038 C   0  0  0  0  0  0  0  0  0  0  0  0
    6.3927    4.3909  -19.9017 C   0  0  0  0  0  0  0  0  0  0  0  0
    7.3772    4.8175  -22.4946 C   0  0  0  0  0  0  0  0  0  0  0  0
    4.3461    3.7588  -19.2206 C   0  0  0  0  0  0  0  0  0  0  0  0
    6.7162    1.7908  -17.4790 C   0  0  0  0  0  0  0  0  0  0  0  0
    7.4573   -1.0780  -17.8024 C   0  0  0  0  0  0  0  0  0  0  0  0
    5.5077    6.6670  -17.0569 C   0  0  0  0  0  0  0  0  0  0  0  0
    6.6770   -1.3757  -22.7714 C   0  0  0  0  0  0  0  0  0  0  0  0
    7.3176    1.0704  -22.7308 C   0  0  0  0  0  0  0  0  0  0  0  0
    4.9324    0.3943  -23.1537 C   0  0  0  0  0  0  0  0  0  0  0  0
    8.0191   -2.0840  -15.7155 C   0  0  0  0  0  0  0  0  0  0  0  0
    6.0453    2.8660  -16.6515 C   0  0  0  0  0  0  0  0  0  0  0  0
    5.3012    5.2438  -16.5322 C   0  0  0  0  0  0  0  0  0  0  0  0
    6.9583   -0.0704  -20.0750 C   0  0  0  0  0  0  0  0  0  0  0  0
    6.4089   -0.4001  -18.6940 C   0  0  2  0  0  0  0  0  0  0  0  0
    6.1052    4.2243  -17.3639 C   0  0  2  0  0  0  0  0  0  0  0  0
    6.2117    0.0520  -22.3743 C   0  0  0  0  0  0  0  0  0  0  0  0
    4.3030    3.8325  -20.5332 N   0  0  0  0  0  0  0  0  0  0  0  0
    5.6205    4.1345  -18.7864 N   0  0  0  0  0  0  0  0  0  0  0  0
    3.2820    3.3568  -18.4279 N   0  0  0  0  0  0  0  0  0  0  0  0
    5.9053    0.8052  -18.0329 N   0  0  0  0  0  0  0  0  0  0  0  0
    7.9172    1.8728  -17.7198 O   0  0  0  0  0  0  0  0  0  0  0  0
    8.6231   -1.1523  -18.1867 O   0  0  0  0  0  0  0  0  0  0  0  0
    7.0136   -1.5246  -16.5891 O   0  0  0  0  0  0  0  0  0  0  0  0
    5.8635    0.1374  -20.9733 O   0  0  0  0  0  0  0  0  0  0  0  0
    7.9961    5.0632  -24.1071 Cl  0  0  0  0  0  0  0  0  0  0  0  0
    8.3963    4.8566  -19.2241 H   0  0  0  0  0  0  0  0  0  0  0  0
    9.2757    5.2099  -21.5315 H   0  0  0  0  0  0  0  0  0  0  0  0
    5.3616    4.3707  -23.1553 H   0  0  0  0  0  0  0  0  0  0  0  0
    4.9241    7.3718  -16.4465 H   0  0  0  0  0  0  0  0  0  0  0  0
    6.5747    6.9280  -16.9985 H   0  0  0  0  0  0  0  0  0  0  0  0
    5.1731    6.7240  -18.1032 H   0  0  0  0  0  0  0  0  0  0  0  0
    5.8905   -2.1019  -22.5181 H   0  0  0  0  0  0  0  0  0  0  0  0
    6.8727   -1.4098  -23.8533 H   0  0  0  0  0  0  0  0  0  0  0  0
    7.5976   -1.6266  -22.2242 H   0  0  0  0  0  0  0  0  0  0  0  0
    6.9894    2.0821  -22.4501 H   0  0  0  0  0  0  0  0  0  0  0  0
    8.2380    0.8186  -22.1836 H   0  0  0  0  0  0  0  0  0  0  0  0
    7.5131    1.0355  -23.8127 H   0  0  0  0  0  0  0  0  0  0  0  0
    4.5944    1.4044  -22.8792 H   0  0  0  0  0  0  0  0  0  0  0  0
    5.1401    0.3579  -24.2333 H   0  0  0  0  0  0  0  0  0  0  0  0
    4.1466   -0.3348  -22.9067 H   0  0  0  0  0  0  0  0  0  0  0  0
    7.5495   -2.4076  -14.7749 H   0  0  0  0  0  0  0  0  0  0  0  0
    8.4910   -2.9482  -16.2059 H   0  0  0  0  0  0  0  0  0  0  0  0
    8.7829   -1.3221  -15.5006 H   0  0  0  0  0  0  0  0  0  0  0  0
    4.9927    2.5908  -16.4890 H   0  0  0  0  0  0  0  0  0  0  0  0
    6.5575    2.9455  -15.6813 H   0  0  0  0  0  0  0  0  0  0  0  0
    5.6338    5.1952  -15.4848 H   0  0  0  0  0  0  0  0  0  0  0  0
    4.2322    4.9912  -16.5895 H   0  0  0  0  0  0  0  0  0  0  0  0
    7.5696    0.8425  -20.0207 H   0  0  0  0  0  0  0  0  0  0  0  0
    7.5775   -0.9054  -20.4348 H   0  0  0  0  0  0  0  0  0  0  0  0
    5.5737   -1.1042  -18.8228 H   0  0  0  0  0  0  0  0  0  0  0  0
    7.1547    4.5533  -17.3772 H   0  0  0  0  0  0  0  0  0  0  0  0
    2.4973    3.1384  -19.0082 H   0  0  0  0  0  0  0  0  0  0  0  0
    3.5444    2.5467  -17.9036 H   0  0  0  0  0  0  0  0  0  0  0  0
    4.9145    0.9279  -17.9757 H   0  0  0  0  0  0  0  0  0  0  0  0
  1  2  2  0
  1  5  1  0
  2  6  1  0
  3  4  1  0
  3  6  2  0
  4  5  2  0
  4 21  1  0
  5 22  1  0
  6 29  1  0
  7 21  2  0
  7 22  1  0
  7 23  1  0
  8 15  1  0
  8 24  1  0
  8 25  2  0
  9 18  1  0
  9 26  2  0
  9 27  1  0
 10 16  1  0
 11 20  1  0
 12 20  1  0
 13 20  1  0
 14 27  1  0
 15 19  1  0
 16 19  1  0
 17 18  1  0
 17 28  1  0
 18 24  1  0
 19 22  1  0
 20 28  1  0
  1 30  1  0
  2 31  1  0
  3 32  1  0
 10 33  1  0
 10 34  1  0
 10 35  1  0
 11 36  1  0
 11 37  1  0
 11 38  1  0
 12 39  1  0
 12 40  1  0
 12 41  1  0
 13 42  1  0
 13 43  1  0
 13 44  1  0
 14 45  1  0
 14 46  1  0
 14 47  1  0
 15 48  1  0
 15 49  1  0
 16 50  1  0
 16 51  1  0
 17 52  1  0
 17 53  1  0
 18 54  1  6
 19 55  1  6
 23 56  1  0
 23 57  1  0
 24 58  1  0
M  END
>  <OMEGA_C>  (2) 
I9f3QAfTl0BgoKDB884DQaZonkDTDqvBw7/AQNHajkCkdLLBM26xQDaGh0DHB6jBXJHMQOCBjECb
Np/BFhLsQKMomkAB9bPBbhOLQJ2PcEDgw5nB3erWQIg55T8T1YvBY6LuQK/6ib9ia47BfD+wQENY
1UCZdIjBnqnVQB4XsL/WK7bBkCnqQIYDiT+02LXB8dWdQCTdyT60OrnBRk4AQQ9gBcClcnvBG3PB
QB9sN0BSNoXBwKOpQJ3Np0DcQYTBkareQDhHkL2PmaDB1xXNQOXVzL5GjZXBlV3DQCgth0BD6YrB
8cXGQCD5VD2R/rLBP7KJQB1IdUAJRKTBatuzQL9NhECPSpbBxAtSQNLVVkBsbJPBM/i8QKkfTj9a
Q5DB2ln9QMi27z8Zwo3BKfgJQeR9k79ifpHBUG/gQDYlw79ntoTBC6K7QAyvDD49yafBCuD/QB8G
okBL28DBSlcGQXxpm0D/ypnBG2kUQde3pkCNQKzBOpKrQMnci0AGPrnB45GdQJTl60BtkoPBSGTS
QEOy3UDq/IfBCIqlQFIr10Bv05DBK3+8QNiFBsArJbTB7+zbQPNytL+Y077Bbx/zQMo10L8Yy7HB
R6nfQEtBBUDTmbPBvs4DQRyQUT/+d7HB+2rwQOWKhD99gL7BYgWTQPzEsz+rCLfBmnukQK1Btz64
3cHB6LCEQMFuq77yQLfBM5XxQJgWGsAJZmzBHtsHQQavPMCppYHB1oYMQY47qb+NAnjBd8SfQFXQ
JUCN6YPB3dbRQBiDPECS5nrBPEi0QCM/pkCcwXfB/G2HQDG4n0BTt4TB8jnyQFasVz9tKqDBunry
QEjKZ79neqPBnluyQIdWjb8AlZbBZvPkQPi0kUB6BIvBQ9QfQLrbSEC0EJjBPddiQJj9IkCaOo/B
qUOdQFqMbT87zo/BMyj4QL4Il0BMgaDB8AYEQfj0nUCB6arBRRjBQJRij0CRYLLBbKyxQAWgh0Ae
+6fB88DMQOQejED0Ip/BpH3sQFSDmkBE1LPBxxSLQEw/cEDAxZnBXGnWQI7D5D9LwYvBX+TtQOKw
lL8QOZDB6PCwQEYk1UCwWYjBc7fVQD7Irr9ARLbBuW/qQAw5ij98X7bBHk2eQLJdzD7K9bnBK0sa
QdDQoL+EAonBzszAQFvFNkDeH4XBiHCpQLCkp0DHOITBFjLdQEAwTD3P+qDBwX3LQI98v754LJbB
4Q7DQJrahkB01IrBf7nGQDhvlj1iebPBXdmJQECNdUAjRaTBU9GzQF4FhED3PZbBnOBRQGAnVkDq
e5PBmZm8QJmdRz/H9I/B8jL8QPzp9j8lKo7BTjLjQG32DcCvBozB4IYLQdp4L78DlpDBeZu6QGQU
RT4CXKjBjCoAQSlHo0CDsMDBw4AGQT8PmkDtp5nBsq4UQZbopUC9EqzBUPCrQFLajEAHLrnB5FSe
QODj60DxgYPBxizTQKb73EBGwofBU7emQMVA10AcwZDBv1O8QL5IBcD9NLTB6KXcQMH2tr8P4b7B
YM7yQABJzb9osbHBH9rfQFleBkD6ZbTBk8IDQYVDVz+izLHBrlzxQAH0gT9J/L7BTHWTQK9utT9n
B7jByo+lQOOxqj4HjsLBbO2EQOIKpL6r8bfBrigqQQiBTL/1EIrBJo4UQexbiL8U1YDBSnEbQQvY
FcCwV4rBrRCfQJhBJUBW5IPB5vfQQHugO0ClqXrBRJuzQJvHpUCWnnfB0SWHQLoMoEAhzoTBugru
QHNQgT9oKaDBP5nzQOv1Nr9D7KPBhjqwQN8Bhr/2lpfByLXkQL4skUDN5IrBSMwfQERtSEAVKZjB
9o9iQE8UIkDFU4/B9iGdQCpyWT8VnY7B6xj3QGofm0CrvqDBkDgDQSCjo0D1I6vByhrAQFdMkkC3
nLLB+vewQEzRiUBTNqjBszPMQLMyjkB3YJ/BGgHrQLY+n0D8D7TBa7iKQKukckBw/ZnBozfYQIS3
1T/gs4vB7I/PQLrrcL6q66DBquOuQLQi1EAV4ojBOoWzQDWylsA274zBLMF0QJWST8CcU4TBcT27
QIEsfcDsp3PBvF+jQEZBCT6iRLDBW2zAQGiAMUBak4XBgYSqQFuTpkCwUITBFm26QHHt7L8r0JLB
tpzTQBUWEL+dApXBtH3DQMMlhUBfFYvBJxKrQD9tYsC5B4XBOiKJQM3HeUD+eaTBZeezQFrbg0Dw
fZbBfuRQQHRFWkCtn5PBtWHBQCqlCT/XtI7B2kb+QNox5j9k543Bz4XwQItm/73gMabBXtmmQIuG
xL1D5aTBE5HCQLOOFcB5F4jB9EH+QLvSqUB56cDBOPsFQXl2nkBx6JnBF54TQWiJrUBASazB2hSr
QIDtjkDzarnBP8WcQD+l6kCe24PBydbQQHNt3UAN+IjBRTCiQATh1ECWFpHBOhnWQMoOncCgXI3B
P9SiQFKOs8BoHIrBx5mnQFH/jcCA7JTB86ZpQAV7GsD1bn3BdZBcQCfjPcAlSozBZgVTQJSAhMAM
eoHBToa1QGHZSMC7O2jBLvupQKVhm8AAXW7BLrndQE97hcBCbnTBtnCBQGboaT5le7LBZWC0QGnB
hz9WX7LBUKuxQOkwNr9XnbTBrXmeQNuMH0Bq9oTBBkHOQLaKNkANBHvBshq3QPxCpkDcMXjBLnSI
QI22nUB3N4TBigWYQKXC0r8js5PB7STEQDOvJ8DsnZjB5Xz1QGnqNr8t85LB6l7lQCCyjkBBIYvB
ir4dQIxCT0AsO5jBpv9fQFTxJEC+n4/BbMSiQBTs7z6/cYzBDFr4QMGpmEDYIaDBcXsEQdWkn0DJ
eqrBcr7CQONDkEC7R7LBw1eyQE1ViUBk7qfBbuTMQEtmjUCA9J7BBTruQFNsm0BairPBfryKQGOA
ckBz65nBZ1jVQGMR0D9rLYvBz3oEQUD1ib98sIjBLceuQJtf00CQsojBNH7LQC9Cir9aK7HB4a3i
QFI2mz9czqrBsFiUQKPqMT8jnq3B/H8oQTrDjr6m3IbBxXG9QBKPL0CrSoXBdT6pQEICpkCCGYTB
gdzeQKDIcb9a65nBUvHbQPCVar9dlI3BszjCQKk4hED3tIrBu7O/QIr27j2N4KnBv/GJQPP3ekAg
ZKTBH62zQLRjg0CgM5bBuctPQGvNWUCTxJPBgXjHQKdRoT5DeYnBnND0QIMQ8j/8pJDBY18HQc8q
/L9oG4LB2AcUQTp2Ur5fF4zBeAK6QDuUn75P0p7B1oUBQWf6o0AkVMDBNlYGQa3nm0DeMJnBahkV
QVU8qEBQe6vBMD6uQAATjUCiMLnBfp+cQCFL6kA/zIPBi+HQQBYW3EAXnYjBzMqiQJwo1EAl+JDB
hLOyQAqn7b99grDBMKbNQPArPb+XhLnBnIPqQFRWv79Kqa7Bf0zaQDD/A0BuoKXB0NkAQeBMTD80
TKjBM9bkQMzmxj+CJ7PBB4eLQLMGxj8AgqjB1ReXQJMUhD9397XBhht3QBAWqb0wC63BWFozQXxy
8D6qWIrBoH4mQUs+ob23iHzBa04vQUhRpL+P+IfBMT+bQM0FH0BrBIXBAA7KQFPbM0DKL3rBhSG1
QGKepUBlonfBxwqHQOewnUBALITBcvj7QCq40r40bpzBypPgQEXM/r/smpzBV6PIQCPp479BD4vB
mE7kQJL6jECkhorB+0odQFW8T0CghJjBee1dQC7eI0AQ14/BEhmtQDg5Sj6cCoXB1MP3QF8jmEBt
laDB8rcDQdSQn0Bh/KrBdo3AQCFfkECta7LBkFaxQO0siECaBqjB/4jMQO2cjEAJNJ/B59HrQK7+
m0DH4rPBxiOLQF7bb0CBzJnBQsnWQIBZ5T/+vYvBYy3tQA4cm787yJDBBPWwQJ4J1UDnh4jBuefT
QCLfsL/pqrXBqQDqQMZbhj+mKLfBmlWdQFIRxj7PB7rB1poNQTa9R8AECpHBo33BQAhKN0AtH4XB
BLSpQOSkp0CxUITBfa/dQJRgPj4mHaHBu+rLQExupr7Ld5bBxF3DQLnehkA86IrBEBDGQEBCsD3D
krPBJKqJQCDYdUCcSqTB9uizQAXgg0AITZbBp1FSQO6JVUB6eJPB5bW8QFmcTD8f/4/BEBP9QOrU
8D9Q1o3B3S/3QJAaeL8se4fBWez7QJncEsBGapbBB9W6QDKqlj79fqjBHXf/QCNdpUDsvMDB0FMG
QYc+m0ChvpnBmk8UQQIBqEBHKKzByFerQAvMjUA1NrnB9leeQBza60BitYPBoivTQI8G3UB7/YfB
mJSmQA7f1kBk7ZDBQUC6QPcQBMAcG7PBehDaQBG3wr+BQr7BcTjxQDXozL9dH7HBPg/gQOGjBUAd
qbXB1asDQYJVVT+GnbLBsi/wQMq3aT+rwL/B9FWTQPKEtj+TlbjBkNyjQJyMfD7VmsLBx6WDQB8S
mL6+hrfBRUoSQWDxfMDuTZbBWcgbQRYIIcB8GI/BkKUGQY14YcCin4nBtdafQBi7JUCLw4PBzg3S
QCywPEDDxXrB1ga0QKQIpkDZ0nfBzG+HQCPhn0BW2YTBL5vsQK/6lT/T9Z/BUKT1QAhGBb9XN6TB
QkOwQAbsdr/AVJjBU/PkQNpmkUBpBovBPO0fQGs0SEC4HJjB2SJjQM8tIUDvYI/BLU6dQCVuWz9h
iI7B68j4QFkSmEB9haDBPToEQUpFn0Cn76rBd1vBQNEOkUCFTrLBpCmyQCXFiEA76KfBSHvNQDLa
jEA2HJ/BH7rsQLvvm0Aq0bPBxkuMQGk7b0AMrpnBhBLWQL5D5j8hwIvB36HqQNVeQr+1n5fBBYau
QJ+P1UCBtojBFCTzQAQoDD6wLrXBBa2pQBIbkz+Y3rjBjOm3QFudoL99oLzBgB0OQa3GDcCWMI/B
R4LEQCoaOkAtzYTBYoapQIYnqEDoS4TB4zazQG3uBj/xZKLBY+69QPRwA76Jv5fBcmDEQOv/h0Ay
zorBUSvCQPAdy73297TB7JmKQM00dkAZKqTBQOi0QIYnhED/MZbB9ohVQDG+UkDbWJPBGpe4QKnZ
Vz+vHI/Bj7T6QOBs8T/XN4/Bf2UDQZrdoL7gfZ3Bt8LwQOJB4L9bVZDBlf6zQKNgAb/UdKrB+hkA
QQsDpUAKs8DBy94GQdYem0CCsZnBztsUQX1Zp0DlIKzB1/WrQAsZj0DtErnBthKbQHrQ60Dv7oPB
llrQQLgj30BnS4jBhr6jQMdd1kB0FpHB1NgBQdGTRL/4XbLBOlD9QLWIuj51aL3BkTT7QDtyez/H
7K/Bpw+HQFCocz/qoLjBRDSxQAEhAECXo7PB7U+zQBErsT9FH8HBmzqVQDKmuL9wnrzBjlDCQMNH
fb/jwsTBqdnIQIpPCsAP/rnB2LoOQfzHQMDLIYnBsdITQcLlJsAw5pbB418YQfV/sL/4qozBpouj
QEkUKkDhc4LBkoTYQGAcQEB5M3vBTTu0QKqap0BG1HfBPZ+HQLnUnkAxtYTBcDiTQLS9ez9SBaLB
lBHLQLF9pj+4SKTBUrmmQA69cL/sfZbBen3lQKfqk0DF/IrB6UIjQJavREC0+ZfBIr1nQNpmHkBY
WI/BZbacQEeTUT9yMIvBPVD4QPJHmUC1b6DBoDAEQR0koEDe0qrBFBrCQMhej0BgY7LBC2myQM0A
iECb/qfBHCDNQFZ2jUDPHp/BKTrtQL6Tm0A/yLPBT+CLQNf4b0ArzJnBWnnVQBJA6D9/AYzB0vXt
QKofi78ivpLBM8mvQFLK1UD5M4jB/igDQQyiMD5LJbPB99+4QNGPNj+hHrjB+03WQGz/zL8mlLrB
ofsOQV39OsCnJZXBQ/vCQLjJOUCUDIXBUxypQNYOqEBQL4TBe/TFQCqziz6FKqHBTnvEQES/pr7/
8ZXB/ZzDQJUmiEAD1YrBUqLXQLiEtL6obrPBcb2KQOf4dEDGTaTBA0S0QNPxhEBePpbBIhVUQCU8
VECag5PBgFK6QLXaQj9PkY7BJ4L5QEZj+D+Oz4/BuHP+QJplWr/ZA4rBrIj8QMKSBMD4b5nBOP3J
QCiHRr9s76jBzI4AQdkopUA5msDBE3AGQSwKnUBLjpnBfcEUQWbnqEBU8KvBK1WtQDO3i0C2O7nB
PpWcQBX+60C+WIPB0tXRQPRO3kAdiYfBB8ClQNv410DAnpDBsrMNQa8pGr+3yq/BEWIIQTjv1T4b
UbvBCPQDQd2NiT9QIK7BgxCYQLNEoT5pOrjBUPC5QBw5zz89IrPBY8zCQBpOdj8JU8DBQmi1QHvV
/r+C5LrBNeTgQFoqq79Vs8LBqqzrQKS/F8AhQ7fBr5ATQYTuasCRK5vBYf4cQXa2E8A/FZPBRxMJ
QbWbW8AB7o3BP7uhQPJdKUBmBIPBWALWQMu1PkCuV3vBPxezQKQXpkA/hXfBcwGHQIvBn0BD2ITB
ZE6oQCTTVT8Rq6LBsZDhQPJRcz8VzqHBZhSqQEDChr9vwZXBWePkQLOfk0AU8YrBc3ciQB4KRUBe
MpjBPRZmQGW+IEBwVI/BKIedQDUVPz9eFIvBaYb4QFoTmUAycKDBtDQEQSoyoEAj1arBFAXCQBqP
j0D+WLLBVn2yQDIBiECb8qfBzFvNQAk6jUDHF5/BxR/tQNrGm0BKxbPB2SeMQBORb0DBu5nBSY7V
QLpt5j/O3YvB2zDoQAQoir8/o5TBo4mvQBbA1UBHYIjBAsUDQTz/LT5DuLHB9Pu8QKW1QD841rjB
IP3ZQPpHyr8xVrrBjG8YQbH9Xr9Qi4/B4KjDQAe2OUCL5YTBzlepQBkiqEAzNYTBly++QObcrz5Q
vKHBtTG/QJKqh74tm5bBsvbDQNELiEA0yYrBwODYQAbhpL6uR7PBINiKQPkPdUAIPKTB95u0QJmY
hEAiM5bBgs9UQAu6U0C2bpPB5i25QP/jRz+ckY7BkeL4QBJW+T/b+o/ByQPkQLzjD8Db4ZHBq34H
QRUZBL8g35bB8jfGQG4mOL9DPanBGmsAQR18pUA3msDBrJoGQfOonEAdk5nBFMEUQTcMqUD196vB
FyStQLAJjEAbLbnBlD+cQGoF7ECYj4PBlYbRQN6X3kAXyIfBAE2lQIJv10ACyZDBAjQNQSixHb8e
w63BqN4KQT0+zD6Nj7nBT8gDQQ29iT8lu6zB6TGcQKtbvj5i0LnBvWK8QFT41D9e6LPBb4/KQKuV
fD/GvMDBWDK5QMWK+b9+kLvBv2XoQIW1qr+RHsLB2i3tQJ3wFsCxYLbBQ1gnQZ+Wvr6L+5HBIxYU
QZfoDL99aYfBDMcaQUsI+7+Mp4/BZouiQJqkKUC+sILBEj/XQLALP0AKO3vBkISzQIaupkAjlXfB
+0qHQCmGn0B8y4TB+J+eQElrSj+OR6PBew7XQDbujj9mdaLBDRikQEGXdr9lB5bBdi7lQMmtk0AF
7IrBy/siQOLgRED1GJjBT9RmQB//H0CnS4/BbIOdQJAIQz8qjYrBjZn3QNfJlUB3dqDBbOIDQQKh
m0Bf4qrBzA3BQB4sjEALX7LB4SmxQAk3hkAv8qfB2x7MQM01i0DSF5/BfIPsQPf1lkBE07PB0zCK
QCptcEDdtJnBv93XQP1U5D8MqIvBvDu4QHLQST5IkaTBLuywQFrV1ECidojB+rfeQLQ8f8DA64vB
DZmvQGBvIMBENoDB1nj+QKR+LMApKHnBll63QM/QRz59nLfBjHjAQKQQNUD0E4XBuyKpQLVyp0DE
N4TBjIjNQGPNsL9mDpbB8hHRQFTgWT13IZrBon3CQLE5hkBox4rBoUbcQConKsCohoXByAeJQHf2
dED/NaTBcBuzQA+Tg0BwMJbBurZPQNrfV0DoY5PBIV6/QOXmdT/2F5LBX+H+QDdc7D8Am4zBbDKR
QBe2rj5CK6TB7EHPQFx9YD2Iyq3BqQzmQPDrwL8iQozB8lsAQb9VnkA2tcDB3iYGQXNhmUBwmpnB
V4cUQT+wo0DfCazBJy+sQLmFiECFMrnBOYaeQL7i60ACqYPBXjfTQC913ECq6YfB0p6mQNC11kBv
3ZDBQH/+QKmYgsCvoY/Bz13ZQBO8msC9eIbBCgPGQElUf8BeMJLBGl2uQKDpx7+/b3fBIreWQHAs
IMC0b4bB5hGqQE1QVsAncHXBYi/9QC064b+r7G/Buib4QEf7YsAueG7BDzMPQVOTM8BILYDBDP3M
QKzUfj1deb7BxgGeQI0YEb9/5rfBRuWoQKg2mT9c8bfBT9SeQAXXIUAKHYTBop/PQMRZOkA7U3rB
/mGzQIbQpUAmnnfBc8mGQCgRoEDYwoTBTcerQOyfz79AeJTBDUXaQJKuBMCBHJzBJvHyQDtIlT4p
lJvBqSrkQDV2kEBg44rBr28dQAOMSkAwDZjBQZlfQB7hI0BgK4/BeJSfQEi2fD/ZMpHB1S33QMhG
k0CUjaDB5cwDQQTVl0A7/arB96rAQLMriUCKc7LBln+wQHmfhEDKA6jBZmzLQJPoiUCoK5/Bh1Ts
QBMHk0B67LPBcceIQGhMc0DCvpnBXszZQA744T8HCIzB/P/MQCjPob2OOaXBP5mwQJ1700CWKojB
1ITAQPhXd8D9donBFWrbQFePLcDC1XHB5PIHQY5CV8B/T4fBAnGXQOLEqD7UY7LBfPi+QDCsMEDB
tYXBrUapQJbQpUACCITBmSHRQDYiur/k15TBj6XbQCQatr29mZnBEsrBQNbuhEA/6IrByP/hQIgD
NsC5IIXBb/CHQEpCdUATQqTBnxeyQD61g0A2Q5bBmZFLQDDdXkCBa5PBU5PFQCH1dT/ohZPBZHUA
QXZd5z9FWYvBOKzlQK7oCr9l6KvBdzSjQD41gD4bPqfB9BvdQB77wL/OrYnBblQAQbFrmUC80sDB
JfEFQf3rlkANspnBd4oUQbsBn0AAKazBfturQNInhUChRrnB29GeQEdB6kCYI4PBtPPSQPoM20A8
2YfBnkelQG7f1UBAepDBC4rEQG2HfsA0KZLBgVbFQGnVmsC6jYXBAAygQHzxX8DlvIfBLrbyQL5l
/7+PTmvBt8W6QKugFsCZl27BOBDgQAJabMBDOWrBAqsTQT7fKMAtO4TBFTcKQfyUisCZRoPBJ0EK
QQ5eX8DD+Y/BVddqQCJYGT/yELPBrg2rQN45jD9PX7bBwOScQGs0Jb/tOrbBOmudQMNjG0ABpIXB
x//KQAgrNEAM53rBNYq0QFqso0AibHfBH96GQM5+nkAVV4TBGIuuQLuH0b+IkpXBlsLiQHK8DsB1
QZnBQ3P+QDCJkT0lSpnBBa3jQMZzjkD//orBpyYZQJRDUkDRFpjB3jZZQI9hK0Du+47B1lmmQBcy
jT9J2pTB

>  <OMEGA_E>  (2) 
oHUAPzYgAT/wDxo/4HEpPyijAT8oYwI/YAwKP2CxCj8AyQs/9EcNPw==

>  <OMEGA_NBR>  (2) 
     81113

$$$$
50164879
     RDKit          3D

 58 59  0  0  1  0  0  0  0  0999 V2000
    7.7403    4.6053  -20.0755 C   0  0  0  0  0  0  0  0  0  0  0  0
    8.2408    4.8186  -21.3760 C   0  0  0  0  0  0  0  0  0  0  0  0
    6.0036    4.4727  -22.3052 C   0  0  0  0  0  0  0  0  0  0  0  0
    5.5134    4.2460  -21.0058 C   0  0  0  0  0  0  0  0  0  0  0  0
    6.3713    4.3209  -19.9017 C   0  0  0  0  0  0  0  0  0  0  0  0
    7.3730    4.7574  -22.4891 C   0  0  0  0  0  0  0  0  0  0  0  0
    4.2975    3.7670  -19.2343 C   0  0  0  0  0  0  0  0  0  0  0  0
    6.7754    1.7467  -17.3902 C   0  0  0  0  0  0  0  0  0  0  0  0
    6.3004   -1.3793  -18.9845 C   0  0  0  0  0  0  0  0  0  0  0  0
    5.5842    6.5917  -17.0495 C   0  0  0  0  0  0  0  0  0  0  0  0
    5.4148    1.1429  -23.2804 C   0  0  0  0  0  0  0  0  0  0  0  0
    4.7252   -1.2152  -22.6316 C   0  0  0  0  0  0  0  0  0  0  0  0
    6.9300   -0.8052  -23.7693 C   0  0  0  0  0  0  0  0  0  0  0  0
    4.7604   -2.9637  -18.1119 C   0  0  0  0  0  0  0  0  0  0  0  0
    5.9859    2.7818  -16.6295 C   0  0  0  0  0  0  0  0  0  0  0  0
    5.2960    5.1788  -16.5360 C   0  0  0  0  0  0  0  0  0  0  0  0
    5.9925    0.5805  -20.4896 C   0  0  0  0  0  0  0  0  0  0  0  0
    6.6234    0.0794  -19.2140 C   0  0  1  0  0  0  0  0  0  0  0  0
    6.0701    4.1341  -17.3587 C   0  0  2  0  0  0  0  0  0  0  0  0
    5.9109   -0.2326  -22.7732 C   0  0  0  0  0  0  0  0  0  0  0  0
    4.2530    3.8967  -20.5429 N   0  0  0  0  0  0  0  0  0  0  0  0
    5.5898    4.0654  -18.7898 N   0  0  0  0  0  0  0  0  0  0  0  0
    3.2149    3.3900  -18.4553 N   0  0  0  0  0  0  0  0  0  0  0  0
    6.0546    0.8385  -18.1255 N   0  0  0  0  0  0  0  0  0  0  0  0
    7.9833    1.8925  -17.5487 O   0  0  0  0  0  0  0  0  0  0  0  0
    7.2106   -2.1910  -19.1155 O   0  0  0  0  0  0  0  0  0  0  0  0
    4.9892   -1.6952  -18.7545 O   0  0  0  0  0  0  0  0  0  0  0  0
    6.6360   -0.1286  -21.5431 O   0  0  0  0  0  0  0  0  0  0  0  0
    7.9981    5.0283  -24.0961 Cl  0  0  0  0  0  0  0  0  0  0  0  0
    8.3992    4.6592  -19.2214 H   0  0  0  0  0  0  0  0  0  0  0  0
    9.2899    5.0294  -21.5217 H   0  0  0  0  0  0  0  0  0  0  0  0
    5.3374    4.4292  -23.1541 H   0  0  0  0  0  0  0  0  0  0  0  0
    5.0223    7.3223  -16.4491 H   0  0  0  0  0  0  0  0  0  0  0  0
    6.6612    6.7995  -16.9659 H   0  0  0  0  0  0  0  0  0  0  0  0
    5.2766    6.6688  -18.1028 H   0  0  0  0  0  0  0  0  0  0  0  0
    6.2692    1.8291  -23.3756 H   0  0  0  0  0  0  0  0  0  0  0  0
    4.9326    1.0197  -24.2614 H   0  0  0  0  0  0  0  0  0  0  0  0
    4.6895    1.5576  -22.5649 H   0  0  0  0  0  0  0  0  0  0  0  0
    5.0944   -2.1866  -22.2707 H   0  0  0  0  0  0  0  0  0  0  0  0
    3.9972   -0.8101  -21.9134 H   0  0  0  0  0  0  0  0  0  0  0  0
    4.2403   -1.3480  -23.6100 H   0  0  0  0  0  0  0  0  0  0  0  0
    7.2841   -1.7830  -23.4110 H   0  0  0  0  0  0  0  0  0  0  0  0
    6.4528   -0.9262  -24.7530 H   0  0  0  0  0  0  0  0  0  0  0  0
    7.7830   -0.1163  -23.8578 H   0  0  0  0  0  0  0  0  0  0  0  0
    3.6796   -3.1165  -17.9756 H   0  0  0  0  0  0  0  0  0  0  0  0
    5.1686   -3.7707  -18.7380 H   0  0  0  0  0  0  0  0  0  0  0  0
    5.2584   -2.9729  -17.1311 H   0  0  0  0  0  0  0  0  0  0  0  0
    4.9343    2.4656  -16.5650 H   0  0  0  0  0  0  0  0  0  0  0  0
    6.4002    2.8861  -15.6159 H   0  0  0  0  0  0  0  0  0  0  0  0
    5.6024    5.1079  -15.4819 H   0  0  0  0  0  0  0  0  0  0  0  0
    4.2178    4.9773  -16.6188 H   0  0  0  0  0  0  0  0  0  0  0  0
    4.9124    0.3719  -20.4908 H   0  0  0  0  0  0  0  0  0  0  0  0
    6.1570    1.6626  -20.5994 H   0  0  0  0  0  0  0  0  0  0  0  0
    7.7138    0.2172  -19.2577 H   0  0  0  0  0  0  0  0  0  0  0  0
    7.1270    4.4388  -17.3715 H   0  0  0  0  0  0  0  0  0  0  0  0
    2.4188    3.2383  -19.0412 H   0  0  0  0  0  0  0  0  0  0  0  0
    3.4342    2.5459  -17.9660 H   0  0  0  0  0  0  0  0  0  0  0  0
    5.0916    0.6962  -17.8967 H   0  0  0  0  0  0  0  0  0  0  0  0
  1  2  2  0
  1  5  1  0
  2  6  1  0
  3  4  1  0
  3  6  2  0
  4  5  2  0
  4 21  1  0
  5 22  1  0
  6 29  1  0
  7 21  2  0
  7 22  1  0
  7 23  1  0
  8 15  1  0
  8 24  1  0
  8 25  2  0
  9 18  1  0
  9 26  2  0
  9 27  1  0
 10 16  1  0
 11 20  1  0
 12 20  1  0
 13 20  1  0
 14 27  1  0
 15 19  1  0
 16 19  1  0
 17 18  1  0
 17 28  1  0
 18 24  1  0
 19 22  1  0
 20 28  1  0
  1 30  1  0
  2 31  1  0
  3 32  1  0
 10 33  1  0
 10 34  1  0
 10 35  1  0
 11 36  1  0
 11 37  1  0
 11 38  1  0
 12 39  1  0
 12 40  1  0
 12 41  1  0
 13 42  1  0
 13 43  1  0
 13 44  1  0
 14 45  1  0
 14 46  1  0
 14 47  1  0
 15 48  1  0
 15 49  1  0
 16 50  1  0
 16 51  1  0
 17 52  1  0
 17 53  1  0
 18 54  1  6
 19 55  1  6
 23 56  1  0
 23 57  1  0
 24 58  1  0
M  END
>  <OMEGA_C>  (3) 
PrD3QEFek0CMmqDBJNoDQT8ymkAWAqvBdx3AQLMgj0D6cLLBhW2wQD3fh0DrC6jBfeHLQHdEikCq
Np/BvO/rQN88mECs6bPBfoWJQCIXcUDR35nBtc/YQGuU3z8cH4vBupzJQN6NsL9K4JfBKrKyQEPv
0kBWZYjBMkatQJdJkj9SPrrB4zSXQE+Nm7+BDbXBPcLdQFYiTr+OJ77B41SYQIysPcAm5ZDBZIy/
QMwIMkAzCYXB4HipQAS5pUDLSYTBNcK/QEacFD+36qPBxvLTQLCZoj1TtpnBmT7CQJVKhEC43orB
VCa9QKgzbr6YL7bBpBiIQFpkeUDbV6TBtN+yQGQXgkB1UZbBVsBNQCr2WEBspJPBeb/BQGKmVj8g
AZHBc3f/QDM98j+9Y4zBc73mQLQ5DMCJ7JjB76efQFX72L8uCZbB8VnUQKS1A75RWKzBx/D/QJzn
oEDRxMDB+WIGQUEYlUCHxZnBjqMUQYrwoEB9LKzB8suqQBa8jUCWO7nB6ragQHpQ6kDHl4PBpSjV
QDeV2UAkuofBGdqoQLBm1UB70pDBi53IQFIg6j8uAbvBONidQEaEgj9fF8LByBCWQPVdxz/dhLTB
IgWjQADxC8B1KrLBadF/QAtgT7+yTq/BJLCHQLWJrL814bzBthfpQLs65L+ySbvBc33OQCobbb80
BsbBCg75QBQ97r243L7Bb35rQDd1R8AZzo/Bd2WlQNVSccBw55XBjkSoQDJDPsCJDInBw+WdQK7L
HUAqhYTBks7MQHq1OECN2nnBz0azQEp0o0ALtnfBQ/iGQMNFn0Bc84TBkDKdQN5nvj4w7aPBNQbF
QHDP1D99y6TB2tf2QPFeXj7XD5rBnhDkQHoKjkDU+IrBh80aQLZAT0BQVJjBZMpbQD/wIkB1uo/B
au6iQBQ7Mj+FLI/BuRX4QP+KlECHoKDB1OkDQUeim0DPCavBKg/AQIGNkEAIX7LBtM2wQIVDiEC7
+6fBGG3MQC3nikD/Mp/BBdbrQMXRmUB55bPBaXiKQPKbcECgwZnBMmLYQOmW4T/jZYvBQBK9QEkp
ub/GEZbBF7awQBbv00CKzYjBd+/dQDX9oT/LkrnBp0WgQLZzvr6HybjBZmrrQDbll7/PB7zBQrCs
QKyxRMB8wIjB0onBQGDvNEBFAIXBLAmqQFvLpkBdVYTBk3LDQHSk8D4mkaPBPJHPQIA+jL1vpJjB
F1vDQG+ZhUDy4orBCCHQQAAoFr5EHrbB+8eIQCJfeEAXO6TB3LWzQL2wgkBZR5bBKGlQQNLGV0Ds
bpPB+x+/QJ7ZWj+lwZDB3wP/QM2h7D/BBY3BB5mqQMTDBcAHD53BbSvEQMeP8r+f4ovBmBDZQDIw
vr5UCavBsZn/QEB5okBExcDBH6EGQSJ6lkDQ0JnBt60UQQ94okBUP6zBxnaqQEbUj0BFHbnBN1me
QO4D60D7/4PBMerSQCkk3ECyd4jBaaylQPgR1UB7J5HBsvH/QL0UtT9upLfBHirZQMZ/sD+zPsLB
eY/KQF/VAEAUTrXB+7+WQIsesb8gSbbBV7uMQI4Avj5ChLTB/FWbQE2rhr7hdMHBSZ3hQA2mDMBc
k7nBi9fmQI9zib+GtcTBFq4GQatZhL8QDLrBVuy0QN6sVcCtdoDBKyaKQO3fN8BiT4nBcBO1QJUP
esAuGI7BTeifQMEhIkDc5IPBawvRQMp3O0BVSXrBWwS1QLzkpUCK83fBk8aHQIvSnkCOqYTB9Zyg
QIxq1D6nwKTBPRfOQCSjwT8/caTBrKfyQHUK9b1FEpjB4PvkQGn6j0D5DovBKFEdQJMLTUB4D5jB
zoNfQMIvIkAJfY/Bl9GfQDFkVT/BG4/BGFr2QKhKmUBuRKHB5U0CQYIRoUBXy6vBoVW9QB/Fj0BW
trLBNG6vQOqXh0DTMKjBHpPLQBCkjED3jp/Bqx3oQPGJnEDvgLTB6KyKQIZscECFppnB2/bYQNdK
3D+gTYvB6XKrQAQflL9U0pnBh9mvQDGK1UBjmonBu1zgQFkDhr9bCLnBx5D1QL1fsz9ChrjBoY2p
QL4eOj+y77zBwBxKQNg4yb9ot6DBYzLCQKzZNUC3MoXB7iWsQOK3qEDYkYTBDZLlQAFVWj7hCqPB
Um3RQAzpR76bQJjBrKvEQAdhhkBOJYvBKH/RQNHyxz43ILbBgR2IQKgpdUBhJaTByBm0QExpg0As
dpbB5zJSQNPpWEC0AZPByi7BQB9Hej98jZLBW2L/QNdlwz9z/YnBQM2uQP6cE8DeeJbBi1+HQMvg
JL8jn57BC8HEQCUe/j6G/KrBlHn6QNxypED1jMHBo/oFQfD7nEBilprBt68SQbKBqkBaNK3B+n2n
QKpPjEAQWrnBbxKeQNO87EDasoTBKLvRQJX33kC8+YnBxmWiQLzv1EDUu5HBhXnGQOxK4b9dTLfB
k2ToQC+5i7/Xl8HBkMH8QMxMp78GRLTB9sPqQFqXGkCjcbbB4AAJQSvIkj+mwbPBw6T9QMhbrj93
FcHBuneeQCUQ3z+RALvB8taxQNwqLD9WesXBDfaPQOZmmzvGK7vBuZMUQGREhb8/iqTB/xhhQA2M
F8CSEabB2080QEL7AMA9I5nBDFqgQDpKJEAQL4TBpEbRQAXkPEAyl3rBKXy5QKfAqUAd3HjBxyaK
QM24n0AnMITBEDz5QHWEjj/32qHBt+L5QBu4G79K86XBke7pQCqxMr+IYZPBE4HmQFQCkED5dYvB
ZVUeQL5sTEAWbZfBVIRiQJOkJECV3Y7BgAejQDp9oT+R+JPBPub2QHYXkEBbvqDBMFkDQfwLmEB/
IqvBLHW+QP7EkEA2crLBbvKuQARdiEBhEajBBtzKQPQWiEAkTp/BBoLqQBhmmEC/+rPB+66HQL7c
ckB+6pnB5KjYQJglyj89ZonBfOvdQIByz79rAJDB86yzQFHO0EDOKonB3TTSQHz+eL+t5bfB4SDz
QCYNpT+e7rnBtRGkQCiAhj8JZLXBHHvtQHvRfMD7643BSg26QKVxKUANNYXBE+uqQDA0pEBqaoTB
wDbYQGO3EL/O1KHBLS3lQP0sn756O5bBIxnBQFE2gEDA8orBdpDRQFVc+T79jrPBmCuGQMVnfUD6
WaTBF8exQFU4f0CoaZbBcclIQFDuX0D1mpPBabrLQLUoTT/P/JHBbC78QAB/uT+fVoXB/UjCQIkt
1b89AonBH6H2QNoJLMA5EZPBWVTdQAHJHj+DSajBhIb+QE/Nn0D65sDBLikGQf4hkECz9pnBFzYU
QdvhnUDYVKzBhcWoQNFckUD7K7nBW22jQMpA6UCMT4TBkFXWQKL01kABK4nBu4enQBwU0kCwa5HB
spO6QPXuyb9NhrPBdTbKQAwXeL+bd8DBwUryQHSBs79YxLbBvJnzQBseFUBbFLfB4nMJQQexVj9N
yLjBd9PqQHHOoj+Qe8LBDnuiQOtmBUAJaLLBoLCcQE3WhD+e/r3BVqqMQESj3D56E7HBkZ8BQQAg
l8BIB5HBNwryQCRTdsDXO4XBvC7MQGOvh8CPlY/Bge+YQIM8FEANk4bBqXS/QPr7MUCXJ3nBx/22
QJlao0DvTXjB8y+IQBR6nkCmZ4TBZ2TsQH/wrr99IaXBCnm2QHOjYL8pDaLBebMDQfF3Zr3K85XB
Mq3jQFPMhkAl9orBRKQUQBLHW0DmNpjBgkhSQKQhKEAc34/BWKyvQOMbgT/FdZXBOMf2QJJqkEB3
i6DBmnoDQRHRl0DE66rB4xG/QEBCj0BWabLBeDavQBVSh0BoDajBZMDKQNUSiEA/NJ/B/ivrQDY1
l0AW2LPBEmeHQHd7c0AE65nBhGTYQH2IyT9DVInBEK7KQCy8zL/kz5TBEFGzQFe50EDu3YjBUgIE
QQtI5b7j0bfBiOPLQNLAnz+0B7fBkL+7QEShlr82qrrBFamKQIrkM8CnCZnBkxG5QOmwKEBJToXB
ZUyqQBzvo0DAQYTBeLDzQCSrx73Lx6HBGjrmQNMFqr7CEJbBDHvAQJwkgEBC3orBhdXYQKYoTb4w
abTBY06GQPEefEAXY6TBJmWxQO3tf0ClWJbB+rpHQOmxYUBMpJPBmzPNQJBVUD8mNJLBuBj7QGps
uD9Z24TBP0LZQA1iIsA9oI/BM5SiQL78yb9DWZnBoVjRQDqd4b4uIKnBBo3/QK1vn0ADscDBwPAF
QTEikUBwtJnBUVUUQaD2nUBfDKzBpq6pQMJDj0C/MrnBBhCjQPMA6UCb9YPBXf/VQAq+1kCQzojB
QlenQJdt0kCIIZHBDIQIQZcAvr+E7LXBzKQFQT2Wjr77ecDBg5AOQXqFej4IebPB6HyqQBEutT/O
mLTBYuPgQCzL+D99rrLB9AvPQO3UtT9wr7/B8TGaQFXegb+5V7jBgV+/QC+Wf78LTcPBMv3EQJCX
DcB8zbjBScFWQHFsKsD/5JzBpH6cQD8KZsDVT53B9N6FQLdqR8AJq5DBODSYQAA2E0Dn9IbBFF69
QOybMECBQXnB9DO2QIqnokCO9nfB2YuHQBdXnkA/ToTB7gL8QJaJdj/L16LBCeMHQTGiOL//lKPB
up4BQUKP474NKpHBUBfjQCCOhkAD0YrBIfMTQPKwXEA6TZjBRe5QQP+XKkD+vI/BEZmyQI3Chz/e
L5bBgN34QMomlkAGAaDB1PkEQWYYmkDRYarBNCnEQAUaiEBPELLBMk2zQLozhEBUrKfBkVXNQMN8
i0B8wp7Bbo3vQK5sk0CEZrPBaUaLQBGVcEAWfJnBThHWQOoK7D/Ib4zBFfPLQHIzzT18JKTBtBiu
QB3o1UB8KYjBHl0dQdZsH8BdII7B2O4RQR8WPb/WcoDBB8stQXG0Qr67M47BcEvnQC/2EL+RMrXB
cB3CQHVoOED0FIXBozyoQCdKqEBm44PBlu3nQASsjL/bTpPBF6nEQO09Wb4WPZjBrbHCQNZMiEBI
horBsugYQW8xfL85QozBpwOLQIDkcECwAaTBnpyzQKVVhUBa7JXBmcZRQHflV0DSLpPBACO6QHI9
dD8mdpHBxXn7QIDF/j//IY/B/Qu3QJiDgD8hPajBY3DjQNvGT7+G3KnBnR0JQZOaAL/h9JPBtk4C
Qft4mUATPMDBQXIGQcc9m0AbFJnBpaIVQUk6okAvcqvB4hSwQFV7gkA99LjBbfqaQDpA7EBXU4PB
fBXQQB7e3kAcsIfBeHCjQLBU10CeipDBrUMiQa2cKcBge5bBtTsqQXa2NMDevojBnMEOQUloRMC7
eYzBctMOQbm8qj6meX7BWUkDQV29p7+JgH3BcsMeQbZZiL/RCnbBPM0qQZ+oYT8/5YzBajU6QZOS
Cb8dnojBZDgzQV/9sr65eZbBjLf6QMgXrr9D4LjBIUfHQGsAD7+Y2rjBftL2QMuK0D5QgbbBJtqg
QM0sJkCeUoPBjnTUQMZ/O0BNKXvBHdiyQEENp0CQAXfBGTOGQNSDn0BKW4TBsTLgQMvmor8F1orB
ZXHoQMPYA8AjlpfB2s+nQKGdV79ZHZjBhQPkQO2lk0DzlYrBrtcgQJTDRkCT35fBxOpiQHFQJkDG
mY7BVPOaQI5ekD+FVJDBL9n4QDDRlkDVGKDBS+UEQYj8mkBue6rBchfEQBBeiEDyILLBG1uzQGtU
hEAQu6fBPWjNQOrZi0Bu1Z7BBF7vQM8dlEB1fLPBmnaLQCv2cEDdhJnBNyDWQGSn7T9smIzBxj/I
QAA4Jzlck6PBK2KtQPIV1kApF4jByMUCQcjXN8DKg4HBfS0gQaTNDMDwm47BgecLQTVDi8A6IJHB
m63kQL8TCb/tzrTBDsbCQP1pOUAlM4XBvT2oQHRLqEAP5YPBzwXxQDWmUr8uK5PB6nbGQJJVh752
b5fBWf3CQODEiEBPm4rBkukJQaGNOMDlc43BKyGLQG0NcUBXCqTBU8ezQPy1hUBN/JXBJE1SQMEj
WEBWM5PBKDa6QB+bbD/oJpHBWM/7QGRq+z9qPo/BN6ewQJnZWz/UY6fBFr7gQBXtWr8mlqnBtsPz
QJf+D8DtSpTBoSMCQbdymkB0U8DB8XQGQb32m0BYLpnBjoIVQdNxo0BIkKvBfwSwQFyIgkBDArnB
sAyaQNQF7EADMYPBhEDPQCGB30DJo4fBToyiQBCa10BgdJDBNRXmQCfZVsChxYDBfY8OQbXTWsBz
UXnBZK0BQWOu6r8FXH3BsxclQVqWDcD4DpfBGSUfQUFrlL9IzYvBMwcsQSSyL8D/x4nBLfEQQZg3
jMDnjZnBntwXQV3Gm8AgKYzBoaf4QBxLm8BKR5DB2uv4QETSpL+RwrjBRMTEQB+DCL+xhbjBqVbz
QMC76j5tsbXBhZ6hQGRKJ0D2TIPBzZ3VQOF4PECijXvBpwSzQGH8pkAoDHfBcVCGQFAVn0CrVoTB
x78FQdUyub6mpJfB6+XzQCflEL9mpIrB6P6tQATVhL8sHpbBFzLkQNJxlECYrYrBFWQhQKi8RkAP
4ZfB0KpjQFO1JkApm47BX+eaQPP5iT9RC5DBQW/4QJmQlkAXEaDBgcUEQdxzmkBZcKrBQenDQNvP
h0CjILLBRRKzQBbNg0B4vafB2v3MQBGVi0Ai1Z7BfTzvQEFzk0AKdbPBc+iKQKw3cUDFi5nBDafW
QB417D9Ol4zBBqzQQCgKDL5BDKPBtwCuQHfc1UDQGYjBklMCQUCGPcAqin/BSC0gQWwkFsClw4zB
oMkKQXCBjsApZ4/BGSq0QJ9+4z4CJ7TB9K7BQBz9N0CoVIXBZEGoQAEeqEB55oPBEJzwQATlZr8e
/ZDBlc3JQHuPpb5z75bB5YPCQEU/iEA7oorB/5IJQZP0PsBRr4vBz8qKQGcycEB8EaTByUuzQImL
hUCQAJbB9K1QQEUJWkDQN5PB9v67QHIybD9Br5HBffn8QIrV+D/4lY7BND3yQOIPBb/nKKfBN4+u
QNFztT6msqjBhRb0QBxqFMD3lZLBuDMCQblmmUDgR8DBwC8GQdjvm0B6I5nBwmcVQdrLokAzgKvB
BeOvQPgKgkAnBbnBggWbQIkQ7EDNMIPB7QDQQDjO3kBLq4fBQR2jQAiI10B0dZDBxK/kQKR4WsCi
Jn7B9cUNQZMdYsBZynXB8L4BQfvt9b/r1XnBdC0lQTxmF8A5M5XBvKcfQYMCp78W8InBwK4rQden
OsBN6ofBgeQPQZKrj8DT0ZfBbmYWQYbrn8D5bIrB7931QJJ1ncChnI7BpuOWQPpyWT8vz7fBqEbP
QJbyjT/88rXBH5u6QKKcDr8da7fBzEugQPw4JUAk04PBdyrTQDbLOkDTZnvBJxezQNKlpkA8EnfB
ejOGQKJfn0BHU4TB2OwGQf9S1b4Y+pPBchztQFYEM786YojBArWvQB7Dhr9uB5bBQOXjQGxqk0DF
sYrBoqsfQOHISECl45fBWTxhQP3iKEDUh47BrKucQBs0kD9dxpHBskT3QM4NmUBmEqHBFhIDQXJS
oUAchavBvTi+QN+llECYorLBK+mvQFzrikBPOKjBMxbMQKl8jUDnh5/Bnb/pQNninkBjTLTBKc6K
QA31cUCz6pnBUJjYQH/T1j8vmIvB3FOqQPL1y7/g3JTB71avQHeG1EAfWInB42MFQTfGkz7VJbLB
R6PEQPjCrj83P7bBlFjKQOBbkL/ER7fB8C9LQMX6AcConZzB8afBQDIxM0B0e4XBfHKrQOtPp0Df
iYTBxS7nQIJr+r7nWJ7BkcjQQBbWJ7+ucZPBB0nEQAF3hUBxNovB52LZQMUUBz7rLrHBImOIQCkX
e0DOXqTBBDm0QMdbg0DAkJbBiA1SQCebWECtcZPB3fm/QFX+HD8rNY/BAE3/QOh23j/cK43BwJir
QJO+LMAjm5DB+c2IQMrMj7/16prBjZLKQJ4q1D2MJ6bBTc38QJhtp0DQQcHB5FoGQV6Nm0AbU5rB
dKcTQQmJqUD/0KzBECCoQBVHlEAgR7nBdVWdQJlU60CKYITBoTrRQJ/+3UATlInBTj6iQPSL1EAy
g5HBSEsNQU8NFr8ykK7BzdoJQYwWuj6No7rBiHsKQdyOmT+s7K3By5yhQKkWpD8ErrXBWFPPQNQv
EUBp/rHB4xHOQG9Wtz9Ktb7BfGqnQBMUnb+0ibbBFQLTQCiXhL8ox7/B+erZQHMaAcDO3bPBFg4a
QF4Pxb/DiqHBjGJiQGmnO8D2vqDBbGYvQC4WFMCF2pTBlcCfQFCpIUD7loTBYmTQQNdZOUAqDnvB
H224QKe5p0Dyt3jBzHCJQPxGnkAYS4TB7KUBQd/xJD6dWp3BQ4PxQGcCvb/uPKHBsVznQDj8jL9F
to3BMx3mQMUqj0CQZIvBrBoeQImeTkBj8pfB5qJhQN9+IkBTpI/BYiygQGWsNz+b547B8wH4QPUr
l0C5UKDB4kYEQWy2m0B5uqrB/JTCQH5SiUDBQbLBO0yyQAyvhEBg1KfBXbTMQPLdi0Ax+p7BsNXt
QDAHlUCpr7PBEu6KQHsJcUD1i5nB1GnXQInr6D+KV4zBGhPSQJh/BT03qKPBYe6tQLfs1UCWeYjB
hRkSQSgqXL/RWnzBuhEJQUlETMB1GYXBxVrpQHQbDcAuRmvBs0G3QL3xBT9jE7XBiazCQPFBOECS
P4XBifKoQA1fqEDGEITBYqLrQKAfib/rT5LBy0bIQCPIhL7Z2ZfBIyjDQDokiEDRvorB66z/QFA0
8L/yXIDByjeKQPiGcUDjEaTBZouzQGUghUBpFZbBPz9RQLBvWUAUKJPB3Sa8QCQQcz+6xpHB+Cr+
QGKO7D8/3Y3BWyb1QCe/jb5cW6fBP9GwQJ5cBD9goKnBxz7fQD4wpr8pTofBwzwBQVQmm0Acj8DB
BiMGQWpLnEBXb5nBWNsUQRNRpEBD3qvBMjCuQJX6g0BlGrnBQPyaQPE77EAXloPBa9nPQHdG30Br
NIjBIoqiQJbs1kAxzJDB/k8LQZxbhD3uqHXB7oEdQcSMpb+j4nDBf2waQTaWIb8ztoXB+Ob3QPqi
ecDymYbBz1sRQTIyPsAQqYzBPnEUQQaTaMBcyH7B6ljPQNIyO8BHFW7BRWEAQTr5KMBVIGDBlBXc
QDAopL9LWWTB86WaQJo8bj+gCLnB+yPTQGX7kj//CLfB4eS8QDYzAb/P37fBWVihQE2/JUABnoPB
H23UQD9oPECSVXvBrEW0QECdp0CZeHfBZPaGQF9Dn0ASVITBiLnvQNxLAsCcapbB9PQEQXTeAr+h
j5LB6earQJUIab+X45fBEH7kQKdtk0Be5orBvJ0fQCA3SUBcyJfBFPFhQFx/J0D2m47ByfCcQOeB
lT+UiJHB

>  <OMEGA_E>  (3) 
qLj1PoDJ/D7MMxI/ahAlP7TTJT/IzxE/RGkRP/DsDj+Usg4/+K4OPw==

>  <OMEGA_NBR>  (3) 
     90888

$$$$
