50215526
     RDKit          3D

 50 53  0  0  1  0  0  0  0  0999 V2000
    4.2608    3.4757  -17.7076 C   0  0  0  0  0  0  0  0  0  0  0  0
    5.6215    3.1392  -17.8286 C   0  0  0  0  0  0  0  0  0  0  0  0
    3.4056    3.3644  -18.8192 C   0  0  0  0  0  0  0  0  0  0  0  0
    6.6756   -1.2541  -22.9794 C   0  0  0  0  0  0  0  0  0  0  0  0
    4.9731   -4.4933  -18.5397 C   0  0  0  0  0  0  0  0  0  0  0  0
    6.1078   -2.1070  -22.0206 C   0  0  0  0  0  0  0  0  0  0  0  0
    5.5000   -3.6507  -19.5324 C   0  0  0  0  0  0  0  0  0  0  0  0
    6.1363    2.7209  -19.0683 C   0  0  0  0  0  0  0  0  0  0  0  0
    3.9175    2.9543  -20.0624 C   0  0  0  0  0  0  0  0  0  0  0  0
    6.5596    0.1373  -22.8402 C   0  0  0  0  0  0  0  0  0  0  0  0
    3.7456   -4.1832  -17.9272 C   0  0  0  0  0  0  0  0  0  0  0  0
    5.2657   -0.1715  -20.7936 C   0  0  0  0  0  0  0  0  0  0  0  0
    3.5691   -2.1754  -19.3030 C   0  0  0  0  0  0  0  0  0  0  0  0
    5.3889   -1.5737  -20.9284 C   0  0  0  0  0  0  0  0  0  0  0  0
    4.8069   -2.4797  -19.9143 C   0  0  0  0  0  0  0  0  0  0  0  0
    5.3003    2.6735  -20.2122 C   0  0  0  0  0  0  0  0  0  0  0  0
    5.8860    0.6969  -21.7290 C   0  0  0  0  0  0  0  0  0  0  0  0
    3.0289   -3.0172  -18.3093 C   0  0  0  0  0  0  0  0  0  0  0  0
    7.2396    2.8160  -21.8439 C   0  0  0  0  0  0  0  0  0  0  0  0
    5.7180    3.7793  -23.2376 C   0  0  0  0  0  0  0  0  0  0  0  0
    5.8524    2.2238  -21.5741 C   0  0  2  0  0  0  0  0  0  0  0  0
    8.1204    4.5318  -23.4639 C   0  0  0  0  0  0  0  0  0  0  0  0
    1.3234   -3.4339  -16.6412 C   0  0  0  0  0  0  0  0  0  0  0  0
    7.0768    3.6412  -22.9418 N   0  0  0  0  0  0  0  0  0  0  0  0
    5.0416    2.8153  -22.6562 N   0  0  0  0  0  0  0  0  0  0  0  0
    5.1727    4.7517  -24.0626 N   0  0  0  0  0  0  0  0  0  0  0  0
    8.3087    2.5073  -21.3278 O   0  0  0  0  0  0  0  0  0  0  0  0
    1.8093   -2.6481  -17.7551 O   0  0  0  0  0  0  0  0  0  0  0  0
    3.8723    3.8199  -16.7604 H   0  0  0  0  0  0  0  0  0  0  0  0
    6.2714    3.2023  -16.9683 H   0  0  0  0  0  0  0  0  0  0  0  0
    2.3552    3.5941  -18.7173 H   0  0  0  0  0  0  0  0  0  0  0  0
    7.2026   -1.6692  -23.8258 H   0  0  0  0  0  0  0  0  0  0  0  0
    5.5121   -5.3819  -18.2458 H   0  0  0  0  0  0  0  0  0  0  0  0
    6.2211   -3.1765  -22.1184 H   0  0  0  0  0  0  0  0  0  0  0  0
    6.4385   -3.8987  -20.0058 H   0  0  0  0  0  0  0  0  0  0  0  0
    7.1744    2.4341  -19.1495 H   0  0  0  0  0  0  0  0  0  0  0  0
    3.2544    2.8522  -20.9087 H   0  0  0  0  0  0  0  0  0  0  0  0
    6.9887    0.7873  -23.5884 H   0  0  0  0  0  0  0  0  0  0  0  0
    3.3461   -4.8338  -17.1633 H   0  0  0  0  0  0  0  0  0  0  0  0
    4.6961    0.2410  -19.9740 H   0  0  0  0  0  0  0  0  0  0  0  0
    3.0309   -1.2877  -19.6007 H   0  0  0  0  0  0  0  0  0  0  0  0
    7.7350    5.0758  -24.3388 H   0  0  0  0  0  0  0  0  0  0  0  0
    8.4121    5.2511  -22.6844 H   0  0  0  0  0  0  0  0  0  0  0  0
    8.9966    3.9360  -23.7594 H   0  0  0  0  0  0  0  0  0  0  0  0
    0.3558   -3.0339  -16.3040 H   0  0  0  0  0  0  0  0  0  0  0  0
    1.1974   -4.4798  -16.9578 H   0  0  0  0  0  0  0  0  0  0  0  0
    2.0479   -3.3858  -15.8149 H   0  0  0  0  0  0  0  0  0  0  0  0
    4.1181    2.5262  -22.9083 H   0  0  0  0  0  0  0  0  0  0  0  0
    4.1911    4.7523  -24.2536 H   0  0  0  0  0  0  0  0  0  0  0  0
    5.7611    5.4523  -24.4663 H   0  0  0  0  0  0  0  0  0  0  0  0
  1  2  2  0
  1  3  1  0
  2  8  1  0
  3  9  2  0
  4  6  2  0
  4 10  1  0
  5  7  2  0
  5 11  1  0
  6 14  1  0
  7 15  1  0
  8 16  2  0
  9 16  1  0
 10 17  2  0
 11 18  2  0
 12 14  2  0
 12 17  1  0
 13 15  2  0
 13 18  1  0
 14 15  1  0
 21 16  1  1
 17 21  1  0
 18 28  1  0
 19 21  1  0
 19 24  1  0
 19 27  2  0
 20 24  1  0
 20 25  2  0
 20 26  1  0
 21 25  1  0
 22 24  1  0
 23 28  1  0
  1 29  1  0
  2 30  1  0
  3 31  1  0
  4 32  1  0
  5 33  1  0
  6 34  1  0
  7 35  1  0
  8 36  1  0
  9 37  1  0
 10 38  1  0
 11 39  1  0
 12 40  1  0
 13 41  1  0
 22 42  1  0
 22 43  1  0
 22 44  1  0
 23 45  1  0
 23 46  1  0
 23 47  1  0
 25 48  1  0
 26 49  1  0
 26 50  1  0
M  CHG  1  25   1
M  END
>  <OMEGA_C>  (1) 
UViIQGJyXkAVqY3Bq+OzQPzoSEDtoI7BF/VZQKVRV0DSjZbBS57VQIiFoL/n1bfBcyOfQDvJj8A4
UZTBx3LDQITYBsAmKrDB7P+vQDSlacBqQpzBulzEQA4jLkDhi5jBtrh6QHASPUDHf6DBVOjRQHiT
DD6nuLbBOLdvQG/chcDZao/BpYCoQIyoL75ZWabBumtkQPY5C8CGbJrB/XGsQO5tyb9qbafB69GZ
QB6zHsBtUJ/BMJypQGsaK0CFsqHBUlq8QOpmMj8K1a3BHdlBQH8ZQcCFeZLBr6rnQNc4NEBDwK7B
NPq2QAXgcUCx5rnBoUa7QA9TDkDPl6zBQO0BQZ8EkUD7tbvBH2WpP9DFW8AkIYXBhnXiQB4JaUDE
iLfBAVWhQP4tNED4P7XBuIalQPANmEAkgMDBTfAEQd12IEBEn6rBopfnP/15KcBsCo7BFdR3QKJ4
dEBYFYbBHa/IQKTyTEACv4fBK7wWQLsFZkAdvZXBenvmQPWo1b9Am77BMGOwQDw4rMB/95HBcBPH
QFFMS8CJ8rDBLgjOQHWEecDrC6DBbZTlQCrIG0BHMpnBukdQQMeKNkABRafBPaPfQAOLST/5tLzB
6SVWQICumsB7TonB1EaWQCW8dj6syp/BuPlBQL7RpL8qzpzB34T3QLpsokDgtcLBCJgGQccIqECd
ebXBEvIPQQzoe0BRE77BxCe2PgAsQsCaboLB0EOZP79aj8CbqYfBNBEDQDywWMDWCX3BnMeDQAWt
IUA0RLfBoB2GQHcSmEBtB8LBmVq4QCB5rkACu8PBe/CJQGY1YUDRYo3Bg/RbQAz7WkCdLJbBiiW1
QBSGSUAQf47B4CHVQMNgn7/EzbfB+4SfQO6qj8AjLJTBx5XDQEaPBsA7E7DBHnKwQIxgacAzG5zB
hth6QNJGP0AiJ6DBKrbEQNyYLUDTdJjBG+TQQJiMFD6qtLbBgvlvQFv3hcAZXY/B7x+oQBCmMb7/
QKbB/XdkQMjeC8BTbprB54OsQMuDyb+9VKfBPQyaQGLiHsAhO5/BzWKpQBBMK0BMgaHB3o67QJYB
Mz/Zwa3Bzc1BQMSzQcBnf5LByXbmQFKaNEC8yq7BlEe1QBDHb0D6EbrBEkq6QMRoDkCneqzBie0A
QS4WkUB+47vB1UWoP5pGXMDqOoXBZsfgQLD4aEAYmLfBL72fQMbiM0C7CbXBbq6jQBQnlUB5J8HB
9nYEQUb+IED8yKrBj7/mP3hSKsA9KI7B43J8QGEweEAzyIXBXz4ZQHB/a0C8QJXBWWHKQLTLTEAT
sYfBcOvlQFbt07++mr7BkuewQNHuq8AuwpHBUL7HQFnrSsCG0bDBn6jOQHHfeMDN05/BhGZPQM4p
OUBG1KbBLq7lQNXHGUDEN5nBPwneQEZsTD+/v7zB50VWQDvPmsA4RInBDd+VQAZ2bz5Frp/BvsJB
QCXDpr+w35zBBCj1QHNGokCS4cLBMKYFQW1JqECztLXBTPQOQc1BfECWS77BTyGvPiDvQsAOnILB
dlGZP920j8AqtYfBfx4CQOF8WMC9Kn3BPMCBQOlGIkBpwbbBlVWEQGJhlEAawMLBX1a2QFQHq0Cn
qsTB

>  <OMEGA_E>  (1) 
sCNWP5oMVz8=

>  <OMEGA_NBR>  (1) 
     58372

$$$$
50215908
     RDKit          3D

 50 53  0  0  1  0  0  0  0  0999 V2000
    6.9881    5.1266  -23.8931 C   0  0  0  0  0  0  0  0  0  0  0  0
    5.6104    4.8841  -23.7387 C   0  0  0  0  0  0  0  0  0  0  0  0
    7.9168    4.4533  -23.0789 C   0  0  0  0  0  0  0  0  0  0  0  0
    6.6026   -0.9129  -22.7655 C   0  0  0  0  0  0  0  0  0  0  0  0
    4.9265   -4.5562  -18.5652 C   0  0  0  0  0  0  0  0  0  0  0  0
    6.0601   -1.8945  -21.9149 C   0  0  0  0  0  0  0  0  0  0  0  0
    5.4384   -3.6781  -19.5375 C   0  0  0  0  0  0  0  0  0  0  0  0
    5.1580    3.9757  -22.7644 C   0  0  0  0  0  0  0  0  0  0  0  0
    7.4693    3.5525  -22.0969 C   0  0  0  0  0  0  0  0  0  0  0  0
    6.4229    0.4543  -22.4783 C   0  0  0  0  0  0  0  0  0  0  0  0
    3.7056   -4.2715  -17.9217 C   0  0  0  0  0  0  0  0  0  0  0  0
    5.1326   -0.1408  -20.5036 C   0  0  0  0  0  0  0  0  0  0  0  0
    3.4970   -2.2308  -19.2305 C   0  0  0  0  0  0  0  0  0  0  0  0
    5.3063   -1.5072  -20.7861 C   0  0  0  0  0  0  0  0  0  0  0  0
    4.7330   -2.4994  -19.8604 C   0  0  0  0  0  0  0  0  0  0  0  0
    6.0826    3.3190  -21.9125 C   0  0  0  0  0  0  0  0  0  0  0  0
    5.6932    0.8512  -21.3290 C   0  0  0  0  0  0  0  0  0  0  0  0
    2.9752   -3.1010  -18.2595 C   0  0  0  0  0  0  0  0  0  0  0  0
    6.3514    2.4628  -19.5477 C   0  0  0  0  0  0  0  0  0  0  0  0
    4.1656    3.0653  -19.2365 C   0  0  0  0  0  0  0  0  0  0  0  0
    5.5969    2.3072  -20.8636 C   0  0  1  0  0  0  0  0  0  0  0  0
    5.7071    3.2129  -17.2319 C   0  0  0  0  0  0  0  0  0  0  0  0
    1.2768   -3.5718  -16.6022 C   0  0  0  0  0  0  0  0  0  0  0  0
    5.4455    3.0249  -18.6651 N   0  0  0  0  0  0  0  0  0  0  0  0
    4.2072    2.6138  -20.4689 N   0  0  0  0  0  0  0  0  0  0  0  0
    3.0105    3.5008  -18.6039 N   0  0  0  0  0  0  0  0  0  0  0  0
    7.4870    2.0807  -19.2845 O   0  0  0  0  0  0  0  0  0  0  0  0
    1.7635   -2.7443  -17.6819 O   0  0  0  0  0  0  0  0  0  0  0  0
    7.3324    5.8299  -24.6368 H   0  0  0  0  0  0  0  0  0  0  0  0
    4.8991    5.3963  -24.3696 H   0  0  0  0  0  0  0  0  0  0  0  0
    8.9746    4.6286  -23.2084 H   0  0  0  0  0  0  0  0  0  0  0  0
    7.1591   -1.2094  -23.6422 H   0  0  0  0  0  0  0  0  0  0  0  0
    5.4718   -5.4530  -18.3107 H   0  0  0  0  0  0  0  0  0  0  0  0
    6.2203   -2.9416  -22.1254 H   0  0  0  0  0  0  0  0  0  0  0  0
    6.3692   -3.9055  -20.0357 H   0  0  0  0  0  0  0  0  0  0  0  0
    4.1010    3.7774  -22.6645 H   0  0  0  0  0  0  0  0  0  0  0  0
    8.1869    3.0341  -21.4783 H   0  0  0  0  0  0  0  0  0  0  0  0
    6.8419    1.2022  -23.1351 H   0  0  0  0  0  0  0  0  0  0  0  0
    3.3239   -4.9455  -17.1691 H   0  0  0  0  0  0  0  0  0  0  0  0
    4.5584    0.1526  -19.6372 H   0  0  0  0  0  0  0  0  0  0  0  0
    2.9450   -1.3425  -19.4999 H   0  0  0  0  0  0  0  0  0  0  0  0
    4.8309    3.6780  -16.7566 H   0  0  0  0  0  0  0  0  0  0  0  0
    5.9029    2.2368  -16.7639 H   0  0  0  0  0  0  0  0  0  0  0  0
    6.5838    3.8644  -17.1016 H   0  0  0  0  0  0  0  0  0  0  0  0
    0.3155   -3.1770  -16.2415 H   0  0  0  0  0  0  0  0  0  0  0  0
    1.1378   -4.6015  -16.9635 H   0  0  0  0  0  0  0  0  0  0  0  0
    2.0068   -3.5674  -15.7793 H   0  0  0  0  0  0  0  0  0  0  0  0
    3.4085    2.4941  -21.0585 H   0  0  0  0  0  0  0  0  0  0  0  0
    2.1368    3.4826  -19.0901 H   0  0  0  0  0  0  0  0  0  0  0  0
    3.0514    3.8330  -17.6615 H   0  0  0  0  0  0  0  0  0  0  0  0
  1  2  2  0
  1  3  1  0
  2  8  1  0
  3  9  2  0
  4  6  2  0
  4 10  1  0
  5  7  2  0
  5 11  1  0
  6 14  1  0
  7 15  1  0
  8 16  2  0
  9 16  1  0
 10 17  2  0
 11 18  2  0
 12 14  2  0
 12 17  1  0
 13 15  2  0
 13 18  1  0
 14 15  1  0
 21 16  1  6
 17 21  1  0
 18 28  1  0
 19 21  1  0
 19 24  1  0
 19 27  2  0
 20 24  1  0
 20 25  2  0
 20 26  1  0
 21 25  1  0
 22 24  1  0
 23 28  1  0
  1 29  1  0
  2 30  1  0
  3 31  1  0
  4 32  1  0
  5 33  1  0
  6 34  1  0
  7 35  1  0
  8 36  1  0
  9 37  1  0
 10 38  1  0
 11 39  1  0
 12 40  1  0
 13 41  1  0
 22 42  1  0
 22 43  1  0
 22 44  1  0
 23 45  1  0
 23 46  1  0
 23 47  1  0
 25 48  1  0
 26 49  1  0
 26 50  1  0
M  CHG  1  25   1
M  END
>  <OMEGA_C>  (2) 
NJ7fQCINpED4JL/BvYizQDBKnEDx6L3BQFb9QIWBjkCeobjBIUjTQGKxab+pH7bBt6WdQH3MkcCO
hZTBJuzBQMB+8r+pUa/BTQeuQNVla8DBTJzB9g2lQO5xfkBpHbbBogTvQF1bY0CNxrDBBYjNQFiZ
6D6R07PBVShtQDewiMCWX4/BFT6kQBk0EL5dB6TBNc9fQP3FDsD615nB5cypQHrswL/pSabB1nSX
QFv2H8AL4p7BcqTCQEBrVEDfTK/Bhi62QPvmWT/koarBYmo+QNF2RsCNE5LBsz7LQBKfHUCsYZzB
ZUyFQFYuREBw5JnB4xmzQFypE0C16KbBbKC2QGefTUDZ2onBv26jP76YZMA10YTBvUGuQHWYQUAe
UpXBh6GGQIBIJ0BQwKPBa6tAQNINYEC51JTBjpXvQIYqBUCpRprBw7rhP1OiL8CNdI3BraLqQM+O
ukA0GMXBb8WcQGaurED99MLByJcPQeMdlEDHqrnBUBflQP3Lmr9TI73BxBivQBp/rsA6fJLBZAzH
QOhCPMDrALHBodDLQDLzecAwSaDBqTuDQGbAcUDRULXBsv0CQWIvQkB606vBt/DaQLfimT+5FLnB
D7tUQMZBnsA8WonBad6RQDBIHD4GGZ3BC3s8QMrXq7++/5vBgZaaQNJka0CHDYbBJuS8QHMnD0CG
HIbBOa7SQKBRd0AS0IjBO4yhPlxUS8Co7oHBpqSRPyI/k8AmtYfB3m4AQPlPZMDXd3zBMyRaQGqf
H0Ded6jBvcEIQDLjXkCIuJjB7UlDQF5QdUDXSo3BxkPfQAXMo0CpDr/BIhH9QAKQjkDYgLjBOjiz
QPLSm0Be073B6BTUQB69ab+RDbbBI46eQAK0kcDpa5TBo5nCQAkS878PT6/BI8quQLNza8D6PpzB
097uQGamY0BznLDBqt+kQLSJfUCNA7bB7BHOQIrN5z5JvbPBI6huQATCiMAUVI/BCk2kQCUEHL74
DKTBx0JgQAH2D8CV+ZnBpyCqQFYqwr+NU6bBwNqXQPy4IMCA8Z7B6YjCQP4XVECoKa/BJ1O2QB79
Vz9pl6rBo1I/QBs2R8DXIpLBzSvLQCphHEC/QZzBrW2FQC36REBR3ZnBUxizQOr3EkDqzabB4GW2
QCFQTECCuYnBbHWlPyQQZcAv3YTBtCWuQFkoQEB0MZXB0JWGQHFfJkDrpKPBpbhBQKOUZEBx+JTB
oIbvQMYDBEDsJprB4ZXjP+hPMMBIhY3B4zDqQMs5ukBECcXB0nEPQZZXlEAMibnB4WKcQAMLrEA6
48LBOC/mQGk8mr9SCL3BTjuwQKkrrsCSTpLBmebHQGt6PMDsALHBOLvMQMKmecDLLaDBovICQdMa
Q0BZnavBsBaDQHVocECKOrXBjZTbQC0gmj838rjBVHBWQDA4nsBDRYnB/6SRQP2ZCz52J53BHlA8
QA+Pr7/5PZzBZEaaQDPpaUC+8IXBar28QGTpDUDJ+IXBqV7SQDg2dkDzq4jB/p6pPhnES8AD/IHB
3rqTP4SEk8CSuofBfnkBQLCWZMCAkXzBxuJZQGl0HUBnTKjB9xoKQMb9ZEC87ZjBP5xEQEv0ekDk
e43BgXvjQEc6nkA8P7/Bk/D/QB2RhkAP2LjBIB23QFtgm0D7dr3Bl+TEQAdYR79bk7jBjTecQOno
hsCIFpLBloK7QLJC6b9ThrHBbxeTQLWSScB1H5nB7RnwQLyGWEDanbDB6RWnQPT5gECIRbXB9DvB
QBDDDD9dIbXBJa3GQC7/lcAh85DBn8uoQCz3Wb4nmaPBmRbfQHBxQsAZyZ3Bk3SuQG5Cxb/c/KbB
OMa0QIdmJcAFGJ/B33PDQGYAU0Dcoq7BPpGzQDuAWT/ej6rB/FzoQCiOgsBJspbB287JQGhxGkB/
xZvBVIGEQF5rRkAvtJnBrRCyQC13EkBbZabB6fi1QNUSV0B7xYnBjjQWQZl/csB7h47BeaCrQGWl
N0CCiZTBVKaFQIigJkD3aaPBMd9BQCS2bUAFP5XBsdfuQLAHBkCfwZnBLesIQaNMkcC02JXBHK7v
QM+TskCIh8XBnP0QQeWYiEDsPrrBP0uhQA+BrUBZZsLBH/DOQD3Kfr+zqMDBDLSCQOeQlcBQjo3B
EUi+QPk0NsCLKrTBarNlQDOAMcAy6pnB/QwDQToCNEAyw6vBRviEQFAmfUAyB7TBAuPIQN9arT9t
kbrBi1bNQG+AsMBAqYvBhUmcQJqhmLvVt5vBrZz4QLv3JMAsTKLBmF2YQONbakDTqoXBCcLFQPjw
I0DyL4XBS47LQDQ7h0DtZIrBiV0mQVwth8AfXI7BSSUXQeSFL8ALM5HBtTUPQVwBdcDWdYbBvjhY
QFV0HUCLGKjBsesLQLMpc0DPfpnBsYVEQC5MgkBLyI3BKA/hQOfNnkA7i7/BkUu1QOidlEAW2r7B
rAD+QEQFjkClBLjBLNnHQPbtRL/Za7jBxNmnQNbaisARE5PBNuW8QKOY5799dbHBTbuZQDBmVcB1
KJrBWk+mQM5ddEARjbbBbTTvQJzWZkAgu6/BQHnEQNPhDz+o/7TBUOzTQIjujsB9oJDBNvaoQMQe
Qr4bv6PB+PDjQNLiJsCTWZzBKKSuQEF4wr/jCafBv2y4QOz2H8AJ8p7B1/TCQBIDVEBMva7BC+S0
QD3gXT8hm6rBVi/yQF4+ZMBS+ZTBcHjKQLZTG0B9vZvBY9+EQPKlRUCls5nBleSyQDA7E0CrZ6bB
kfK1QNo4VkC5sInBy+0aQTJAGsASt5LBYgKsQNCNN0Dog5TBvFqGQKaKJkD6cKPB5uFBQEaEa0D9
O5XB8jTvQA5vBUD4n5nBY2MOQSi4aMD/yZHBJW3sQHaBs0AO2sXBrymfQAweoUCvtMTBrdIPQYuS
lUCjmrjBKOHSQLWufb86asDBP/mQQIN1oMBOgI/BomG/QPZ2NcBNFbTBsC5wQBdjTcCn3ZvBcb2E
QLdMZEDIH7bB4NYCQeEdTECpFKrBSc3NQGVlrj9IT7rBEYXeQO1KqMCmY4vBWnybQEZ6yjww+pvB
d8f6QNXe+L/QE6DBsCmYQAHIaEBOnYXBOMXFQO3qIkD6JIXBtl3LQCL4hkD6M4rBql8rQdU9JsAA
9o/BSTsbQZJxBcDhHpvB8qATQX/Tz79Lw43BNd9ZQBJNHUB3KajB/PQLQA1hcEDvf5nBgftDQGP7
gEBFv43B

>  <OMEGA_E>  (2) 
gAcWPAAAAAAE5Co/fBgxPw==

>  <OMEGA_NBR>  (2) 
     46886

$$$$
50146773
     RDKit          3D

 63 66  0  0  0  0  0  0  0  0999 V2000
    7.7692    7.8247  -22.8489 C   0  0  0  0  0  0  0  0  0  0  0  0
    8.0266    6.4578  -22.6462 C   0  0  0  0  0  0  0  0  0  0  0  0
    6.0634    0.6672  -20.6742 C   0  0  0  0  0  0  0  0  0  0  0  0
    6.6669   -0.4928  -22.7384 C   0  0  0  0  0  0  0  0  0  0  0  0
    3.8629   -4.4167  -17.4043 C   0  0  0  0  0  0  0  0  0  0  0  0
    2.3758   -2.6701  -18.2434 C   0  0  0  0  0  0  0  0  0  0  0  0
    6.7925    8.2234  -23.7837 C   0  0  0  0  0  0  0  0  0  0  0  0
    5.6228   -0.5487  -20.1212 C   0  0  0  0  0  0  0  0  0  0  0  0
    6.2018   -1.6948  -22.2008 C   0  0  0  0  0  0  0  0  0  0  0  0
    4.7760   -4.1293  -18.4274 C   0  0  0  0  0  0  0  0  0  0  0  0
    3.2884   -2.3928  -19.2788 C   0  0  0  0  0  0  0  0  0  0  0  0
    8.3645    1.9696  -23.2296 C   0  0  0  0  0  0  0  0  0  0  0  0
    8.5972    3.3723  -23.5959 C   0  0  0  0  0  0  0  0  0  0  0  0
    6.3183    5.8912  -24.2975 C   0  0  0  0  0  0  0  0  0  0  0  0
    6.6001    0.6878  -21.9804 C   0  0  0  0  0  0  0  0  0  0  0  0
    7.2874    5.5009  -23.3658 C   0  0  0  0  0  0  0  0  0  0  0  0
    2.6473   -3.7013  -17.3092 C   0  0  0  0  0  0  0  0  0  0  0  0
    5.6841   -1.7387  -20.8960 C   0  0  0  0  0  0  0  0  0  0  0  0
    4.4997   -3.1219  -19.3656 C   0  0  0  0  0  0  0  0  0  0  0  0
    6.0673    7.2483  -24.5160 C   0  0  0  0  0  0  0  0  0  0  0  0
    7.1713    1.9031  -22.5465 C   0  0  0  0  0  0  0  0  0  0  0  0
    7.5147    4.0904  -23.1617 C   0  0  0  0  0  0  0  0  0  0  0  0
    1.6544   -4.0618  -16.2677 C   0  0  0  0  0  0  0  0  0  0  0  0
    5.4051    4.1643  -20.6255 C   0  0  0  0  0  0  0  0  0  0  0  0
    4.0870    4.5133  -18.6006 C   0  0  0  0  0  0  0  0  0  0  0  0
    1.8541   -5.3084  -15.3894 C   0  0  0  0  0  0  0  0  0  0  0  0
    4.2323    8.6443  -25.0870 C   0  0  0  0  0  0  0  0  0  0  0  0
    5.3217    3.5575  -22.0330 C   0  0  0  0  0  0  0  0  0  0  0  0
    6.6628    3.1819  -22.5778 N   0  0  0  0  0  0  0  0  0  0  0  0
    2.9005    4.4091  -18.0727 N   0  0  0  0  0  0  0  0  0  0  0  0
    4.2380    4.1492  -19.8537 N   0  0  0  0  0  0  0  0  0  0  0  0
    5.0646    4.9404  -17.8458 N   0  0  0  0  0  0  0  0  0  0  0  0
    0.6530   -3.3752  -16.0995 O   0  0  0  0  0  0  0  0  0  0  0  0
    6.4562    4.6644  -20.2345 O   0  0  0  0  0  0  0  0  0  0  0  0
    5.3805   -2.9956  -20.4154 O   0  0  0  0  0  0  0  0  0  0  0  0
    5.1158    7.5698  -25.4557 O   0  0  0  0  0  0  0  0  0  0  0  0
    8.3184    8.5677  -22.2897 H   0  0  0  0  0  0  0  0  0  0  0  0
    8.7853    6.1446  -21.9442 H   0  0  0  0  0  0  0  0  0  0  0  0
    5.9916    1.5808  -20.1027 H   0  0  0  0  0  0  0  0  0  0  0  0
    7.0779   -0.4709  -23.7369 H   0  0  0  0  0  0  0  0  0  0  0  0
    4.0890   -5.1892  -16.6842 H   0  0  0  0  0  0  0  0  0  0  0  0
    1.4654   -2.0951  -18.1604 H   0  0  0  0  0  0  0  0  0  0  0  0
    6.5958    9.2734  -23.9428 H   0  0  0  0  0  0  0  0  0  0  0  0
    5.2395   -0.5780  -19.1119 H   0  0  0  0  0  0  0  0  0  0  0  0
    6.2405   -2.5973  -22.7927 H   0  0  0  0  0  0  0  0  0  0  0  0
    5.6987   -4.6865  -18.4949 H   0  0  0  0  0  0  0  0  0  0  0  0
    3.0654   -1.6257  -20.0055 H   0  0  0  0  0  0  0  0  0  0  0  0
    9.0145    1.1373  -23.4559 H   0  0  0  0  0  0  0  0  0  0  0  0
    9.4611    3.7648  -24.1118 H   0  0  0  0  0  0  0  0  0  0  0  0
    5.7650    5.1440  -24.8470 H   0  0  0  0  0  0  0  0  0  0  0  0
    1.0091   -5.4053  -14.6918 H   0  0  0  0  0  0  0  0  0  0  0  0
    1.9063   -6.2024  -16.0282 H   0  0  0  0  0  0  0  0  0  0  0  0
    2.7900   -5.2095  -14.8200 H   0  0  0  0  0  0  0  0  0  0  0  0
    3.5130    8.8234  -25.8997 H   0  0  0  0  0  0  0  0  0  0  0  0
    3.6891    8.3737  -24.1696 H   0  0  0  0  0  0  0  0  0  0  0  0
    4.8197    9.5572  -24.9096 H   0  0  0  0  0  0  0  0  0  0  0  0
    4.6932    2.6556  -21.9911 H   0  0  0  0  0  0  0  0  0  0  0  0
    4.8611    4.2943  -22.7076 H   0  0  0  0  0  0  0  0  0  0  0  0
    2.7567    4.6532  -17.1137 H   0  0  0  0  0  0  0  0  0  0  0  0
    2.1336    4.0850  -18.6266 H   0  0  0  0  0  0  0  0  0  0  0  0
    3.4142    3.8193  -20.3147 H   0  0  0  0  0  0  0  0  0  0  0  0
    5.9912    5.0043  -18.2163 H   0  0  0  0  0  0  0  0  0  0  0  0
    4.8860    5.2034  -16.8976 H   0  0  0  0  0  0  0  0  0  0  0  0
  1  2  2  0
  1  7  1  0
  2 16  1  0
  3  8  2  0
  3 15  1  0
  4  9  1  0
  4 15  2  0
  5 10  2  0
  5 17  1  0
  6 11  1  0
  6 17  2  0
  7 20  2  0
  8 18  1  0
  9 18  2  0
 10 19  1  0
 11 19  2  0
 12 13  1  0
 12 21  2  0
 13 22  2  0
 14 16  2  0
 14 20  1  0
 15 21  1  0
 16 22  1  0
 17 23  1  0
 18 35  1  0
 19 35  1  0
 20 36  1  0
 21 29  1  0
 22 29  1  0
 23 26  1  0
 23 33  2  0
 24 28  1  0
 24 31  1  0
 24 34  2  0
 25 30  1  0
 25 31  1  0
 25 32  2  0
 27 36  1  0
 28 29  1  0
  1 37  1  0
  2 38  1  0
  3 39  1  0
  4 40  1  0
  5 41  1  0
  6 42  1  0
  7 43  1  0
  8 44  1  0
  9 45  1  0
 10 46  1  0
 11 47  1  0
 12 48  1  0
 13 49  1  0
 14 50  1  0
 26 51  1  0
 26 52  1  0
 26 53  1  0
 27 54  1  0
 27 55  1  0
 27 56  1  0
 28 57  1  0
 28 58  1  0
 30 59  1  0
 30 60  1  0
 31 61  1  0
 32 62  1  0
 32 63  1  0
M  CHG  1  32   1
M  END
>  <OMEGA_C>  (3) 
7pz4QORj+kCRyrbBJm0AQQCmzkBvK7XBSgfCQLnOKj+4ZKXBPFfVQOxJ/L5B6LXB0zl3QGZVjcAN
PIvBYg0YQFLjKsBx8pHBUlzZQBmTA0HyRL7BHu6zQOt2DL8r+KDBNnXGQKjv2L8mm7HB3NSYQDAj
hMBca5PBunVSQFgkGcDsOprBDdUFQYYc/D8n1rnBTI4JQSjUV0B/xLzBYi/KQMKEvEBFYcLBHDTT
QHkTMD/J16/BPDLpQJgHsEBB7brBKm0pQFfhbMA9eYrBVuS1QFSN3r/3KqfBvP2PQPHNR8Cp7JrB
fifCQFTy50C7IMTBbnvlQBqa8z9GX7TBOnjwQCzkgkAVS7nBJsTTP2D6gcBaJILB9PasQBZChUAc
AaXBzsiCQOxskED1zZTB6lLtP8TeqcADO3bBY2+HQABPCkFFssjB/EqqQOGtY0CZQ7DByDXVQHaj
S0Btn7TBu6E5QBoXjUDvlJDBCJ6HQCjGhEB11J7BEhGiQMQXnkAexI7Bsi0nPzEDWMDfy4DBTJnO
QA5DlUAz4KHBEC2sQLC3P8DAUqPBcrSjQBo88kBWpcvBHhgFQTYVCUFNUbLBn5AMQfagxEDBja/B
E7u/QB5Xyj890qDB333iQMAa8b425b3BVdmCQJkNpsBNeYXBFZK7PxsWBsCUSJHBsBDTQKVfFEHf
ir/B96mnQA72E78z5ZjBXbLHQFE6JsB1V7bBlVu2QNr3lcCB9ZPBKDBEQL4W0L9KC6DBXzsQQZmU
kT/GpbvBtmAXQYzycEDu5MDB43q4QIybpECixsbBtCqBPxb4rMCsEWvBfAH0Pwx6xsDbOYDBxY8y
QIm0psCiHm3Bp9RgQNcsDUGXMs/BmhlsQLL6BUFuW8HBJTuaQH7qGEHRRsfB7i6WQAb2KUDM7a/B
WY6bQMtqiUAdqbXBp20wQLPmlEDX6IjBQowIQCK4gkBDA5XBkYJaQBhvdEB9hKLB6Le/QNcioEAA
u5HBQ1qcQA2CpkBXLofBRca1QNbR4UCX4cXBAbK+QOc/t0CJ/MLBAEjEQJBvKT/UXKTBxGjaQBfZ
5L4D47TB67IVQJNUK8Bxg5LBd3JzQMUHjsB1uovBTezQQLB1AUFSXcLBzz61QGzWEL9wX6DBCI3K
QFx41L9bCLHBB3pRQBsFGcBzn5rBYZuXQJaShMAivpPBZuYHQXEWBUCmq7fB5tcJQVlQXUD7jLvB
zP/9QDHwzkALLrnB5AbXQKzLNj8kn67BkM3iQOwlrkBfmLzB4pwlQCEubsBEG4vBO8y3QPLS3b9s
1qbBwWaPQIEVSMCiNZvBpwj1QJk8+UAaA7zB3UXoQC6x+T8r9LLBrl3tQCKtgkAdornB6xzJP0D7
gsCI/YLBoCeuQEgohUBkVaTBcZSEQOqBkUACFZTBqEDgP5MXq8DDA3jBj8/7QA4gGEFAfK/Bx0Wq
QJ4bYUCOca/BIbfUQL8zS0BeK7TB+x89QC3PjkCP24/BIRaJQNCJhUCUFJ7BQDykQPNnnkBZEI7B
TSsRP0kNWsA+xIHBhSfQQFgTlUBMaKHBFAusQOSzP8BmgKPBUXkHQcpsDEEtKLjBYD2aQJYV6UDX
xsrBSQeqQO+pnUDIo8XB3H/BQHOSxz/Ump/B50PpQL6Mzb7lrbzBnQO3P0NSBsCr7pHBR3SAQGf8
psA0/oXBDCTKQDzYEUHWhcTB0s2nQBs/H78BbZjBW7fMQE0PI8Dz67XByWZEQEFkzr9KYqDBfyW1
QEhtlsCjLZTBadkTQbX6pj+fY7jBpsgXQTuReUDRPL/BDOQMQRCbx0AJYbTBX5FkP75VrsDQJG3B
cIXoP6uLx8CIKYHB6kUrQDYXqMCMlm7BIAkJQdOWJEEHuazBn/HdQHWgH0HlPrLBcMP0QBMcDUEi
2qjBEkGXQBElJkCFuq7BBdaZQCoVh0Ay0LTBv0I0QEOHlkBiLIjB3aALQOoEhUCrTJTBqehcQOSp
dkBEtaHB5u3BQASNn0AyCJHBOcWeQD8ip0BJfYbB8xb+QDr3+UATt7XB0RcBQd52zUBderTBbKfA
QHFiLj/NlqXBF4jVQFTJ/L4r5bXBFIIYQILjK8D5uJHBMj15QCbwjMBI6YrByhTiQJJIBUGye73B
ec+yQAUcCb98GKHBdfbGQD9K2b8VhrHBcC5SQHVNGsALF5rBa5OZQP2zg8ARLJPB0SEFQT4H/z8x
IbrB+rwIQTdIWUCfI73BEabMQOIawkCCbsLBMFrSQPDqMj8N/q/BBk7pQB+zsUAmzbrB7AsrQCa8
bMD1IorBcKG1QHQY3r/4J6fBri6QQBXIR8ALxJrBIITJQATN7kBn5MPBQiXkQBEY9j/to7TBRMHu
QFm2g0C2ubnBjzDYP359gcASr4HBk0KsQJSjhEDGKqXBivqBQGuCj0Df+pTBfkXuP2IIqsBQsXXB
8hKEQHs48UA7gcvBniepQEhVZUB6jrDBILjTQMULTUBF/LTBTNg3QORBjEADzpDBm+SGQIQXhEDF
A5/B8C2hQMYvnUAP647BIRUvP5w7V8CyaoDB2S3OQKWvk0Bm7qHB5xWsQLSOP8CFPaPBuqavQDYk
AEG4o8vBLTQIQQywB0FRtrDB0i8MQceVwEBWsK7BXsC9QMqszD/9F6HB6UHjQDzB9b7j0r3Bq5m7
P7rFB8ARFJHBZjqEQN5opcBNHYXBhGXfQKFhFkH8ib7BGxWmQBurDr+XEJnB/gzJQOvUJsBvKLbB
D89CQHpb1L+Z/J/BeVG3QCstlcBNs5PBrpgPQQbHlD9j6bvB3osWQYBUckC2SMHBnyi5QEuurEBG
JcfByFJ/PxmQrcBL8mrBV/P2P1MrxsAzG4DBKAUyQDBfp8B9I2zBONJjQFxwAEFg8tHB9qaDQE9c
zkBmuMzBWsZqQFrq+EAAvsPBdo+UQJA/LED0brDBkM2aQOAhi0CGxLXBI1guQCAklECPJInBTesG
QJXggUD5QpXB8RVZQKlYc0B1u6LBztS+QIdrn0C535HBq2ebQIprpUDSUofBOv+2QEhN20AfpsfB
/QPEQPRDskAfasTBmdHEQBhwND9l+6PBbenfQP270b4nALTBrQEcQCZ0Q8CnN5DBh+SIQJrxksCZ
e4zBPmHKQKez/0BwIcPBt0GxQPbB/b5kraDBPgvMQL0ZzL9Hz7DBnr9JQBqzIsBLDpnB556fQJNi
gsA4MJXB4ukKQU4MCUDCQrbBoIkMQfPFYED7gLrBl5L4QCXt0UA4VLjBPpnbQFO2Pz/zv63Bvdvk
QFDGrUAzxbzBTM0+QAzNg8AvE4rBNSa0QIvK0r+STKfBN32NQHvTRMBQn5vBc/vqQJ5o+0DuZrvB
eZ7tQBjK/j/k8LHB19XxQBxrg0BYMbnBHeMMQBRImcByf4HB2zGwQH8shUB6WaTBgDaEQJpFkkDT
jZTBmIhNP8PFicBEy3zBij4NQe/mDUEdhq7BCfStQBZ/YUCjga/BYEXZQLxVTEA0vrPBFBM7QF4P
kEDgtJDBLQuKQBKohkCOiZ7BXRGjQL6gnkD3NY7Be9QnQAxSusD1zXrBNDLSQL9+k0Ao8qDBxk2g
QCOONsDaW6XBYQv8QJZLEEFQJrfBZCqeQCXn3kAnl83Bx+a0QIk+lkCcxsfBGWvCQMB4yz9gEJ/B
C5TyQN+yxL7iRLvBCwq9P3CwKMCgH47BPi2XQCeAq8AMkIfBazPAQFSbD0FVmsXBmTOgQDFQCr/S
K5nBThLPQCy1HsBPs7XBE80uQCac379+1Z3Bdki/QNhHjsCC9pbBnEwXQS7GsT+rf7bBb5MaQe/I
fUA+AL7B9AkJQfgtzkAMk7LBjJi4PgMboMADLXHBKqNfP9N3U8Cll3XBMOAsPttQiMAvlIXB8boS
QX7IHUFr56vBipAFQeuaBUGRx6fBtgUbQaF9BEHVUrHB9fiaQNZWJkCjA6/BJU6eQP9Ih0DuBLXB
YwowQEm6l0AjEInBKroKQMOxhkB8ZZXBVnhfQORje0CdgKLBfjHBQBidn0C65ZDBE46cQBQZp0B/
q4bBfWH4QLfI+0B8HrjBPKsAQddG0ECuQLbBlTPFQOICJT+BDaXByULVQDN/+75j4bXBHw8ZQCS6
KsASupHBLS10QB0bkMACtIvB1wfWQOq+A0Eh077BMZO2QJbaEb96raDBSPPFQPWc2L/umrHBU15U
QOqEF8CS4JnBi7mXQOQ0hsAbvJPBIXQGQcyl/z+Go7nBbqUJQXoBWkBUqLzBeLHFQN5CvEBWz8HB
Ut/UQAbKLT/Opq/BsrjnQAiusEB+GLvB4wkoQDtBcMD2qorBSZi2QIKE379IC6fBVR+QQCqTSMB9
25rBPiK8QMXW50AgnsPBs7XmQD3U8z+/N7TBvwrwQMpng0BjS7nBDffRPwb2g8BaToLBtLmtQHL0
hED88KTB5tKDQOw+kkCI0pTBQszyPj5ITMBbJ3/BB5puQK8Z1kC/G8vBv6GqQC4LYUBxDrDBkYfV
QBMmS0DCjrTBGZ07QOX6j0BslZDBo2qIQCuWhUCJxZ7BjW2jQGu6n0A13Y7BoLjfP+bhpcDY33rB
Q6bPQPuslECN6aHBgHKsQBkwQMDpPqPB1ciZQHbI9EAD1MnBgekFQREbCkH5abTB1dYNQekxx0AP
JLHBhnHEQJ0Zxj9nUaDBlWHhQMcV7b7x973Bd/i/P2NfBMDe2ZDBm2OAQOg6qsBARYbBY37PQEl0
FEGWTcDBDmGrQABBG79EgpjBnO3FQHZ7JcDMdbbBIQRIQG4ax79VXJ/B3LG0QPvTmMBTdZTBWjUR
QYsRlz/FX7vBgl4XQX0cdEBlxcDBsLKyQDi8o0BDnsXBwmYLvkYyacCWa3LBKABeP2JUDsAvpXnB
NrsVvnZzQsAjvYbBBy88QIAG5EAUK9DByL+DQMbkuECR6M7BP9lTQN8czkChN8PBYoSXQFsfJkAW
da/BT6uaQPQgh0CXfrXB3MAyQHNzmEDx8ojBHBwKQBzFhUD49pTB78ZbQGQldkBjZKLB8hzBQEfO
oEDe1pHBhe2dQND3qEBMVIfBqBj0QKH9/EBTLrjB9eT9QHjD0UA8NbbBZGDFQKtqND8hLKXBJ9LV
QB3B5b6h5bXB8g1zQO3whsDayYrBl2YSQCSNJsB1G5PB+gPUQJ3nA0Fho7/Bs1+2QPRrAL85wqDB
+GrGQIqb0r8Lj7HB+BKYQAyMfcDNvJLBfrFPQHqPFsDwHpvBK7UGQY5pAkDY2bnBULgJQclZXEBA
Db3BY8vGQEEyvEBR9cLBkGfVQEZCOj/Tva/B9QjnQB+OsUDVm7vBhngjQBshY8Bd8YrBXOC2QI3a
17/1A6fBx4iPQBw1QsAj6JrB7zu9QASV50DaIcXBzU7nQBNr+T9nYbTBiizwQM+QhEAxrLnB2brG
P6ztdcBvj4LBa9auQCxxg0C0sqTBy2ODQMXqkECW0ZTBtoPmPkQnNcCv53/BBweLQErA0kDz7dLB
oIarQFRSZEAvJrDB0hXWQFfeTUDsxbTB8BA6QH/hjUDMzpDBqrWIQP84hkBR457B+U2iQIk6nkAF
no7BUsrMPwa4nMAnIHvB7NbRQBpajUA9+aDBvBKtQNPeO8CXB6PBTmmeQM4e9EATfMzBjZQCQUL0
CkH4+rPBH2MLQeteyUAZl7DByaTEQJ1Xzj89faDB3AjiQEeS275X+r3BqXSAQECvncCUhITBj3Cs
PyiPBMDjLpPBs87MQDiHFEEXKcHBWYaqQAS9Br8PpZjBW3nGQLLTIsBhWbbB1V62QBxkj8AslZLB
wC9CQLJG0r8haaHBTYkRQWtlnD9IgbvBk1EXQZJJdkCSSMHBcDS1QOomo0Df+MbB+m49vnx8TsDX
AXPBGAVoP+kW8b+Jt3rBVVQmvs/hKcDKH4fBGK1mQMgA4UBpYNjBJfOjQI56wkCeoNfB7zB2QK9y
u0AnrM3B8mCXQJaYKkAdFbDB64ycQIO8ikBhN7XBRagvQBanlUA9KInBsJYJQELHg0AuYZXB1AZc
QGhJfkCm7aLBJRLAQBS9oEBmfJHBwzKcQA/opUChAIfB

>  <OMEGA_E>  (3) 
QL81PsAUQD6oiEc+INTSPpgfpz5goqI+

>  <OMEGA_NBR>  (3) 
      9689

$$$$
408873
     RDKit          3D

 50 53  0  0  1  0  0  0  0  0999 V2000
    7.0052    5.1330  -23.8736 C   0  0  0  0  0  0  0  0  0  0  0  0
    5.6264    4.8898  -23.7341 C   0  0  0  0  0  0  0  0  0  0  0  0
    7.9254    4.4613  -23.0484 C   0  0  0  0  0  0  0  0  0  0  0  0
    6.6221   -0.9118  -22.7541 C   0  0  0  0  0  0  0  0  0  0  0  0
    4.9273   -4.5771  -18.5864 C   0  0  0  0  0  0  0  0  0  0  0  0
    6.0769   -1.8951  -21.9072 C   0  0  0  0  0  0  0  0  0  0  0  0
    5.4424   -3.6897  -19.5480 C   0  0  0  0  0  0  0  0  0  0  0  0
    5.1644    3.9816  -22.7645 C   0  0  0  0  0  0  0  0  0  0  0  0
    7.4683    3.5591  -22.0717 C   0  0  0  0  0  0  0  0  0  0  0  0
    6.4338    0.4545  -22.4694 C   0  0  0  0  0  0  0  0  0  0  0  0
    3.7074   -4.2956  -17.9404 C   0  0  0  0  0  0  0  0  0  0  0  0
    5.1320   -0.1450  -20.5032 C   0  0  0  0  0  0  0  0  0  0  0  0
    3.5055   -2.2391  -19.2256 C   0  0  0  0  0  0  0  0  0  0  0  0
    5.3141   -1.5109  -20.7830 C   0  0  0  0  0  0  0  0  0  0  0  0
    4.7397   -2.5065  -19.8607 C   0  0  0  0  0  0  0  0  0  0  0  0
    6.0799    3.3237  -21.9034 C   0  0  0  0  0  0  0  0  0  0  0  0
    5.6934    0.8481  -21.3263 C   0  0  0  0  0  0  0  0  0  0  0  0
    2.9831   -3.1165  -18.2612 C   0  0  0  0  0  0  0  0  0  0  0  0
    6.3236    2.4566  -19.5350 C   0  0  0  0  0  0  0  0  0  0  0  0
    4.1448    3.0962  -19.2011 C   0  0  0  0  0  0  0  0  0  0  0  0
    5.5809    2.3040  -20.8685 C   0  0  1  0  0  0  0  0  0  0  0  0
    5.7038    3.2031  -17.2082 C   0  0  0  0  0  0  0  0  0  0  0  0
    1.2876   -3.6033  -16.6057 C   0  0  0  0  0  0  0  0  0  0  0  0
    4.1859    2.6042  -20.4989 N   0  0  0  0  0  0  0  0  0  0  0  0
    5.4261    3.0229  -18.6401 N   0  0  0  0  0  0  0  0  0  0  0  0
    3.0662    3.5471  -18.6137 N   0  0  0  0  0  0  0  0  0  0  0  0
    7.4570    2.0689  -19.2697 O   0  0  0  0  0  0  0  0  0  0  0  0
    1.7800   -2.7563  -17.6677 O   0  0  0  0  0  0  0  0  0  0  0  0
    7.3571    5.8356  -24.6145 H   0  0  0  0  0  0  0  0  0  0  0  0
    4.9215    5.4014  -24.3726 H   0  0  0  0  0  0  0  0  0  0  0  0
    8.9843    4.6390  -23.1652 H   0  0  0  0  0  0  0  0  0  0  0  0
    7.1873   -1.2064  -23.6260 H   0  0  0  0  0  0  0  0  0  0  0  0
    5.4694   -5.4786  -18.3419 H   0  0  0  0  0  0  0  0  0  0  0  0
    6.2418   -2.9417  -22.1170 H   0  0  0  0  0  0  0  0  0  0  0  0
    6.3741   -3.9133  -20.0464 H   0  0  0  0  0  0  0  0  0  0  0  0
    4.1065    3.7839  -22.6751 H   0  0  0  0  0  0  0  0  0  0  0  0
    8.1797    3.0415  -21.4452 H   0  0  0  0  0  0  0  0  0  0  0  0
    6.8543    1.2041  -23.1234 H   0  0  0  0  0  0  0  0  0  0  0  0
    3.3213   -4.9788  -17.1984 H   0  0  0  0  0  0  0  0  0  0  0  0
    4.5509    0.1468  -19.6409 H   0  0  0  0  0  0  0  0  0  0  0  0
    2.9558   -1.3467  -19.4859 H   0  0  0  0  0  0  0  0  0  0  0  0
    4.8357    3.6720  -16.7219 H   0  0  0  0  0  0  0  0  0  0  0  0
    5.8979    2.2237  -16.7465 H   0  0  0  0  0  0  0  0  0  0  0  0
    6.5861    3.8482  -17.0843 H   0  0  0  0  0  0  0  0  0  0  0  0
    0.3343   -3.2037  -16.2295 H   0  0  0  0  0  0  0  0  0  0  0  0
    1.1315   -4.6215  -16.9915 H   0  0  0  0  0  0  0  0  0  0  0  0
    2.0223   -3.6298  -15.7875 H   0  0  0  0  0  0  0  0  0  0  0  0
    3.3913    2.4735  -21.0917 H   0  0  0  0  0  0  0  0  0  0  0  0
    3.1125    3.8827  -17.6728 H   0  0  0  0  0  0  0  0  0  0  0  0
    2.1956    3.5562  -19.1055 H   0  0  0  0  0  0  0  0  0  0  0  0
  1  2  2  0
  1  3  1  0
  2  8  1  0
  3  9  2  0
  4  6  2  0
  4 10  1  0
  5  7  2  0
  5 11  1  0
  6 14  1  0
  7 15  1  0
  8 16  2  0
  9 16  1  0
 10 17  2  0
 11 18  2  0
 12 14  2  0
 12 17  1  0
 13 15  2  0
 13 18  1  0
 14 15  1  0
 21 16  1  6
 17 21  1  0
 18 28  1  0
 19 21  1  0
 19 25  1  0
 19 27  2  0
 20 24  1  0
 20 25  1  0
 20 26  2  0
 21 24  1  0
 22 25  1  0
 23 28  1  0
  1 29  1  0
  2 30  1  0
  3 31  1  0
  4 32  1  0
  5 33  1  0
  6 34  1  0
  7 35  1  0
  8 36  1  0
  9 37  1  0
 10 38  1  0
 11 39  1  0
 12 40  1  0
 13 41  1  0
 22 42  1  0
 22 43  1  0
 22 44  1  0
 23 45  1  0
 23 46  1  0
 23 47  1  0
 24 48  1  0
 26 49  1  0
 26 50  1  0
M  CHG  1  26   1
M  END
>  <OMEGA_C>  (4) 
YirgQIhBpEAc/b7BZQu0QEh5nEBp373BAp39QD3DjkANY7jBFujTQDxrab9dCLbBTqydQEV3ksDl
sJTB33XCQDiU8r/0Qa/B9ieuQOIjbMBYYpzBDkOlQHHSfkDAHbbBlvzuQPzHY0DxkrDBXeHNQMW2
6D5WwbPBSEVtQD51icDuhY/BlDmkQDeFFL52BqTBEVpgQBhOD8APzpnBtAyqQO1lwb+AQ6bBrquX
QPlpIMCr4p7Bg47CQOG3VEAYOq/BhjC2QDAfWT89nKrBees+QCR1R8ABF5LB8lrKQJY4HUDCR5zB
+aGEQOInRkDZm5nBc5ayQER0E0DE8qbBqoW2QEH/TEBtqonB8M+kP26cZsB52ITBR/OFQI+qJkCv
/aPBYaKtQKB3QUACH5XB0DxEQDAEY0DD6JTBZ5/uQBJoBEBqKJrBE9jjP85mMMCMV43BxG3rQAG9
ukBv6sTB1HydQIHYrEAs+8LBpb8PQVtylEA7UrnBCv7lQEtrmr/6Ab3BeQWvQG5Qr8AyvJLB6LzH
QBNEPMCr77DBP/jLQJBzesAEX6DBGmiDQCgrckCmZrXB4t8CQbinQkDbj6vBNlbbQDcgmj+u/LjB
8pBUQKNSn8BblonBoaCRQIBeFj6cIJ3BJiw9QLJfrL8h45vB3L2aQN0Ba0CMxoXBzru8QNtRDkC7
+IXBZ8HSQEJJdkCsrIjBwSmrPpUJTcDr1YHBB9SQP5Ljk8CO7ofBDm4BQEdPaMCemXzBggpZQFRO
HkDAu6jBZjJHQCp+eEDXYY3BoYQMQFKZY0Ah2JjBXezfQGxio0AzEr/BM3P9QPfBjUCLhLjBR8qz
QOn0m0Dr173Bn1PTQOfxbL+T9rXBwTmfQMGykcByIZTBggbCQPA79L+bKa/BFjevQBYxa8DX9ZvB
xeTuQDFRYkBqobDBzBWlQHEffkARCrbBh1vNQKCm4T7arrPB2E9vQGFdicCQI4/B0NujQPdsIL7L
6qPBz4xfQJylEcA23JnBlMSpQILvwr/uJqbBDM2XQIE3IcDnup7BDXXCQN7UU0D8L6/BDtO1QKEd
Vj82hKrBvsk+QNyAScBtEZLBcXPKQCSjHEDQN5zBXOuEQKTZRkC7h5nBUYGyQO/TEkAY3abBfeu2
QHVWTUCrm4nBtAGnP3s2ZsAkl4TBKveFQDSFJkA036PBJ+OtQN5DQUAcDJXBJkRFQCv/ZEB92pTB
HsfuQIz7A0CeIZrBurrfPzSlNMB4rY3BpCLrQC2xuUCXC8XBy6sPQT0gk0Cji7nBqCmdQDh5rEAr
58LBjELlQDlAnL8b9rzB81mxQE7IrcBg75HB/EzHQGgaPcDi1bDBEFnNQOGgeMD115/BQtsCQekt
QUDJoqvBlTeDQOLccUD9QbXB+r7aQG5DmD/A7rjBH3xXQPzgnsCHEYnBITuRQMOFCj5JBp3Btvo6
QHXrs79+KZzBIjObQLCVa0A9uIXBdia9QMHUDkD63oXBvC7TQDugdkB/q4jBcu2jPr/+TsDv8oHB
ti2dP3IBlcAr4YbBudgBQI9mX8C+CnzBA9hYQOHqHUCykajBWZVIQIjnekAkWY3BAIkNQMAhZkC3
yJjBe9DiQHRznkCHjL/BgID/QIc1iUC5sbjB+Wu2QHYrmUCmM77BbpjHQKZ7R79qSrjBcserQNl+
icAcVJLB4nu+QE0i6L9yHLHB6BqdQGgTVMDliJnBudjvQO4HXkACbbDBG5mmQMjefUD99LXBAvfC
QDY3Dj8GDrXBruzXQIzHjMAo6I/BFAyqQBQIO76KhaPBu/XmQA4GJMCO85vB/rWwQAHQwb8iq6bB
TVG7QPiFHsA1fp7B7iPDQCBBVEA31q7BEoG0QIFZXj8hlarBmrL1QDrIX8Cwa5TBFNbJQIJyHUBW
4pvBj1uEQHaOSEANapnBJCGyQDjYE0DHkqbBRVW2QAxaU0AagonBMjIcQaK4EsAcFJLB5Z+FQK4a
J0DdsKPBEU6tQMoXREAq4pTBXs5DQNwkZ0Do3ZTBmC/uQPRjBUCttZnB/yMQQVpjYsAoNZHBMNzu
QN/QskC52MXBkskQQasEjUApyLnBNnGgQNdMqUD1gsPBtSzSQNUKgb85T8DBIUOVQOsrn8AspI7B
HAbCQIPpNcDnlbPBYcB2QDouTcByNZvBLQIDQWn5PEBfPqvB9YCEQF07dUB0C7XBunbKQJscrT+h
k7rBivTiQH2WpcCaj4rB0/ScQA/qFD1CuJvBX3r9QGWR87+u1Z/BwZ+aQJm4ckCXwYXBuYi8QFjs
FUCpf4XBAJ3SQDrUfEAxwIjBC7IsQVMvHcAMT4/B3mkcQT0/+78weZrBmZAUQR6Lwr98HI3BaGJY
QFKZHUAMZqjBrbBGQGBffkDLa43BGD0MQPVMZ0D+1ZjBQNTiQDXbnkAaUr/BWZW2QLxml0D8Zr7B
bV7/QI9ni0BZG7jB4n7GQGpiRr98eLjBTl+fQIeihsCrzZHBtqm8QGnL6L/OdLHBUSmVQMIQSsDd
6pjB2sWmQOKDeUBFPLbBAbbvQFC6YUAZ56/B6cHCQO+kDT93CLXBrETKQGiXlMBPsJDBExepQODY
Vr7xmaPBPtLgQOIXQMBbyJ3B8yivQGn/xL+O8qbBMDS2QIzVJMCCA5/BLRLDQFa3U0C8uK7BLiG0
QNxNWj/bjKrBajzrQC+ugMAunpbBRV/JQJUuG0B6u5vBDhCEQFrfR0DNaZnB+/axQLrQEkBTfKbB
n0m2QHQPV0B4nYnBHugVQQBvfsCakIzBMW2FQL7oJkAbtaPBIHqrQEgcOUDia5TBB/FEQP41bEBg
IZXBhw3uQFLTBEAQoZnBnqcKQWvYjcB3+ZXBHd/uQK+As0Crj8XB3LOgQEYqpkC1+sPBOK4QQSja
kEDy3bjBNvPQQE/dfb9zhcDBCVyGQF3BlcBYMY3BT26/QKn0NcDkGrTBzDlpQICfM8Cjq5nBgdSE
QMFJbUCBrrXB7+oCQWJgQ0DWdKrBDBbLQBbDrT8xabrBjM3RQLiDrsBPS4vB+ROcQNqvl7rrxZvB
98n5QHomIsBPcKLBePKYQAxGa0AndoXB9YvFQPXOIkAfHoXBRXrMQIrDhkAoLIrBx3MmQYYyi8A2
vYzBmgsWQXQLOMCobIzBj8kNQaRIi8AUXYXBsTlYQCk1HkCeeqjBRwBHQExHgEC+jI3BCoUPQEml
c0DKb5nBHmvqQPTxnEC5H7/Bz08BQZOndkATsLrBFzzAQLU2pEB3nLvBq8GsQPSYUb8cl7jBl5uo
QL5Em8AccZfBj6GwQNGn7L/f/bDBp9OkQKrEdsAqVJ/BMKvwQMD4QUCsubLB8SSuQID4iUBqqbPB
GpKtQBwCBz/zT7XBimDAQExbk8DmEY7B8hi1QJRyPL4jyKLBNA/RQCB1F8CWf5TBw860QFCWxL+4
A6bB7Oq4QE2UJsC94J3BIDrGQCAaUEC0Hq/Bdf6yQK6kWz95XarBHsvUQAojV8DhfYzBIlTKQB09
IUAV75vBP4iDQFvwREDbWJnBZ7SyQBmOFEB/oqbB/0i0QC9ISkDOHYnBngEAQaEB8b9/eIHB8kKG
QIqWK0Dj/qPBRVSsQLvKQEAmrZTBBxtAQPNVXUCHp5TB9OLvQAc4EEB8/5nBdtnrQNc+S8D4FYPB
vzj4QNUosUArOcXB0HsRQSl+a0C3ZL3BZ7etQED/vUDpBr/BzSWpQL/Yh78I9sDB9T+ZQGnlucC3
kpjBMmqwQDxaOMA2jLPBFY6SQBmNgcCkf6bBc6sBQY17DkDcV6/BWMKNQPetj0ASAbHBAQuqQAkf
qD/OK7vBYv/CQMT2q8DpCYjBZfW2QOPJZj0SX5rBatngQGQltb98bZPB14+XQBlzZEB/OIXBP967
QIlkC0A2pYXBTmDPQJMUdkBe2ofBOn8IQb2S8L9khnPBl3ULQSmz2L9B+ofBe2XnQMlcjL92c4HB
bFFbQChYKUCGGqnBgfVAQIBmb0D++ozBNiAJQHHhXUC1v5jBtIPnQA3jnUA6kr/B1xu7QN7alkAo
6b7Bsp4BQWTUiUDGQbjBG22tQJAnUb/ki7jB4guqQGKMm8CPsZfBGX6xQNH067/k77DB1iimQAdV
dsBYbZ/BGUqqQH0KeUB2zbbBg6DyQJjHXUCnQLDBmHWuQDZ6Bz+5TbXBze7BQGlklMB4U47BQF22
QD9hNL6ewaLBNUzSQO40GMCJZ5TBZQi2QBOXw7+596XBDDi6QI9FJsD32J3Buc3FQJesUUDQOK/B
yvqzQBS3XT/vXKrBmVrWQOfGWMCdmYzBoaXKQOW3IUBu1JvBMOeDQDaeRUDaW5nBn1+zQOo1FUDR
oqbBfV60QE2aS0DbF4nBz6vyQIhuhMBwKHfBYd+GQJV+LEBTA6TBZqCsQDUyQkDdqZTB5ZJAQCov
XUDEqZTB1YvvQFmRDUCgl5nBpYruQOAkRsByj4PBKU30QGarskCOsMXB7ualQJGxpUDcosTBw6kS
QQ8fj0CiybjByH+pQDP/h78h58DBt6CaQOIRusAx8pjBUCaxQCkNOMD4eLPB6seTQPThgMBtmqbB
GC+IQPp8bkD9V7bBKBUEQcxaPUCj2KrBLgarQLsLqD/DL7vB2cHEQAlyrcCkaojBMnm4QH9ohz1h
WprBIcDhQFJYtr/9K5PB/7yXQFueZkDmPoXBX227QK+MDEB3mYXBqbvPQHOndkDty4fB8T0DQZqU
ccBz02nBB8TSQLgpjcDmI3HBWPIAQVuvoMBEY37BILhcQG2EKkBFJqnBxjFBQN0Hb0Aa+4zBFp8J
QApQXUCNw5jB

>  <OMEGA_E>  (4) 
AAAAAAAAAACgBzM/qFosPzYNQD8A8j0/

>  <OMEGA_NBR>  (4) 
      8789

$$$$
