450381
     RDKit          3D

 53 56  0  0  1  0  0  0  0  0999 V2000
    6.0535   -0.9221  -21.9596 C   0  0  0  0  0  0  0  0  0  0  0  0
    6.7773   -0.0181  -22.7505 C   0  0  0  0  0  0  0  0  0  0  0  0
    2.9149   -4.9141  -17.3541 C   0  0  0  0  0  0  0  0  0  0  0  0
    3.7936   -4.4300  -18.3322 C   0  0  0  0  0  0  0  0  0  0  0  0
    4.8993    0.9328  -20.8955 C   0  0  0  0  0  0  0  0  0  0  0  0
    1.8675   -2.7223  -17.3017 C   0  0  0  0  0  0  0  0  0  0  0  0
    5.6219    1.8555  -21.6778 C   0  0  0  0  0  0  0  0  0  0  0  0
    5.1229   -0.4380  -21.0129 C   0  0  0  0  0  0  0  0  0  0  0  0
    1.9401   -4.0478  -16.8335 C   0  0  0  0  0  0  0  0  0  0  0  0
    6.5786    1.3640  -22.6094 C   0  0  0  0  0  0  0  0  0  0  0  0
    3.6752   -3.0882  -18.7614 C   0  0  0  0  0  0  0  0  0  0  0  0
    4.3613    4.0617  -19.2472 C   0  0  0  0  0  0  0  0  0  0  0  0
    4.5887   -2.5450  -19.7755 C   0  0  0  0  0  0  0  0  0  0  0  0
    6.5639    6.0904  -20.2514 C   0  0  0  0  0  0  0  0  0  0  0  0
    7.8944    4.8173  -18.4802 C   0  0  0  0  0  0  0  0  0  0  0  0
    6.6312    7.3044  -19.3274 C   0  0  0  0  0  0  0  0  0  0  0  0
    7.8429    6.0917  -17.6338 C   0  0  0  0  0  0  0  0  0  0  0  0
    5.5848    3.3334  -21.2880 C   0  0  1  0  0  0  0  0  0  0  0  0
    6.6782    4.7528  -19.4499 C   0  0  0  0  0  0  0  0  0  0  0  0
    6.8632    3.5484  -20.3920 C   0  0  0  0  0  0  0  0  0  0  0  0
    5.4967    4.2170  -22.5786 C   0  0  0  0  0  0  0  0  0  0  0  0
    2.7212   -2.2672  -18.2430 N   0  0  0  0  0  0  0  0  0  0  0  0
    4.3460    3.6457  -20.4969 N   0  0  0  0  0  0  0  0  0  0  0  0
    3.1897    3.9825  -18.5101 N   0  0  0  0  0  0  0  0  0  0  0  0
    4.3740   -1.2308  -20.1573 N   0  0  0  0  0  0  0  0  0  0  0  0
    5.5324   -3.2113  -20.1862 O   0  0  0  0  0  0  0  0  0  0  0  0
    5.4901    4.5534  -18.6247 O   0  0  0  0  0  0  0  0  0  0  0  0
    7.8109    7.2378  -18.5065 O   0  0  0  0  0  0  0  0  0  0  0  0
    1.0770   -4.4822  -15.8906 F   0  0  0  0  0  0  0  0  0  0  0  0
    7.3512    2.1948  -23.3471 F   0  0  0  0  0  0  0  0  0  0  0  0
    7.0838    2.4494  -19.6016 F   0  0  0  0  0  0  0  0  0  0  0  0
    7.9800    3.7158  -21.1539 F   0  0  0  0  0  0  0  0  0  0  0  0
    6.2069   -1.9851  -22.0737 H   0  0  0  0  0  0  0  0  0  0  0  0
    7.4912   -0.3874  -23.4718 H   0  0  0  0  0  0  0  0  0  0  0  0
    2.9861   -5.9343  -17.0070 H   0  0  0  0  0  0  0  0  0  0  0  0
    4.5519   -5.0738  -18.7529 H   0  0  0  0  0  0  0  0  0  0  0  0
    4.1611    1.2931  -20.1944 H   0  0  0  0  0  0  0  0  0  0  0  0
    1.1160   -2.0582  -16.9009 H   0  0  0  0  0  0  0  0  0  0  0  0
    5.6046    6.1036  -20.7896 H   0  0  0  0  0  0  0  0  0  0  0  0
    7.3909    6.1454  -20.9747 H   0  0  0  0  0  0  0  0  0  0  0  0
    8.8250    4.8104  -19.0667 H   0  0  0  0  0  0  0  0  0  0  0  0
    7.8735    3.9410  -17.8155 H   0  0  0  0  0  0  0  0  0  0  0  0
    6.6616    8.2216  -19.9338 H   0  0  0  0  0  0  0  0  0  0  0  0
    5.7401    7.3204  -18.6827 H   0  0  0  0  0  0  0  0  0  0  0  0
    6.9391    6.0810  -17.0069 H   0  0  0  0  0  0  0  0  0  0  0  0
    8.7342    6.1431  -16.9912 H   0  0  0  0  0  0  0  0  0  0  0  0
    5.4702    5.2795  -22.2951 H   0  0  0  0  0  0  0  0  0  0  0  0
    6.3757    4.0286  -23.2125 H   0  0  0  0  0  0  0  0  0  0  0  0
    4.5823    3.9631  -23.1349 H   0  0  0  0  0  0  0  0  0  0  0  0
    3.4592    3.5312  -20.9448 H   0  0  0  0  0  0  0  0  0  0  0  0
    3.1792    4.2775  -17.5547 H   0  0  0  0  0  0  0  0  0  0  0  0
    2.3552    3.6304  -18.9339 H   0  0  0  0  0  0  0  0  0  0  0  0
    3.5668   -0.7934  -19.7608 H   0  0  0  0  0  0  0  0  0  0  0  0
  1  2  2  0
  1  8  1  0
  2 10  1  0
  3  4  2  0
  3  9  1  0
  4 11  1  0
  5  7  1  0
  5  8  2  0
  6  9  2  0
  6 22  1  0
  7 10  2  0
  7 18  1  0
  8 25  1  0
  9 29  1  0
 10 30  1  0
 11 13  1  0
 11 22  2  0
 12 23  2  0
 12 24  1  0
 12 27  1  0
 13 25  1  0
 13 26  2  0
 14 16  1  0
 14 19  1  0
 15 17  1  0
 15 19  1  0
 16 28  1  0
 17 28  1  0
 18 20  1  0
 18 21  1  6
 18 23  1  0
 19 20  1  0
 19 27  1  0
 20 31  1  0
 20 32  1  0
  1 33  1  0
  2 34  1  0
  3 35  1  0
  4 36  1  0
  5 37  1  0
  6 38  1  0
 14 39  1  0
 14 40  1  0
 15 41  1  0
 15 42  1  0
 16 43  1  0
 16 44  1  0
 17 45  1  0
 17 46  1  0
 21 47  1  0
 21 48  1  0
 21 49  1  0
 23 50  1  0
 24 51  1  0
 24 52  1  0
 25 53  1  0
M  CHG  1  23   1
M  END
>  <OMEGA_C>  (1) 
k7bBQMwQbL9Fra/Bmt/YQICflLwAAbbBNY46QDpAncAj1YrBJMtyQPLCjcBbqJLBFcecQADKbj8B
KqfBBArvP8U5LsDWaYrBo+azQAKA7T8wbK3BB++jQNY84L5yGqjBNFX4P9yHgcAHq4bBIITSQDOW
rj8Q4LTBYTZrQB2lRcBoF5bByI+LQLr5gUBK+pnBcNaSQD/hIsAmNJ7BfgvSQE3kwkD1AqLBQZ/8
QAInmkBb15PBIDPUQJ+96UB6nprBUfn6QADvwkD9EY3BFreyQC1XVUDiTarBJLTVQDAXmEBfmZvB
Up/bQMgZY0C7IqPBOuWvQGjxhkD+oLTB6yguQCwZEcDD8ZHBBxKLQI5TaUC6+aPBmyRMQPrhfkC9
FJTBdfeLQK2Jnb8xQqHBDQmxQCGFTcBQfaHB066vQDW1kUBj/5TBAfP5QMib50BZDZTBPNyJPzFu
j8D2P37B8zzrQN53DEDMxrrBWq7iQDvCHED7z5zBX1z/QHbPbUAYO6nBLp/GQO0W/r/5lrDBGLjv
QJRbxr5SxrvBmRs/QA3mvcBfDojB6qiRQPJcosAKBpbBiyeFQJ6EpT8YjqHBK9mOP9C4A8AXNYfB
LlmzQOpQw0AjUabBGYLsQDynxEAozKfBMzMNQbbumUCPiJjBT/P7QHQ5fEAwho7BCCzVQNOLA0Fu
eJ/BI6+3QAhB6kAYdpXBHA3eQFSXwkAnDojBfL8LQTOUxED67YfBKwyvQHvxqEBiXLLBHAbMQPTp
gEA7s7nBaqKSQLWjfUA1FLnBC2RdQLL+YUACj6fBQHhLQJPhiED/b4zB5bsWQPVYaECqeJfBoUZk
QKscS78bFp7B3M3DQPhieb+/w67B9UrbQMAel70K8bTBmKM9QGqnn8A22orB9YF2QLA/j8ASdZLB
Bo+cQCJXXz/qvKbBvi/gP2SIOMAfk4vBenqzQFLp5T8HAa3Br2OkQCz1/L4doKfBbpTzP0nChcB2
WofBVfXSQF4wpj/USbTBMyFqQBt2SsBpUZbBNGmNQHqIiUAMSZvBBFiTQOV3JcBl753BZPaoQOZW
y0CDBazBDOLwQC5dxkDOCKLBSiOnQDbD+UB/XKjB+BnqQCBo9UBKLJ/BOq2nQHlCUkCYZKzBHLzF
QHwMr0AjjaTBLePQQCjOg0D21anBbbeRQEfsZkACVrfBC4onQOaHGcBO4pLBo+uGQAdJYkCDvqPB
wwlhQIy8hkA445LBuHWKQHppp7+/gqHB9NO0QG3ASsCyC6DB/NiuQACLpkASmJrBHNHRQPIGBUFq
eafB2geEPy+elMD+/3/BhqDoQNWmBUAFJrvBajvqQO3IWkCX2qLBvMbnQJD3i0Ar2LLBFKXJQEJB
AsDOca/BrvvzQH20375PPrrBC8ZFQASgv8Cfu4fBaJSVQKZyosBtVpXB16SEQLsHnT+dLqHB/dBt
P14XEcCA64jBr0+IQFgwvkB+B6zBSRK2QGNGykAmL7TBadkCQX50xEBiHanBzDoAQfc1tkAhQZvB
JiiVQLBqBkEvPK7BHiuXQIag+0BtiKDBi5LYQIKk90Dwj5fBR6wEQdykAkHSW57BCEKIQCFclUAW
grfBTEeoQJUWWkC05b3BM1VqQHd5PkAmTbjBILtUQDMARkBPeqTBBP9nQMJ7mUB4dozB9W0wQJby
Y0BfQpPBCAlcQGA2br9abp/BwsnCQN/Jcr/7Mq/BDi/ZQBD6P72urrXBIhrWPxkEOsAcFovB7Ggk
QFU4F8BHeZLBhvCcQJfPZz+i36bBe59BQEaancDkC4vB8OayQICe6T83Za3BfuykQAAs7b4dq6fB
sJDzPx6dhsBzWofB6KDRQGRnqj+b1LTB/XdrQJ2fSMAw+ZXBJkKMQCa+g0CBNprB1LaTQOWwJMBm
053B4sHFQLN0x0DDL6XBiMX8QLCkqEDKFZjB0I7HQOSw8EDirp7BzH/6QIKZ00BGP5LBWpSuQPLF
VEDQHKvBGn/SQA6cn0BUS57BulDZQD65b0DfXKXBaMekQID7gUBr5bXBza54QE50jMC7M5LBNvGI
QISHZkAs5KPBJddRQMAvgkCKgpPBYEyNQBmpoL+szKDBQrCxQEbkT8DUIKHBJjmxQMWVlkCsbZbB
tALxQAr09EDH1pnBiOGFP2mVmMDyU4DB1gzpQFzdCUDJGbvB4EznQH3uLkDh157BkAv5QBjCf0BR
jKzB/lTIQEKnAMCM9K/BFWXwQCo31L5AXrvBvoRSP3maFcDBUYjBXdIaQLJqrr9WgZXBJJyFQILT
oT+PLqHBsuJMQEKXvcApGIjB+fykQA39wkAgM6jB8vzbQF0eykAY+qvBbMwLQedRqUDHx53BSgEB
Qbz/jkB0M5LBq6nBQKoVBkFf+6PByu2uQPPC70B5ZpjBaC7hQO5h0kAZJIzBRrUMQeg52kBOYY7B
zZGhQCmGpEB6Z7TBEh6/QOLJeECIkLvBbsSGQOYta0BaS7nBClxXQCdzWEDVm6bBkEhVQBeIjkBL
JIzBa3EbQF1waUCoC5bBG7VnQIKpT7+0fp3Bw9vBQC5CeL9Fn63BGZzXQDzZ4r3EprTBNcNPQHCA
l8Bz6YXBgFGHQK3YfsDEPYvBP+yaQIZGcD8vY6bBtAXIP7GfZMCrYpDBKluyQIgm6z/U86zBojaj
QFmd4b5OiKbBp53yPzHlkMBdjojBht7PQNOKoz+uc7TBES11QGtzQsDcE5PBTEWPQP+xhUDRY5rB
EXCaQBCwD8C/FJnBhyAAQQaIqEAyjprB39zrQBD3M0D5A5nBy4IHQah1pkBU0I7Bllz8QOWyN0CO
Xo3BGaepQB7gV0AhMazB01ncQE3zhkBj/pzBLtvRQPZMiEChQ6nBeAeWQNKDdEC0FLfBwQMhQHWO
NsANcJXBgeiHQHVvakA486PBT4lZQIqIi0C8k5PB4dWKQAffoL/O6J/BgvbAQOe9GcA3mZfB69e2
QIxPk0Cp1JbBarUOQRWXd0D/U4zBkOprP1Wnp8C4qYPBL37kQOdZAkDtxLvBkXT1QN89e0Dz3q7B
abjIQJWvsUDo6avBI5fIQDPcAcBqp63BOnbuQKRxBL/7QbrBYohhQGSorsBCyn/BDseoQDLhg8AQ
Y4nBYD+CQDh7qT/kLqHBelAGPxRRWsC4ZJLBlMjzQGLHyEDmNJzBGesNQd4bokATyJ/Bw/ICQcmm
HUCSPZ7BwfLQQBa4BkD9b5nBFLoUQcUrvUD7ko3BBCb0QOjxrkB0ionBQ6XhQC7rR0CgAojBa7gE
QUam8T87I4vBGW2PQEDSnEAb3LbBVsWsQGSkZkDskb3BQhNwQNp0UUBHgLjBAyVTQFnQXEDe16XB
2z5iQN4emUCUaozBXgofQIQogkCM0pXBQENWQHmqj7+IDqDB

>  <OMEGA_E>  (1) 
pMMCPwSnGT8U+iM/1rpAPw==

>  <OMEGA_NBR>  (1) 
    106936

$$$$
450383
     RDKit          3D

 53 56  0  0  1  0  0  0  0  0999 V2000
    6.0535   -0.9221  -21.9596 C   0  0  0  0  0  0  0  0  0  0  0  0
    6.7773   -0.0181  -22.7505 C   0  0  0  0  0  0  0  0  0  0  0  0
    2.9149   -4.9141  -17.3541 C   0  0  0  0  0  0  0  0  0  0  0  0
    3.7936   -4.4300  -18.3322 C   0  0  0  0  0  0  0  0  0  0  0  0
    4.8993    0.9328  -20.8955 C   0  0  0  0  0  0  0  0  0  0  0  0
    1.8675   -2.7223  -17.3017 C   0  0  0  0  0  0  0  0  0  0  0  0
    5.6219    1.8555  -21.6778 C   0  0  0  0  0  0  0  0  0  0  0  0
    5.1229   -0.4380  -21.0129 C   0  0  0  0  0  0  0  0  0  0  0  0
    1.9401   -4.0478  -16.8335 C   0  0  0  0  0  0  0  0  0  0  0  0
    6.5786    1.3640  -22.6094 C   0  0  0  0  0  0  0  0  0  0  0  0
    3.6752   -3.0882  -18.7614 C   0  0  0  0  0  0  0  0  0  0  0  0
    4.3613    4.0617  -19.2472 C   0  0  0  0  0  0  0  0  0  0  0  0
    4.5887   -2.5450  -19.7755 C   0  0  0  0  0  0  0  0  0  0  0  0
    6.5639    6.0904  -20.2514 C   0  0  0  0  0  0  0  0  0  0  0  0
    7.8944    4.8173  -18.4802 C   0  0  0  0  0  0  0  0  0  0  0  0
    6.6312    7.3044  -19.3274 C   0  0  0  0  0  0  0  0  0  0  0  0
    7.8429    6.0917  -17.6338 C   0  0  0  0  0  0  0  0  0  0  0  0
    5.5848    3.3334  -21.2880 C   0  0  1  0  0  0  0  0  0  0  0  0
    6.6782    4.7528  -19.4499 C   0  0  0  0  0  0  0  0  0  0  0  0
    6.8632    3.5484  -20.3920 C   0  0  0  0  0  0  0  0  0  0  0  0
    5.4967    4.2170  -22.5786 C   0  0  0  0  0  0  0  0  0  0  0  0
    2.7212   -2.2672  -18.2430 N   0  0  0  0  0  0  0  0  0  0  0  0
    4.3460    3.6457  -20.4969 N   0  0  0  0  0  0  0  0  0  0  0  0
    3.1897    3.9825  -18.5101 N   0  0  0  0  0  0  0  0  0  0  0  0
    4.3740   -1.2308  -20.1573 N   0  0  0  0  0  0  0  0  0  0  0  0
    5.5324   -3.2113  -20.1862 O   0  0  0  0  0  0  0  0  0  0  0  0
    5.4901    4.5534  -18.6247 O   0  0  0  0  0  0  0  0  0  0  0  0
    7.8109    7.2378  -18.5065 O   0  0  0  0  0  0  0  0  0  0  0  0
    1.0770   -4.4822  -15.8906 F   0  0  0  0  0  0  0  0  0  0  0  0
    7.3512    2.1948  -23.3471 F   0  0  0  0  0  0  0  0  0  0  0  0
    7.0838    2.4494  -19.6016 F   0  0  0  0  0  0  0  0  0  0  0  0
    7.9800    3.7158  -21.1539 F   0  0  0  0  0  0  0  0  0  0  0  0
    6.2069   -1.9851  -22.0737 H   0  0  0  0  0  0  0  0  0  0  0  0
    7.4912   -0.3874  -23.4718 H   0  0  0  0  0  0  0  0  0  0  0  0
    2.9861   -5.9343  -17.0070 H   0  0  0  0  0  0  0  0  0  0  0  0
    4.5519   -5.0738  -18.7529 H   0  0  0  0  0  0  0  0  0  0  0  0
    4.1611    1.2931  -20.1944 H   0  0  0  0  0  0  0  0  0  0  0  0
    1.1160   -2.0582  -16.9009 H   0  0  0  0  0  0  0  0  0  0  0  0
    5.6046    6.1036  -20.7896 H   0  0  0  0  0  0  0  0  0  0  0  0
    7.3909    6.1454  -20.9747 H   0  0  0  0  0  0  0  0  0  0  0  0
    8.8250    4.8104  -19.0667 H   0  0  0  0  0  0  0  0  0  0  0  0
    7.8735    3.9410  -17.8155 H   0  0  0  0  0  0  0  0  0  0  0  0
    6.6616    8.2216  -19.9338 H   0  0  0  0  0  0  0  0  0  0  0  0
    5.7401    7.3204  -18.6827 H   0  0  0  0  0  0  0  0  0  0  0  0
    6.9391    6.0810  -17.0069 H   0  0  0  0  0  0  0  0  0  0  0  0
    8.7342    6.1431  -16.9912 H   0  0  0  0  0  0  0  0  0  0  0  0
    5.4702    5.2795  -22.2951 H   0  0  0  0  0  0  0  0  0  0  0  0
    6.3757    4.0286  -23.2125 H   0  0  0  0  0  0  0  0  0  0  0  0
    4.5823    3.9631  -23.1349 H   0  0  0  0  0  0  0  0  0  0  0  0
    3.4592    3.5312  -20.9448 H   0  0  0  0  0  0  0  0  0  0  0  0
    3.1792    4.2775  -17.5547 H   0  0  0  0  0  0  0  0  0  0  0  0
    2.3552    3.6304  -18.9339 H   0  0  0  0  0  0  0  0  0  0  0  0
    3.5668   -0.7934  -19.7608 H   0  0  0  0  0  0  0  0  0  0  0  0
  1  2  2  0
  1  8  1  0
  2 10  1  0
  3  4  2  0
  3  9  1  0
  4 11  1  0
  5  7  1  0
  5  8  2  0
  6  9  2  0
  6 22  1  0
  7 10  2  0
  7 18  1  0
  8 25  1  0
  9 29  1  0
 10 30  1  0
 11 13  1  0
 11 22  2  0
 12 23  2  0
 12 24  1  0
 12 27  1  0
 13 25  1  0
 13 26  2  0
 14 16  1  0
 14 19  1  0
 15 17  1  0
 15 19  1  0
 16 28  1  0
 17 28  1  0
 18 20  1  0
 18 21  1  6
 18 23  1  0
 19 20  1  0
 19 27  1  0
 20 31  1  0
 20 32  1  0
  1 33  1  0
  2 34  1  0
  3 35  1  0
  4 36  1  0
  5 37  1  0
  6 38  1  0
 14 39  1  0
 14 40  1  0
 15 41  1  0
 15 42  1  0
 16 43  1  0
 16 44  1  0
 17 45  1  0
 17 46  1  0
 21 47  1  0
 21 48  1  0
 21 49  1  0
 23 50  1  0
 24 51  1  0
 24 52  1  0
 25 53  1  0
M  CHG  1  23   1
M  END
>  <OMEGA_C>  (2) 
k7bBQMwQbL9Fra/Bmt/YQICflLwAAbbBNY46QDpAncAj1YrBJMtyQPLCjcBbqJLBFcecQADKbj8B
KqfBBArvP8U5LsDWaYrBo+azQAKA7T8wbK3BB++jQNY84L5yGqjBNFX4P9yHgcAHq4bBIITSQDOW
rj8Q4LTBYTZrQB2lRcBoF5bByI+LQLr5gUBK+pnBcNaSQD/hIsAmNJ7BfgvSQE3kwkD1AqLBQZ/8
QAInmkBb15PBIDPUQJ+96UB6nprBUfn6QADvwkD9EY3BFreyQC1XVUDiTarBJLTVQDAXmEBfmZvB
Up/bQMgZY0C7IqPBOuWvQGjxhkD+oLTB6yguQCwZEcDD8ZHBBxKLQI5TaUC6+aPBmyRMQPrhfkC9
FJTBdfeLQK2Jnb8xQqHBDQmxQCGFTcBQfaHB066vQDW1kUBj/5TBAfP5QMib50BZDZTBPNyJPzFu
j8D2P37B8zzrQN53DEDMxrrBWq7iQDvCHED7z5zBX1z/QHbPbUAYO6nBLp/GQO0W/r/5lrDBGLjv
QJRbxr5SxrvBmRs/QA3mvcBfDojB6qiRQPJcosAKBpbBiyeFQJ6EpT8YjqHBK9mOP9C4A8AXNYfB
LlmzQOpQw0AjUabBGYLsQDynxEAozKfBMzMNQbbumUCPiJjBT/P7QHQ5fEAwho7BCCzVQNOLA0Fu
eJ/BI6+3QAhB6kAYdpXBHA3eQFSXwkAnDojBfL8LQTOUxED67YfBKwyvQHvxqEBiXLLBHAbMQPTp
gEA7s7nBaqKSQLWjfUA1FLnBC2RdQLL+YUACj6fBQHhLQJPhiED/b4zB5bsWQPVYaECqeJfBoUZk
QKscS78bFp7B3M3DQPhieb+/w67B9UrbQMAel70K8bTBmKM9QGqnn8A22orB9YF2QLA/j8ASdZLB
Bo+cQCJXXz/qvKbBvi/gP2SIOMAfk4vBenqzQFLp5T8HAa3Br2OkQCz1/L4doKfBbpTzP0nChcB2
WofBVfXSQF4wpj/USbTBMyFqQBt2SsBpUZbBNGmNQHqIiUAMSZvBBFiTQOV3JcBl753BZPaoQOZW
y0CDBazBDOLwQC5dxkDOCKLBSiOnQDbD+UB/XKjB+BnqQCBo9UBKLJ/BOq2nQHlCUkCYZKzBHLzF
QHwMr0AjjaTBLePQQCjOg0D21anBbbeRQEfsZkACVrfBC4onQOaHGcBO4pLBo+uGQAdJYkCDvqPB
wwlhQIy8hkA445LBuHWKQHppp7+/gqHB9NO0QG3ASsCyC6DB/NiuQACLpkASmJrBHNHRQPIGBUFq
eafB2geEPy+elMD+/3/BhqDoQNWmBUAFJrvBajvqQO3IWkCX2qLBvMbnQJD3i0Ar2LLBFKXJQEJB
AsDOca/BrvvzQH20375PPrrBC8ZFQASgv8Cfu4fBaJSVQKZyosBtVpXB16SEQLsHnT+dLqHB/dBt
P14XEcCA64jBr0+IQFgwvkB+B6zBSRK2QGNGykAmL7TBadkCQX50xEBiHanBzDoAQfc1tkAhQZvB
JiiVQLBqBkEvPK7BHiuXQIag+0BtiKDBi5LYQIKk90Dwj5fBR6wEQdykAkHSW57BCEKIQCFclUAW
grfBTEeoQJUWWkC05b3BM1VqQHd5PkAmTbjBILtUQDMARkBPeqTBBP9nQMJ7mUB4dozB9W0wQJby
Y0BfQpPBCAlcQGA2br9abp/BwsnCQN/Jcr/7Mq/BDi/ZQBD6P72urrXBIhrWPxkEOsAcFovB7Ggk
QFU4F8BHeZLBhvCcQJfPZz+i36bBe59BQEaancDkC4vB8OayQICe6T83Za3BfuykQAAs7b4dq6fB
sJDzPx6dhsBzWofB6KDRQGRnqj+b1LTB/XdrQJ2fSMAw+ZXBJkKMQCa+g0CBNprB1LaTQOWwJMBm
053B4sHFQLN0x0DDL6XBiMX8QLCkqEDKFZjB0I7HQOSw8EDirp7BzH/6QIKZ00BGP5LBWpSuQPLF
VEDQHKvBGn/SQA6cn0BUS57BulDZQD65b0DfXKXBaMekQID7gUBr5bXBza54QE50jMC7M5LBNvGI
QISHZkAs5KPBJddRQMAvgkCKgpPBYEyNQBmpoL+szKDBQrCxQEbkT8DUIKHBJjmxQMWVlkCsbZbB
tALxQAr09EDH1pnBiOGFP2mVmMDyU4DB1gzpQFzdCUDJGbvB4EznQH3uLkDh157BkAv5QBjCf0BR
jKzB/lTIQEKnAMCM9K/BFWXwQCo31L5AXrvBvoRSP3maFcDBUYjBXdIaQLJqrr9WgZXBJJyFQILT
oT+PLqHBsuJMQEKXvcApGIjB+fykQA39wkAgM6jB8vzbQF0eykAY+qvBbMwLQedRqUDHx53BSgEB
Qbz/jkB0M5LBq6nBQKoVBkFf+6PByu2uQPPC70B5ZpjBaC7hQO5h0kAZJIzBRrUMQeg52kBOYY7B
zZGhQCmGpEB6Z7TBEh6/QOLJeECIkLvBbsSGQOYta0BaS7nBClxXQCdzWEDVm6bBkEhVQBeIjkBL
JIzBa3EbQF1waUCoC5bBG7VnQIKpT7+0fp3Bw9vBQC5CeL9Fn63BGZzXQDzZ4r3EprTBNcNPQHCA
l8Bz6YXBgFGHQK3YfsDEPYvBP+yaQIZGcD8vY6bBtAXIP7GfZMCrYpDBKluyQIgm6z/U86zBojaj
QFmd4b5OiKbBp53yPzHlkMBdjojBht7PQNOKoz+uc7TBES11QGtzQsDcE5PBTEWPQP+xhUDRY5rB
EXCaQBCwD8C/FJnBhyAAQQaIqEAyjprB39zrQBD3M0D5A5nBy4IHQah1pkBU0I7Bllz8QOWyN0CO
Xo3BGaepQB7gV0AhMazB01ncQE3zhkBj/pzBLtvRQPZMiEChQ6nBeAeWQNKDdEC0FLfBwQMhQHWO
NsANcJXBgeiHQHVvakA486PBT4lZQIqIi0C8k5PB4dWKQAffoL/O6J/BgvbAQOe9GcA3mZfB69e2
QIxPk0Cp1JbBarUOQRWXd0D/U4zBkOprP1Wnp8C4qYPBL37kQOdZAkDtxLvBkXT1QN89e0Dz3q7B
abjIQJWvsUDo6avBI5fIQDPcAcBqp63BOnbuQKRxBL/7QbrBYohhQGSorsBCyn/BDseoQDLhg8AQ
Y4nBYD+CQDh7qT/kLqHBelAGPxRRWsC4ZJLBlMjzQGLHyEDmNJzBGesNQd4bokATyJ/Bw/ICQcmm
HUCSPZ7BwfLQQBa4BkD9b5nBFLoUQcUrvUD7ko3BBCb0QOjxrkB0ionBQ6XhQC7rR0CgAojBa7gE
QUam8T87I4vBGW2PQEDSnEAb3LbBVsWsQGSkZkDskb3BQhNwQNp0UUBHgLjBAyVTQFnQXEDe16XB
2z5iQN4emUCUaozBXgofQIQogkCM0pXBQENWQHmqj7+IDqDB

>  <OMEGA_E>  (2) 
pMMCPwSnGT8U+iM/1rpAPw==

>  <OMEGA_NBR>  (2) 
    110785

$$$$
450319
     RDKit          3D

 53 56  0  0  1  0  0  0  0  0999 V2000
    5.2998   -0.9592  -22.1909 C   0  0  0  0  0  0  0  0  0  0  0  0
    5.9784   -0.1393  -23.0980 C   0  0  0  0  0  0  0  0  0  0  0  0
    3.1898   -5.1450  -17.2856 C   0  0  0  0  0  0  0  0  0  0  0  0
    4.0915   -4.5012  -18.1495 C   0  0  0  0  0  0  0  0  0  0  0  0
    5.2013    0.8900  -20.5993 C   0  0  0  0  0  0  0  0  0  0  0  0
    1.6827   -3.2596  -17.5599 C   0  0  0  0  0  0  0  0  0  0  0  0
    5.8782    1.7446  -21.5040 C   0  0  0  0  0  0  0  0  0  0  0  0
    4.9389   -0.4512  -20.9292 C   0  0  0  0  0  0  0  0  0  0  0  0
    1.9679   -4.5151  -16.9907 C   0  0  0  0  0  0  0  0  0  0  0  0
    6.3074    1.1817  -22.7538 C   0  0  0  0  0  0  0  0  0  0  0  0
    3.7448   -3.2394  -18.6926 C   0  0  0  0  0  0  0  0  0  0  0  0
    4.4371    4.7126  -20.1479 C   0  0  0  0  0  0  0  0  0  0  0  0
    4.6428   -2.5336  -19.6249 C   0  0  0  0  0  0  0  0  0  0  0  0
    6.7753    6.4700  -20.9719 C   0  0  0  0  0  0  0  0  0  0  0  0
    5.5540    6.5519  -23.1646 C   0  0  0  0  0  0  0  0  0  0  0  0
    8.0675    6.8841  -21.7153 C   0  0  0  0  0  0  0  0  0  0  0  0
    6.8798    6.9603  -23.8503 C   0  0  0  0  0  0  0  0  0  0  0  0
    6.2258    3.2026  -21.0541 C   0  0  2  0  0  0  0  0  0  0  0  0
    5.7821    5.6768  -21.8848 C   0  0  0  0  0  0  0  0  0  0  0  0
    6.2138    4.2143  -22.2694 C   0  0  0  0  0  0  0  0  0  0  0  0
    7.6141    3.1067  -20.3472 C   0  0  0  0  0  0  0  0  0  0  0  0
    2.5586   -2.6491  -18.3864 N   0  0  0  0  0  0  0  0  0  0  0  0
    5.2380    3.6717  -20.0151 N   0  0  0  0  0  0  0  0  0  0  0  0
    3.4683    4.9363  -19.1822 N   0  0  0  0  0  0  0  0  0  0  0  0
    4.2782   -1.2408  -20.0000 N   0  0  0  0  0  0  0  0  0  0  0  0
    5.7011   -3.0408  -19.9883 O   0  0  0  0  0  0  0  0  0  0  0  0
    4.5085    5.5965  -21.2002 O   0  0  0  0  0  0  0  0  0  0  0  0
    7.7463    7.6396  -22.9100 O   0  0  0  0  0  0  0  0  0  0  0  0
    1.0708   -5.1056  -16.1699 F   0  0  0  0  0  0  0  0  0  0  0  0
    7.0388    1.8637  -23.6597 F   0  0  0  0  0  0  0  0  0  0  0  0
    5.2804    3.7869  -23.1736 F   0  0  0  0  0  0  0  0  0  0  0  0
    7.4354    4.2187  -22.8631 F   0  0  0  0  0  0  0  0  0  0  0  0
    5.0541   -1.9766  -22.4573 H   0  0  0  0  0  0  0  0  0  0  0  0
    6.2513   -0.5245  -24.0694 H   0  0  0  0  0  0  0  0  0  0  0  0
    3.4308   -6.1061  -16.8558 H   0  0  0  0  0  0  0  0  0  0  0  0
    5.0365   -4.9621  -18.3963 H   0  0  0  0  0  0  0  0  0  0  0  0
    4.8821    1.2746  -19.6420 H   0  0  0  0  0  0  0  0  0  0  0  0
    0.7449   -2.7753  -17.3310 H   0  0  0  0  0  0  0  0  0  0  0  0
    7.0494    5.8361  -20.1158 H   0  0  0  0  0  0  0  0  0  0  0  0
    6.2714    7.3781  -20.6093 H   0  0  0  0  0  0  0  0  0  0  0  0
    5.0113    7.4640  -22.8755 H   0  0  0  0  0  0  0  0  0  0  0  0
    4.9492    5.9770  -23.8813 H   0  0  0  0  0  0  0  0  0  0  0  0
    8.6849    7.5050  -21.0495 H   0  0  0  0  0  0  0  0  0  0  0  0
    8.6277    5.9807  -21.9981 H   0  0  0  0  0  0  0  0  0  0  0  0
    7.3870    6.0588  -24.2245 H   0  0  0  0  0  0  0  0  0  0  0  0
    6.6600    7.6335  -24.6921 H   0  0  0  0  0  0  0  0  0  0  0  0
    7.9208    4.1055  -20.0032 H   0  0  0  0  0  0  0  0  0  0  0  0
    7.5400    2.4286  -19.4842 H   0  0  0  0  0  0  0  0  0  0  0  0
    8.3603    2.7180  -21.0558 H   0  0  0  0  0  0  0  0  0  0  0  0
    5.1859    3.1548  -19.1607 H   0  0  0  0  0  0  0  0  0  0  0  0
    2.8513    5.7189  -19.2648 H   0  0  0  0  0  0  0  0  0  0  0  0
    3.3864    4.3151  -18.4029 H   0  0  0  0  0  0  0  0  0  0  0  0
    3.4698   -0.8491  -19.5608 H   0  0  0  0  0  0  0  0  0  0  0  0
  1  2  2  0
  1  8  1  0
  2 10  1  0
  3  4  2  0
  3  9  1  0
  4 11  1  0
  5  7  1  0
  5  8  2  0
  6  9  2  0
  6 22  1  0
  7 10  2  0
  7 18  1  0
  8 25  1  0
  9 29  1  0
 10 30  1  0
 11 13  1  0
 11 22  2  0
 12 23  2  0
 12 24  1  0
 12 27  1  0
 13 25  1  0
 13 26  2  0
 14 16  1  0
 14 19  1  0
 15 17  1  0
 15 19  1  0
 16 28  1  0
 17 28  1  0
 18 20  1  0
 18 21  1  1
 18 23  1  0
 19 20  1  0
 19 27  1  0
 20 31  1  0
 20 32  1  0
  1 33  1  0
  2 34  1  0
  3 35  1  0
  4 36  1  0
  5 37  1  0
  6 38  1  0
 14 39  1  0
 14 40  1  0
 15 41  1  0
 15 42  1  0
 16 43  1  0
 16 44  1  0
 17 45  1  0
 17 46  1  0
 21 47  1  0
 21 48  1  0
 21 49  1  0
 23 50  1  0
 24 51  1  0
 24 52  1  0
 25 53  1  0
M  CHG  1  23   1
M  END
>  <OMEGA_C>  (3) 
S5ipQB6Pdb8Jh7HBbE+/QKKmDr6tyLjBvCVMQCikpMDPSIrBZO2CQNgJkMAmMpHBTXGmQMjXYz9u
y6TBu2LXP9GdUMCeeozBmRq8QBVO3z8nCKzBxAueQLoE577wbqfBluT7P6x7kMAG7YfB0NXJQCtC
lz/QB7bBgapvQP1ST8BzipXBy/yNQM3NlkDQLqHB0pGUQBAnIsDK/5zB/c7YQG8Kz0CGxqfBI7qx
QDSp0UAOUbnBWBQBQcpK3ED+uK3B7ybcQCG73kByzb7BBDrHQN32TEDSbqjBWge5QAyotUAVFK/B
C9fGQNDbhkC0J7LBHKfzQBjURkD4xqLB5sAjQFCKKcBpF5PBoJ2nQNL9akAFH6DB8PhdQCD2nUAe
dZnB2OaIQADUnr8WAKDBpG+2QOebQsAA6J/BjUWQQJoWs0ANmqnBh+H3QLd39EC5R7fBGw+JPzxh
o8D6W4HB9z3hQGmN7j8QR73B+vioQHxcckChY7nB2e7tQDf/hkCI57bBKbuhQHAB/b90qLPBkQrI
QHpIBr8IjsDBvJJbQDtlw8DC2IbB8yqhQGDJnsC1K5PB6jmcQBsmoz+7Ip3BZ7Q+PxOeMcDNpYrB
1JThQDXBukAq7aDB9K7IQD0Z7EDX36TBXlygQBXZ7kAIAbfBhV+eQHhDv0DgDL/BRfUKQTcp8EBy
ZajB9woKQc1hv0Ab/K/B5mHsQODhwUDEy8HBlh7VQHJF9EBpicXBPHf9QG1gg0CJBqDBikfxQJBu
G0Cb35vBscMFQbTzLUBScqjBlfKlQL3oSUAbSZnB5ns2QEMBt0BQHprBLLpYQPkUikAOOZPBoBBe
QHtbWb9yfJzBcmeyQLwGc78im7DB/1vJQL4TLb4X2LfBe/JRQM+dmsC/1YfBTESEQKZiicBhpY/B
5TGrQBBUej9KwKTBrnjXP//yRMCKDYzBiSPBQEEU5z+7MKzBEYekQDbgyb4+16bBVWACQOPmhsBK
C4bBgebRQGuplj87obXBGDtuQCUkScB/YZXBN4KNQNDLnEB+JKTB4yqTQLgjIsCzdJ3BxALfQM2u
z0CRRqvBd0a3QMbyzECQIL3BnA3iQIpG/0DQlq7BCnOpQMwq/EDP0rvBl0rIQD2GVEAhfanBJci8
QElRtkCpBrLB4THJQPDAhkB47rPBMAPyQJsuWkBttqLBvi8hQErgI8DNepPB242kQGUPdEDzaqLB
tMtYQD8opkDwJJ3Bl76OQJBGlL9vQZ/Bq9CuQN2hTcBM1qHBr7KTQNA9uEBFoqzBNKu4QNRWB0EK
5rHBr8WXP96plsCCQH3BGQHqQJNl6D8J9LzBu+mrQPGdbED197rBNcvwQK/jhkA9hLjBMD+rQIZj
/b8Ae7LBF6fUQLA5G7/pOL/BmrlkQOB4tsCZSoPBT+eiQIcDmMAdQ5HB2G2fQHXdsz+0YZ3B9rY5
P7TtJsBBsorBa3z+QCigwEA6cKzBzhjWQFD5zUDyxaLBJ7+eQAXZu0A9xcHBve/VQK3cy0DpcMHB
AFntQI8lCUFXvqfB2MT4QHdAAUFIQ7XBJnC2QJJmB0HOi8LBUUqGQPHJ/UDL8rvBwVX4QHyxjkAl
n6DBtCvuQMJkNECkWZvBSIEGQWm9QEDsYKfBmLydQD6WUUCE5ZvBDEQ0QHv5v0CKXZ7BZo1NQNYX
k0Di35bBIpFzQEtnLL+8nprB

>  <OMEGA_E>  (3) 
NGdhPygvYD8=

>  <OMEGA_NBR>  (3) 
    112857

$$$$
450385
     RDKit          3D

 49 52  0  0  1  0  0  0  0  0999 V2000
    6.1716   -0.8416  -21.8016 C   0  0  0  0  0  0  0  0  0  0  0  0
    6.8810    0.0553  -22.6092 C   0  0  0  0  0  0  0  0  0  0  0  0
    2.9543   -4.9256  -17.2981 C   0  0  0  0  0  0  0  0  0  0  0  0
    3.8226   -4.4293  -18.2825 C   0  0  0  0  0  0  0  0  0  0  0  0
    4.9873    1.0310  -20.7951 C   0  0  0  0  0  0  0  0  0  0  0  0
    1.8060   -2.7861  -17.3300 C   0  0  0  0  0  0  0  0  0  0  0  0
    5.6866    1.9630  -21.6142 C   0  0  0  0  0  0  0  0  0  0  0  0
    5.2242   -0.3551  -20.8746 C   0  0  0  0  0  0  0  0  0  0  0  0
    1.9345   -4.0902  -16.8147 C   0  0  0  0  0  0  0  0  0  0  0  0
    6.6493    1.4396  -22.5273 C   0  0  0  0  0  0  0  0  0  0  0  0
    3.6503   -3.1048  -18.7570 C   0  0  0  0  0  0  0  0  0  0  0  0
    4.4109    3.9542  -19.2815 C   0  0  0  0  0  0  0  0  0  0  0  0
    4.5786   -2.5323  -19.7525 C   0  0  0  0  0  0  0  0  0  0  0  0
    8.2484    3.5174  -18.1730 C   0  0  0  0  0  0  0  0  0  0  0  0
    8.0569    4.7931  -19.0157 C   0  0  0  0  0  0  0  0  0  0  0  0
    7.5368    2.7644  -19.3078 C   0  0  0  0  0  0  0  0  0  0  0  0
    5.3545    3.4961  -21.5319 C   0  0  1  0  0  0  0  0  0  0  0  0
    6.8069    4.0976  -19.5838 C   0  0  0  0  0  0  0  0  0  0  0  0
    6.5334    4.4149  -21.0622 C   0  0  0  0  0  0  0  0  0  0  0  0
    4.8508    3.9782  -22.9130 C   0  0  0  0  0  0  0  0  0  0  0  0
    2.6497   -2.3186  -18.2770 N   0  0  0  0  0  0  0  0  0  0  0  0
    4.2268    3.7244  -20.5690 N   0  0  0  0  0  0  0  0  0  0  0  0
    3.3120    3.8947  -18.4390 N   0  0  0  0  0  0  0  0  0  0  0  0
    4.4533   -1.1684  -20.0340 N   0  0  0  0  0  0  0  0  0  0  0  0
    5.4623   -3.2324  -20.2339 O   0  0  0  0  0  0  0  0  0  0  0  0
    5.6356    4.2804  -18.7319 O   0  0  0  0  0  0  0  0  0  0  0  0
    1.0830   -4.5317  -15.8630 F   0  0  0  0  0  0  0  0  0  0  0  0
    7.3524    2.2294  -23.3658 F   0  0  0  0  0  0  0  0  0  0  0  0
    7.6535    4.2738  -21.8162 F   0  0  0  0  0  0  0  0  0  0  0  0
    6.1774    5.7302  -21.1378 F   0  0  0  0  0  0  0  0  0  0  0  0
    6.3486   -1.9035  -21.8876 H   0  0  0  0  0  0  0  0  0  0  0  0
    7.6165   -0.3213  -23.3046 H   0  0  0  0  0  0  0  0  0  0  0  0
    3.0683   -5.9306  -16.9197 H   0  0  0  0  0  0  0  0  0  0  0  0
    4.6143   -5.0504  -18.6747 H   0  0  0  0  0  0  0  0  0  0  0  0
    4.2538    1.3980  -20.0924 H   0  0  0  0  0  0  0  0  0  0  0  0
    1.0176   -2.1466  -16.9612 H   0  0  0  0  0  0  0  0  0  0  0  0
    9.2962    3.2245  -18.0110 H   0  0  0  0  0  0  0  0  0  0  0  0
    7.7141    3.5150  -17.2115 H   0  0  0  0  0  0  0  0  0  0  0  0
    7.8576    5.7070  -18.4368 H   0  0  0  0  0  0  0  0  0  0  0  0
    8.8530    4.9898  -19.7489 H   0  0  0  0  0  0  0  0  0  0  0  0
    8.1936    2.4173  -20.1190 H   0  0  0  0  0  0  0  0  0  0  0  0
    6.8881    1.9379  -18.9821 H   0  0  0  0  0  0  0  0  0  0  0  0
    4.6159    5.0517  -22.8639 H   0  0  0  0  0  0  0  0  0  0  0  0
    5.6325    3.8083  -23.6680 H   0  0  0  0  0  0  0  0  0  0  0  0
    3.9459    3.4172  -23.1894 H   0  0  0  0  0  0  0  0  0  0  0  0
    3.2903    3.7015  -20.9190 H   0  0  0  0  0  0  0  0  0  0  0  0
    3.4191    4.0854  -17.4632 H   0  0  0  0  0  0  0  0  0  0  0  0
    2.4119    3.6612  -18.8069 H   0  0  0  0  0  0  0  0  0  0  0  0
    3.7014   -0.7045  -19.5656 H   0  0  0  0  0  0  0  0  0  0  0  0
  1  2  2  0
  1  8  1  0
  2 10  1  0
  3  4  2  0
  3  9  1  0
  4 11  1  0
  5  7  1  0
  5  8  2  0
  6  9  2  0
  6 21  1  0
  7 10  2  0
  7 17  1  0
  8 24  1  0
  9 27  1  0
 10 28  1  0
 11 13  1  0
 11 21  2  0
 12 22  2  0
 12 23  1  0
 12 26  1  0
 13 24  1  0
 13 25  2  0
 14 15  1  0
 14 16  1  0
 15 18  1  0
 16 18  1  0
 17 19  1  0
 17 20  1  6
 17 22  1  0
 18 19  1  0
 18 26  1  0
 19 29  1  0
 19 30  1  0
  1 31  1  0
  2 32  1  0
  3 33  1  0
  4 34  1  0
  5 35  1  0
  6 36  1  0
 14 37  1  0
 14 38  1  0
 15 39  1  0
 15 40  1  0
 16 41  1  0
 16 42  1  0
 20 43  1  0
 20 44  1  0
 20 45  1  0
 22 46  1  0
 23 47  1  0
 23 48  1  0
 24 49  1  0
M  CHG  1  22   1
M  END
>  <OMEGA_C>  (4) 
j33FQM9zV7+8aa7BODHcQOCkYj2P37TBrBM9QCSencCRYorB0aR0QHS8jcCBQpLB45efQFH5gz9Y
XKbBLCrnP15PMsDJo4rBdvi1QMtE+z/N6azBjyynQLzRtb40/6bBAZ33P0zjgsCHhIbBBsfUQB1F
uD/7N7TBRZ9pQMq0RsBHDpbB6CWNQBIRfUB0QJrB5IOSQHQQIsAHBZ7Bg/kDQRgdYUBiYpHBBOkA
QWphmUAuIJjBey3xQDDsMEBUdprBDlirQL7AX0BZQazBiNLZQMYfg0Cnq5zBwRHRQHZGjUBWf6jB
9TmbQHabfkDaTbfBR5QpQJBjFMBeN5LBx0GHQPpcbkBMjaTBMfdTQF5DeUAIg5PBYoGOQAuPlb+3
RaDBWMuuQIjfTsAV36HBlVa0QFj5iEAA25XBOKCKP+ADkcDCzn3BwkbrQDCuDkA57brBoOn0QMbC
iECOh67B8KzFQLNdt0AeGqnBqifLQP+m87+8Ga/BGrrzQF+CpL7Ub7rBe19EQLDHvcB5W4fB9aeT
QLWcocC+ZZXBZR+IQKbwsj8wvaDBLkKCP0ViCcB8sIfBXb0UQaRdTkBwFpDBv9n2QHD1YEA8sYnB
h3H7QOaftkCcfpPB9KUNQYasn0Cp/Z3BJhkDQVC0GkCq86DBDWvcQHkN+D9x25fBT7WTQM+noUBW
6bbBsz20QHC6c0AdWL3BsYl8QBS0WkDug7nBopRSQLTlbEAqWqfBM9NaQEu7gkCbtIvBo1waQJ1R
akCMdJbBY+NsQC1cNL9hhpzBv5bDQA2scL/TsK/BCPjYQMAPrbx8SLbBQgY8QKoLmcArzonBIDp2
QCMZi8DGlpHBjqmcQLRRYz9MXqfBO7jmP3EeKcDVTYvBzCSyQBqS6T9+ya3B4jOlQCZL8b4jOqjB
q1LzP4flesCWqYbBME3QQNpZrT81crXB3qJsQE12Q8At+JXBR3mLQAKGgkAA75nBmUaUQM2FI8Be
FJ7BHWvuQNy81EDto5nBGBfWQMwVw0ArWKPBYmf9QDitpkA5YpfBPSywQAe0UkCsfKrBeUvUQFKL
mEDxG53BthfaQP08YUBc3aPBstCqQOw/h0BnYbTBMAUsQPLeDsBRwJLBIHyJQHNXZEABpKPBCpBO
QHiZgED2hpPBhlGNQBo4ob9UbaHB/b+yQF+kTsAIGaHBKw+wQLYClUAwzpXBKL1/P6wZisC0jn7B
ulXmQKC7DEAb2rvBJK7hQDJTH0CJ5ZzBevj8QL8laEB3WarBJFTKQASL/7/dUrDBXDPwQES9vr5o
B7zB+BRCQNx1uMDcSIbB/9SUQGKwn8DeMpTBOhuFQEFrnT8cq6HB5b+AP8Fv/b/N3YjBpSIEQT5H
60BlnpvBgfXZQMKq4kAZYpPBrta2QHIb0kD226TB/ZfoQOEDwkBh06rBxqgNQYZbnUDUZJvB+iv/
QG0FnkCG3Y7BPYSpQJbDqECjtbHB/SXGQK3sgkCm0bnB4P+MQOhNfkDjmLjBK0VZQA5vVkA6oqbB
6SJQQItyjEAsGYzBIc4YQJ+6ZkBpVpbBYfxlQCaUU7/zep7BegTFQEILV7+CUK7B1sjbQKDQVD1o
zLTBhvjcP1KmNsBu9onBZm8kQLSFFMDT0ZHBDqmfQNFLhT9ROqbBVz5BQAT+nMDs2YrBjhG2QGf7
+z9506zBIgCnQJfAsb7+26bBpp36P3ExhcC/ZobBLLLUQD4GuD/QI7TBjF5oQG7fRsCd9pXBBvuM
QAodfUBDSprBBNCRQCaqIcCR7J3BN4UDQVyvYUBUEZHBM9IAQYSImUBC5pfBaHbwQLJrMUDXKprB
nrirQI5OYECROKzBlqTZQHaKg0AFh5zBdpHRQE1RjUByZ6jBSBCcQKpCf0AWT7fBc/p0QM8pjMBJ
dpLBWmGHQGh5b0CJnqTB7QBUQNaqdEDCjZPBim2OQPgYlL9JGKDBQqmtQMIbT8CT26HBqNWzQBro
iUAY2pXBwHeVP651lsCIin3B9krrQEQ0DkBH3rrBCKr1QKkeiEBcT67BtrLGQOiCt0C1JKnBDGnK
QIeb87/lA6/BZSLzQHrfqL5gY7rBKRFqP3I4EcB/tobB52caQFRZqL/rtpTBPGCIQGfmtD8mlKDB
dEFMQLZUvcDbIYjBrjQUQeNYTkCfp4/Bd5T1QHhRYkBWbYnB81T7QF34tkDqVpPBGLsNQXpon0CP
sp3BrtYCQa9iGkBykqDB3k/bQO81+j9dk5fBZMKUQGcIokBK8bbB4Dy1QBr9c0DMS73Bfh9+QP+2
W0DMkrnBpBJTQGI/b0CJgafBB5VaQGnxfkBSs4vBXvQaQFpMZEAQjJbBmrNtQLVeL7/FOJzBlVHD
QKfwcb9ala/BuSrYQMB867zaS7bBL9zeP+GpMcDHl4rBPmEpQG5jEcDuE5LBdfqbQEVAYj+SXqfB
piI+QHPXm8AiFIvBFzqxQPwH6T9k263BtxqlQNyn875HFqjBBbPzP9oFg8BgEofBSEfPQAJGrD8F
iLXB0OJsQFBRRsAX5pXBe32LQHrhg0CzBJrBQ52UQC2CJMC14p3BWXbzQPZs0UABWpnBtG7aQJd1
wUCSIaPBv8j+QB9/okAe8JbB6xWwQARhUkBcbarBDm3VQN8Ul0Do75zBo8vZQNrMXUAjp6PBgw2s
QHzth0B3M7TBiPN1QHHfi8DgU5LB8niJQFpVZUBzoqPBngtOQB9Ag0AkspPB5TGOQDukob9cEKHB
nk2yQPaLUMAkLaHBDl+wQBKzlUDq15XBLzOFPyitk8AVyX/B+VLlQGz1C0DZ9rvB45bfQPKRG0AI
oJzBTyf9QDyUYUCrBKrB7VbKQPoCAMB0JrDBtzDvQHhww76UFrzBYj9vP910CsDQl4fBHf4iQNIN
ob949JTB8CqEQE7DnD94u6HBqgdGQFhSvMDeS4jBe4oHQRfd5UB1Q5vBMb3fQGsT4UCuM5PBv1i8
QBGU0kB+uqTBsivtQAotv0AIj6rB6TIOQW7zlkAiuJrBMff+QBX9mUAlZo7B8lirQBVDqUAxYbHB
36DHQKheg0DnjLnBMFaOQAjVgEBckrjBYjdZQIX7VkD+labBoalPQHiAj0DkTozBpdcXQN8WbUBr
hpbBlLxpQA6OUL8jvZ3B

>  <OMEGA_E>  (4) 
6AvCPqR/0j4EzwM/rFUMPw==

>  <OMEGA_NBR>  (4) 
    116498

$$$$
