50216755
     RDKit          3D

 61 63  0  0  1  0  0  0  0  0999 V2000
    8.2960    8.1331  -18.3993 C   0  0  0  0  0  0  0  0  0  0  0  0
    7.2875    7.6032  -17.5765 C   0  0  0  0  0  0  0  0  0  0  0  0
    7.9620    8.7678  -19.6106 C   0  0  0  0  0  0  0  0  0  0  0  0
    6.5009    0.6623  -21.8299 C   0  0  0  0  0  0  0  0  0  0  0  0
    7.2673   -0.4981  -22.0460 C   0  0  0  0  0  0  0  0  0  0  0  0
    5.6012    8.3335  -19.1822 C   0  0  0  0  0  0  0  0  0  0  0  0
    4.8873   -0.6490  -20.5441 C   0  0  0  0  0  0  0  0  0  0  0  0
    5.9369    7.7071  -17.9645 C   0  0  0  0  0  0  0  0  0  0  0  0
    6.6051    8.8925  -20.0122 C   0  0  0  0  0  0  0  0  0  0  0  0
    5.3055    0.5889  -21.0832 C   0  0  0  0  0  0  0  0  0  0  0  0
    6.8502   -1.7327  -21.5065 C   0  0  0  0  0  0  0  0  0  0  0  0
    5.6589   -1.8089  -20.7491 C   0  0  0  0  0  0  0  0  0  0  0  0
    5.8372    1.7955  -18.5120 C   0  0  0  0  0  0  0  0  0  0  0  0
    5.6504    4.0997  -16.8762 C   0  0  0  0  0  0  0  0  0  0  0  0
    5.3443    2.7013  -19.6751 C   0  0  2  0  0  0  0  0  0  0  0  0
    5.1732    4.8134  -18.1594 C   0  0  1  0  0  0  0  0  0  0  0  0
    4.4344    3.8506  -19.1304 C   0  0  1  0  0  0  0  0  0  0  0  0
    7.3758   10.3492  -21.9987 C   0  0  0  0  0  0  0  0  0  0  0  0
    5.0240   10.5210  -21.1660 C   0  0  0  0  0  0  0  0  0  0  0  0
    5.7955    8.4262  -22.3493 C   0  0  0  0  0  0  0  0  0  0  0  0
    4.5575    1.8585  -20.7224 C   0  0  0  0  0  0  0  0  0  0  0  0
    4.8496    7.0819  -17.1123 C   0  0  0  0  0  0  0  0  0  0  0  0
    6.2126    9.5404  -21.3606 C   0  0  0  0  0  0  0  0  0  0  0  0
    7.6292   -2.8640  -21.7110 N   0  0  0  0  0  0  0  0  0  0  0  0
    4.2353    5.9183  -17.8050 N   0  0  0  0  0  0  0  0  0  0  0  0
    7.8982    3.3634  -18.0418 O   0  0  0  0  0  0  0  0  0  0  0  0
    6.9632    1.9371  -16.1424 O   0  0  0  0  0  0  0  0  0  0  0  0
    3.9531    4.6313  -20.2272 O   0  0  0  0  0  0  0  0  0  0  0  0
    5.2664   -2.9804  -20.1908 F   0  0  0  0  0  0  0  0  0  0  0  0
    6.7544    2.7710  -17.3323 S   0  0  0  0  0  0  0  0  0  0  0  0
    9.3310    8.0532  -18.1012 H   0  0  0  0  0  0  0  0  0  0  0  0
    7.5473    7.1169  -16.6478 H   0  0  0  0  0  0  0  0  0  0  0  0
    8.7448    9.1638  -20.2405 H   0  0  0  0  0  0  0  0  0  0  0  0
    6.8274    1.6086  -22.2353 H   0  0  0  0  0  0  0  0  0  0  0  0
    8.1766   -0.4431  -22.6261 H   0  0  0  0  0  0  0  0  0  0  0  0
    4.5664    8.3881  -19.4863 H   0  0  0  0  0  0  0  0  0  0  0  0
    3.9726   -0.7055  -19.9727 H   0  0  0  0  0  0  0  0  0  0  0  0
    4.9702    1.3387  -18.0124 H   0  0  0  0  0  0  0  0  0  0  0  0
    6.4867    1.0046  -18.9152 H   0  0  0  0  0  0  0  0  0  0  0  0
    6.1804    4.8154  -16.2306 H   0  0  0  0  0  0  0  0  0  0  0  0
    4.7835    3.6911  -16.3363 H   0  0  0  0  0  0  0  0  0  0  0  0
    6.2190    3.1499  -20.1687 H   0  0  0  0  0  0  0  0  0  0  0  0
    6.0492    5.2301  -18.6780 H   0  0  0  0  0  0  0  0  0  0  0  0
    3.5898    3.3958  -18.5920 H   0  0  0  0  0  0  0  0  0  0  0  0
    7.0405   10.7854  -22.9513 H   0  0  0  0  0  0  0  0  0  0  0  0
    7.6811   11.1544  -21.3142 H   0  0  0  0  0  0  0  0  0  0  0  0
    8.2297    9.6805  -22.1822 H   0  0  0  0  0  0  0  0  0  0  0  0
    4.7581   10.9722  -22.1333 H   0  0  0  0  0  0  0  0  0  0  0  0
    4.1579    9.9725  -20.7669 H   0  0  0  0  0  0  0  0  0  0  0  0
    5.3138   11.3127  -20.4595 H   0  0  0  0  0  0  0  0  0  0  0  0
    5.5141    8.8766  -23.3126 H   0  0  0  0  0  0  0  0  0  0  0  0
    6.6383    7.7355  -22.5000 H   0  0  0  0  0  0  0  0  0  0  0  0
    4.9376    7.8738  -21.9384 H   0  0  0  0  0  0  0  0  0  0  0  0
    4.4140    2.4604  -21.6318 H   0  0  0  0  0  0  0  0  0  0  0  0
    3.5771    1.5895  -20.3023 H   0  0  0  0  0  0  0  0  0  0  0  0
    5.2868    6.7449  -16.1609 H   0  0  0  0  0  0  0  0  0  0  0  0
    4.0718    7.8337  -16.9125 H   0  0  0  0  0  0  0  0  0  0  0  0
    7.1986   -3.6504  -21.2681 H   0  0  0  0  0  0  0  0  0  0  0  0
    7.7123   -3.0384  -22.6922 H   0  0  0  0  0  0  0  0  0  0  0  0
    3.8157    6.2492  -18.6502 H   0  0  0  0  0  0  0  0  0  0  0  0
    3.3998    5.3307  -19.8999 H   0  0  0  0  0  0  0  0  0  0  0  0
  1  2  2  0
  1  3  1  0
  2  8  1  0
  3  9  2  0
  4  5  2  0
  4 10  1  0
  5 11  1  0
  6  8  2  0
  6  9  1  0
  7 10  2  0
  7 12  1  0
  8 22  1  0
  9 23  1  0
 10 21  1  0
 11 12  2  0
 11 24  1  0
 12 29  1  0
 13 15  1  0
 13 30  1  0
 14 16  1  0
 14 30  1  0
 15 17  1  0
 15 21  1  0
 16 17  1  0
 16 25  1  0
 17 28  1  0
 18 23  1  0
 19 23  1  0
 20 23  1  0
 22 25  1  0
 26 30  2  0
 27 30  2  0
  1 31  1  0
  2 32  1  0
  3 33  1  0
  4 34  1  0
  5 35  1  0
  6 36  1  0
  7 37  1  0
 13 38  1  0
 13 39  1  0
 14 40  1  0
 14 41  1  0
 15 42  1  6
 16 43  1  6
 17 44  1  1
 18 45  1  0
 18 46  1  0
 18 47  1  0
 19 48  1  0
 19 49  1  0
 19 50  1  0
 20 51  1  0
 20 52  1  0
 20 53  1  0
 21 54  1  0
 21 55  1  0
 22 56  1  0
 22 57  1  0
 24 58  1  0
 24 59  1  0
 25 60  1  0
 28 61  1  0
M  END
>  <OMEGA_C>  (1) 
lrwEQVohAkGuMZPBSjPpQFRN80CVnIzBacj+QBxJDEFu4pzBRAfQQOONKT+so67BlI3oQCoG/75B
XrDBUD2zQOlVBUEOdZnB4GScQFcmJr9GWqTB9/q9QCyg9kBet4/BFV3TQNNHDkEFGaDBocapQAvC
Fj9rqqjB2jTbQFTK3b9EDazBehW1QJCI578w/qXBVcq6QFTU5T+EGJTBSdC0QN8wg0B8AofBugSr
QCXiLECHZp3BA4ulQPkGmkBsRpHBReaNQJtwdkAMC5nBtwbsQHeWJUFZ/a/BTsSgQNlVKEHmU6nB
wHS5QLnRBkF0y7LB0NaRQEbi7T+Ix6XBii+bQDyf4kAU5ojBcs3GQJqlGEFz4qrBRSL0QH9LN8Ag
sK3BwIeHQL1ivUCpcI7BV778QINCV0CFVZDBKNLeQNDy9z+iI4HBFQB9QMIzlEBF0aHBp4aoQD6+
PsC/hqHBxSPYQNBYMUCiqIrB30sVQdzZAEFTz5DBuIPxQJe940CvLoXBheoLQeSeEkGe7KHBuXna
QCrnzT/p4bHBS9MCQQrg4r5aArXBux+SQIg1BkHe45vBWz5+QLeYNL8pyJ/BmgufQA9cqz9aGZDB
MZPPQDGYgD9cUpfB5MXFQPwXmkAs2IHBXxKZQAQ7bEDTsILBYQLHQCyXSUCAWaHBD5PBQBFdp0CO
bJXB3L5lQHdVWUBzvJTB60vhQNSQLEEwnLfBbsv1QH94MkGQg6rBBa0DQXvjGkEZdbHBDUKYQC6O
L0HtELHB2Q2FQHePH0GuIqbB5QqqQM0ANUEBraPBHXOwQIMGDkFIgLrBrWzUQECJ90Dq/7PB7ACe
QAL2+0Djga/BXj+NQNh3HUAFDq3BNu9kQC11yz8La6LBlC2pQHjW10CKSYHBEUyCQLet+kDfTIfB
qlrmQFafacD8JKrBBcv2QE51QsCJibXB2jR0QLn5x0C0M5XBupVZQFuVqkAFM5/Bz6wEQco6AkEt
S5PBiB/pQLdw80CetIzBWJX+QLd7DEHD9JzByHTQQOU4Jj8wdq7BkMvoQNkWA7+oTrDB+RCzQBuQ
BUHKfZnBE62cQFRSK79gR6TBXOC9QAPm9kA+x4/BcSHTQMaLDkHPIqDBxTWqQNGaEj/pfKjBn0Xb
QDIe4L/hGqzBsSa1QEhS6r9PDKbBI8u6QFhm5T914pPB9qa0QHWCg0Bu8YbBqy+rQK0oLECxQJ3B
So6lQPkVmkAGQ5HBzwOOQGMKdkCh/ZjBU9e4QDh5B0G13rLBnqLrQCoUJkG19q/BL36gQPzOKEGY
NKnB9yGSQCqF6z9omqXBcxibQKLY4kDf94jBpW7GQAAbGUHO36rBiQf0QJmFOMDc2K3BmIqHQO6R
vUBThY7Bo6j8QKt+V0DfMJDBR7beQJpH+j9x6YDBlHR9QJC6k0As06HBtVaoQDOFQMCKuqHB+wzY
QGjTMUDrfYrBDD8VQTvmAEHF75DB4X3xQDi840CKTIXBu8wLQWzXEkG5/6HBUwrbQJ2mzD+EnbHB
DfECQZzA6L4687TBRO2RQDN6BkFl5pvBSul+QLM/Or9bsJ/BwfyeQBGHqz9l4Y/BrZnPQEVifz/0
CpfBj4TFQAaLmkCDy4HB+taYQO4QbUBBooLBLj/HQHuaSEBYM6HBB6rBQCRDp0ABaZXBj9xlQB83
WUA/rZTBdMOvQD3dDkH6hrrBTrfTQEbP+ECCKbTBcWGdQIk3/UDDmq/B59HgQFwxLUGJi7fBs471
QFXcMkE7cqrB33ADQWteG0F3gLHBnd6XQGErMEES57DBcM2EQF8CIEGSBKbBSO6pQJVeNUHFgqPB
AGWNQGkdHEAD46zBrqdlQISXyD8pOaLBpxKpQPgV2EBaWoHB3ieCQFvb+kBkYIfBHSPmQC4Ma8A5
YKrBS6j2QEP7QsBQtrXBF8B0QH8ZyEAOUpXBHv5ZQHEyqkCSQ5/BA80EQc2DAkF8MJPBHULpQJy9
80Ajr4zB7Ar/QF3UDEGc2JzBlaicQCl4M7/gLqTBFnS1QFbo7L9IJ6bBlHmzQN+vBUEbjZnBvcDP
QGB9Jj8aTa7BuxW+QCgQ90Bg1I/B2bDTQKnGDkGCH6DBU7mpQEqNDT9VRKjBbXrbQLTu37+yLazB
k4noQORG/75RSbDBw4G6QCwI5T8gtZPBMZq0QBnUg0CT54bBuIWqQFxEK0DmGJ3BcEylQFoYmkDA
P5HB/3uNQKKAdUBA3ZjBfZ7sQKw5JkGu8q/Bf/WgQHiTKEF4ianBnt26QCcvB0GH5bLBzzqRQAjG
5z/XTKXBTy+bQG4W40CuCInBb2rHQAoYGUFD86rBREP0QI5YOMBY9q3BZHuHQBzMvUCPjY7B+WX8
QA6wV0CqNZDB4NjeQGRO/D9tzoDBXOl7QA0jk0AeuqHBKoIGQYr7yL67EbbBQ/HXQKxIMkBQbIrB
WFcVQX89AUFvxZDBH3vxQLjs40A5SIXBwBMMQTRUE0FQ0KHB7TV/QG7vRr8wi5/BL1+rQAXAM8B/
DqPB7maSQEKNBkFYBZzBM9zZQJ/IzT+uZrHBzt2eQKtGqz83oI/BjEzPQB9yfj/o25bB/I/FQCYE
m0DN0YHBNeGYQLvwbUCRiYLBQWrGQIhlR0A8J6HBh1jBQDsBp0CVeZXBGA1lQEkHWUAxd5TBwxni
QK4nLUEJmbfBO+H1QPkmM0FwcarBUhwEQdWpG0G5VrHBHLyYQFK8L0EAT7HBikKFQAyoH0FgcKbB
2KKpQLlNNUH526PB4BCyQD5VDkGVobrBCCXWQCCU+EB+BLTBi3afQMFg/EC6sK/BvqGLQDDgGUBa
k6zBmKlkQPgkwz+vwqHBRBmpQFla2EC5aIHBb06CQLMu+0A4dofBUu8GQbyaKMCBVrLBYdL9QB6A
UMAw86bBkc50QO5GyEA4XpXBxZ1YQEO1qUDBL5/BZLQEQR07AkE5EpPB0efoQCpP80Apl4zB8wz/
QLWcDEGkuZzBE4CcQEJQNL86O6TByTi1QFac7b8wL6bBlWCzQNatBUHqd5nBnN/PQBOjJD/FSq7B
o8a9QDjx9kAHwY/BerzTQN6uDkExBKDBq8epQMeYDD/NR6jBYVnbQDIH4b9TLKzBconoQP4lAr9V
R7DBi8+6QJi45T9bu5PB8su0QOkNhECp9YbBKLuqQBFZK0BFI53Bk06lQBMzmkDhTJHBfqONQC6N
dUCh65jBNYm5QCuNB0G+urLBfxXtQKbiJUFT46/Ba/WhQJEtKUHwLqnBVGORQAaZ5z9VUqXB0K6a
QHD/4kCiBYnB93zHQOI2GUFGyarBURb0QIQCOcCp7a3BQD6HQNWrvUDjlI7BP6D8QJKJWEDUSJDB
PVbfQFg7/j/d14DBnkJ8QPgek0Bay6HB9oAGQe7qz76pEbbBYkTYQFb6MkCPeYrBFzoVQTfaAEHq
opDBB/nwQDBd40DyMYXBYSIMQdMPE0HcrKHBa65+QI1JR7/CoZ/BFQGrQLoONMAMGqPBvlWSQNSm
BkEb9JvBVyDaQFHHzD/MX7HB2zafQGT9qz9YoY/B25/PQPLHfz8o35bB+7XFQH5Xm0C95IHB7SmZ
QGg7bkBZkoLBf5PGQOJ9R0BwNqHBlD3BQLFUp0DUh5XBNVNlQIoHWUCFiJTBnMCwQBvjDkHda7rB
aSLUQM6T+EBZ9bPBis2dQOzU/UBPdK/BHYjiQNT8LEHHfrfBeUr3QBCpMkEqZqrBiQcEQa/6GkFN
YbHBHqGZQMyGMEFY57DBJv+FQHuXIEGs/6XBLKirQNy5NUFOgqPBPMiLQEmsGUAkm6zBsvxkQElD
wz+XxKHBIVioQPZP2EBIXYHBibmBQH0S+0CvgofBk+MGQdJkKcC9R7LBM4P9QKgsUcDA56bBtER0
QDYryEAtZJXBpOVYQBivqUCdQ5/BwmDTQIE/CkFG26HB3lm3QM2T/ECLb5vB3LH0QP0MFkG7IJ3B
ZmnCQEdlBT83tq/BgLPbQGFDFb/ku7LB4oHeQJWICUHAfIvBXySmQI8cQ78NqKDBaiO9QBRE+0CR
OZDByq/6QID1FUGS4ZHBkk+nQCje3D5otKbBV7XaQI2s4r/UoqzBgiPAQP5g7b9Xg6PBZUG4QP7p
4D98upHBah21QOUshkDVUYbBvvWoQOZLJEDhppvB7lSmQBV2mkBj/ZDBMcGNQHY6dEAPT5jBeVgL
QXemO0E/lI/BJkolQVO5HEEYpJHBi9YQQdqZIUF1h4DBOdONQFtB0j/6EaPBcgedQI9Q5EARHYnB
EmMPQSG1I0Ee64zBRwT0QF+PNsDuoa/Bdv+IQOvQvkAgiI7Byln8QO0SUUAL1I7BSMXbQJO+A0Cc
mX3Bh6uAQOBokECYy6HBvY2/QJttPsDUbZ3BWanWQKOGMkCA6YjBQFrPQNxiCkH9b6rBXkydQHwh
60DJEZ/Buv0EQZ9MH0FIH6LBMcTDQEjTtz/WSbTB9OHvQB0xBb/TurnBUaniQJYwCUFj6YLByDKR
QJYYVr8yz5nBGSucQJ4jrz+sbo3BGUbMQG/Waj8XbJTB0QbHQF0LnkAbp4HBXu+YQFxmd0AXvoHB
ijLFQFd1OkDFHaDBaofCQFpTpkDKV5XBBudiQGh1XUA+65PBCSUYQSB5RUEZEIzBejMLQVDVPUGT
T5jB6KX3QF+ZQEHRP4zBWB0yQR5/JkEIHY7B6yEoQVXBC0GdyY/BDCIlQSn4HkFlXprBt+sdQce6
K0GdDnvBCqQBQXzCJkF/1XnBPfkTQTjSEEHNxXzBcrmDQNfKDUA8JarBaM5iQG12pj+nqJ7BVZet
QKoZ2UBN34HB4K6DQGcD+0Cq24bB9IXvQBfUZsA3gKrBmOnrQARsScD8ALfB5b94QB3/yECpbZXB
0UVgQDG6qEAh3p/B

>  <OMEGA_E>  (1) 
sEGyPlArtD6YP7k+0A67PvQDPD8=

>  <OMEGA_NBR>  (1) 
      5262

$$$$
50216763
     RDKit          3D

 65 67  0  0  1  0  0  0  0  0999 V2000
    8.3640    8.0250  -18.4982 C   0  0  0  0  0  0  0  0  0  0  0  0
    7.3635    7.5300  -17.6447 C   0  0  0  0  0  0  0  0  0  0  0  0
    8.0157    8.6514  -19.7099 C   0  0  0  0  0  0  0  0  0  0  0  0
    6.2527    0.6476  -22.0245 C   0  0  0  0  0  0  0  0  0  0  0  0
    7.0600   -0.4880  -22.2230 C   0  0  0  0  0  0  0  0  0  0  0  0
    5.6566    8.2757  -19.2217 C   0  0  0  0  0  0  0  0  0  0  0  0
    4.9499   -0.5777  -20.3642 C   0  0  0  0  0  0  0  0  0  0  0  0
    6.0068    7.6611  -18.0021 C   0  0  0  0  0  0  0  0  0  0  0  0
    6.6530    8.7987  -20.0834 C   0  0  0  0  0  0  0  0  0  0  0  0
    5.1847    0.5980  -21.1054 C   0  0  0  0  0  0  0  0  0  0  0  0
    6.8506   -1.6478  -21.4487 C   0  0  0  0  0  0  0  0  0  0  0  0
    5.8184   -1.6828  -20.4834 C   0  0  0  0  0  0  0  0  0  0  0  0
    5.7905    1.7752  -18.5203 C   0  0  0  0  0  0  0  0  0  0  0  0
    5.6660    4.0747  -16.8745 C   0  0  0  0  0  0  0  0  0  0  0  0
    5.2762    2.6880  -19.6721 C   0  0  2  0  0  0  0  0  0  0  0  0
    5.1737    4.7920  -18.1493 C   0  0  1  0  0  0  0  0  0  0  0  0
    4.3930    3.8410  -19.0975 C   0  0  1  0  0  0  0  0  0  0  0  0
    5.7533    8.3208  -22.3868 C   0  0  0  0  0  0  0  0  0  0  0  0
    7.4132   10.1886  -22.1223 C   0  0  0  0  0  0  0  0  0  0  0  0
    5.0972   10.4625  -21.2188 C   0  0  0  0  0  0  0  0  0  0  0  0
    4.4532    1.8655  -20.7140 C   0  0  0  0  0  0  0  0  0  0  0  0
    4.9268    7.0739  -17.1151 C   0  0  0  0  0  0  0  0  0  0  0  0
    6.2424    9.4358  -21.4319 C   0  0  0  0  0  0  0  0  0  0  0  0
    4.6307   -3.4873  -19.3961 C   0  0  0  0  0  0  0  0  0  0  0  0
    7.6997   -2.7361  -21.6059 N   0  0  0  0  0  0  0  0  0  0  0  0
    4.2687    5.9175  -17.7777 N   0  0  0  0  0  0  0  0  0  0  0  0
    7.8812    3.3002  -18.0775 O   0  0  0  0  0  0  0  0  0  0  0  0
    6.9490    1.8858  -16.1674 O   0  0  0  0  0  0  0  0  0  0  0  0
    3.8836    4.6275  -20.1770 O   0  0  0  0  0  0  0  0  0  0  0  0
    5.8265   -2.6842  -19.5234 O   0  0  0  0  0  0  0  0  0  0  0  0
    4.3461   -4.0722  -20.5891 F   0  0  0  0  0  0  0  0  0  0  0  0
    3.5607   -2.7722  -18.9609 F   0  0  0  0  0  0  0  0  0  0  0  0
    4.8779   -4.4536  -18.4753 F   0  0  0  0  0  0  0  0  0  0  0  0
    6.7378    2.7285  -17.3510 S   0  0  0  0  0  0  0  0  0  0  0  0
    9.4036    7.9245  -18.2237 H   0  0  0  0  0  0  0  0  0  0  0  0
    7.6340    7.0497  -16.7160 H   0  0  0  0  0  0  0  0  0  0  0  0
    8.7921    9.0236  -20.3618 H   0  0  0  0  0  0  0  0  0  0  0  0
    6.4509    1.5553  -22.5752 H   0  0  0  0  0  0  0  0  0  0  0  0
    7.8406   -0.4712  -22.9691 H   0  0  0  0  0  0  0  0  0  0  0  0
    4.6164    8.3488  -19.5028 H   0  0  0  0  0  0  0  0  0  0  0  0
    4.0996   -0.6328  -19.7006 H   0  0  0  0  0  0  0  0  0  0  0  0
    4.9307    1.3209  -18.0060 H   0  0  0  0  0  0  0  0  0  0  0  0
    6.4262    0.9827  -18.9419 H   0  0  0  0  0  0  0  0  0  0  0  0
    6.2210    4.7833  -16.2422 H   0  0  0  0  0  0  0  0  0  0  0  0
    4.8044    3.6813  -16.3152 H   0  0  0  0  0  0  0  0  0  0  0  0
    6.1435    3.1321  -20.1825 H   0  0  0  0  0  0  0  0  0  0  0  0
    6.0457    5.1881  -18.6903 H   0  0  0  0  0  0  0  0  0  0  0  0
    3.5628    3.3919  -18.5328 H   0  0  0  0  0  0  0  0  0  0  0  0
    5.4589    8.7646  -23.3493 H   0  0  0  0  0  0  0  0  0  0  0  0
    6.5646    7.5962  -22.5503 H   0  0  0  0  0  0  0  0  0  0  0  0
    4.8886    7.8084  -21.9397 H   0  0  0  0  0  0  0  0  0  0  0  0
    7.0635   10.6188  -23.0725 H   0  0  0  0  0  0  0  0  0  0  0  0
    7.7695   10.9947  -21.4641 H   0  0  0  0  0  0  0  0  0  0  0  0
    8.2358    9.4853  -22.3191 H   0  0  0  0  0  0  0  0  0  0  0  0
    4.8170   10.9060  -22.1856 H   0  0  0  0  0  0  0  0  0  0  0  0
    4.2251    9.9535  -20.7825 H   0  0  0  0  0  0  0  0  0  0  0  0
    5.4380   11.2554  -20.5368 H   0  0  0  0  0  0  0  0  0  0  0  0
    4.2931    2.4803  -21.6120 H   0  0  0  0  0  0  0  0  0  0  0  0
    3.4809    1.5985  -20.2743 H   0  0  0  0  0  0  0  0  0  0  0  0
    5.3793    6.7382  -16.1704 H   0  0  0  0  0  0  0  0  0  0  0  0
    4.1724    7.8467  -16.9061 H   0  0  0  0  0  0  0  0  0  0  0  0
    7.4180   -3.4711  -20.9892 H   0  0  0  0  0  0  0  0  0  0  0  0
    7.6559   -3.0591  -22.5513 H   0  0  0  0  0  0  0  0  0  0  0  0
    3.8303    6.2493  -18.6130 H   0  0  0  0  0  0  0  0  0  0  0  0
    3.3457    5.3301  -19.8312 H   0  0  0  0  0  0  0  0  0  0  0  0
  1  2  2  0
  1  3  1  0
  2  8  1  0
  3  9  2  0
  4  5  2  0
  4 10  1  0
  5 11  1  0
  6  8  2  0
  6  9  1  0
  7 10  2  0
  7 12  1  0
  8 22  1  0
  9 23  1  0
 10 21  1  0
 11 12  2  0
 11 25  1  0
 12 30  1  0
 13 15  1  0
 13 34  1  0
 14 16  1  0
 14 34  1  0
 15 17  1  0
 15 21  1  0
 16 17  1  0
 16 26  1  0
 17 29  1  0
 18 23  1  0
 19 23  1  0
 20 23  1  0
 22 26  1  0
 24 30  1  0
 24 31  1  0
 24 32  1  0
 24 33  1  0
 27 34  2  0
 28 34  2  0
  1 35  1  0
  2 36  1  0
  3 37  1  0
  4 38  1  0
  5 39  1  0
  6 40  1  0
  7 41  1  0
 13 42  1  0
 13 43  1  0
 14 44  1  0
 14 45  1  0
 15 46  1  6
 16 47  1  6
 17 48  1  1
 18 49  1  0
 18 50  1  0
 18 51  1  0
 19 52  1  0
 19 53  1  0
 19 54  1  0
 20 55  1  0
 20 56  1  0
 20 57  1  0
 21 58  1  0
 21 59  1  0
 22 60  1  0
 22 61  1  0
 25 62  1  0
 25 63  1  0
 26 64  1  0
 29 65  1  0
M  END
>  <OMEGA_C>  (2) 
ydIFQUZmAEFH/JPBvKHrQP/18EBxKI3BZkAAQTtsCkHVrZ3BWxbIQKbKJT84MrDBKuvhQL7Z+b6x
yLHB/AK1QChpBEEJxpnBzmWeQGTnE7/I6aLBDTjAQOMn9UBXBJDBLuXUQK7HDEHVqqDBdemlQIwU
GT/U16jB7TfbQH/q0r8Fl6vBVDC6QE5n178B3qPBrku5QMU54z+RKZTBIlC1QLVjgkD7/obBS9ao
QPwILEB9YJ3Bno6lQGZYmUC4MZHBwJOMQIbTdUCvx5jB3Rq4QN0hBUFBGLPBwTjtQGwEI0GS+rDB
ShyjQGNmJ0EKwKnB3ICOQIXJ7j8wtqXBMaidQDBd4kC664jBv8HHQPX4FkGBdKvBly6UQLAvX8BD
K5vBOGT2QE4cL8Dh2KzB3piIQIRcvUDJOI7BADP8QDY2U0CtnpDBSl7eQK1i8T/LVoHBTIx4QMAU
lEB3aqHBVnK6QLzKK8DiL5zBqROLQJBPgsB0tqTBK+NjQOxqMcDjr5fBghecQMSDjsCEzZPBOJzX
QG6fLkDrzorBWHUWQUiV/UAYypHBskn0QF2X4UBnuoXBiKwMQdxgEEEM5aLBHW7OQG0Uxz/zmbTB
Zub6QGg88b63wLfBfbmTQIaUBUGnBZzBqS+DQFQAIr/lmp3BrcidQLkTqT9aDJDBkKPNQPiPez/8
iJfBkBLHQA0RmUAM8IHBe72ZQF6aa0CLhYLBYJfEQO10SEDbdaHBVnbBQAwFpkCuhZXBJQRkQGQU
WUAwQ5TBD6+uQO47DEFZy7rBNBHSQMkT80D3ZrTBy2+cQLTe+UCIhK/BlwjiQH/mKUFhlLjBuZ/4
QCXqL0GFtqvBuMUDQb/DF0GVjbLBJiWaQP9+LkEofLHBzTOHQIxBH0GZQqbBXgSuQD0WNEFaS6TB
M2GJQOy8HkBV5azBk8deQNCazD+5MaLBdyOsQEOf10DrXIHBboSFQBMY+0CjP4fB2l/tQDgnXsDj
6afBWP30QPfIQ8AAabTBSCN1QKr6x0B755TB8B9WQEyQqkBBpp7BEtUFQRP8/0DQEZTBNK3rQHon
8EB1PI3BST0AQdUmCkEDuZ3BsSvKQCiDLz9cgLDBQZjjQIAS774OyLHBuvi0QNBNBEETw5nBGMad
QPD9AL/7k6PBnj3AQFWm9EAwC5DBIdnUQHqoDEHNqaDBXdemQEYFKT/SeKnBW2TbQGmfzr+MiqvB
rUW5QGxTzr88H6TBxfO5QKWT4z/aqpTBnYW1QLSBgUDYIYfBvaqpQAwRLkB7vJ3BnLKlQPz8mEAg
QZHBmNmMQMrfdUBP7pjBmXbtQCufIkGZCbHBuy2kQDsdKEENe6nBpVO2QIadBUHu+7LBrAWQQL/v
9z8DcKbBaMCdQCnU4UCm7YjBbqLHQKQhF0GAYKvBEtaWQOiwY8CrAp3BdxD2QJIRLsC4bKzBtquI
QGfUvEBQNY7B4sD8QOCIUkCOu5DBKF/eQH2L6z9qvYHBp8R3QOCAlECIaaHBBoi3QO5CI8ClC5zB
bfKiQFtojsArm6TBmtRfQDJeQsDpjp/B9XmTQB0LhsAzbZPByO/XQDQ6LUD2FYvBpHkWQaON/EC9
6JHBcl70QCuO4EDC1oXBQKcMQZ4ZEEEL8qLBqrLRQDP+yj8g47TBc1z9QGW58b4VirfBYqmTQJuY
BUHm+JvB6IaBQDKnC79vnJ7BSl6eQA6Wpz9ksJDBL3POQLNUfz+LKJjBoEDHQJjyl0CQAILBl/mZ
QM5JaUBjsoLBiofFQPAwTEBak6HBq5nBQOTopUCaiZXBJFxlQNl+V0BIb5TBVDXiQAO8KUE+lLjB
1AX6QDVLL0GvzKvBRXoDQf74FkGEvbLBNSCbQM5pL0FnKbHBdASIQA5jIEHv4aXBMESwQI2TNEEO
DaTBJdmsQIHuDEH+oLrBJXDPQNY+80CJbLTBMGSaQH2r+0A0Tq/BbZyMQMZvJEBwlq3BJ0dgQOlB
2D8HR6PBtk+sQG8a10DgYIHBg5yFQFqL+kBHPofBd+DrQHA0XMDwf6fBE5j1QGuMQ8Cx9bPB78p0
QK90x0Bv25TBh5xUQDpqqkDLgZ7BAPIFQfi2/UArWZfB2B/uQLEs8kCgaI/B+5D9QF7VBUFmdKHB
yrbHQET/QT+bq6/BZDDhQCgwsL7fm7LBFZ2zQOtJAUG9sZvBfwKnQKQAFL96kqHBeeTBQL/+9ECQ
j5HB9S/RQNwCB0Fky6PBxEmqQCDNIj/RL6fB1p3dQIqOyL+gCK3ByjvAQKAq2b8AeKTBa/O0QKN3
5D/iTpHBy/KuQISvhEAk+ITBnLmoQEYBK0C3G5vBSVOkQCa1mkBrs4/BM6+MQIZbeUCZrpfBW1bV
QCrQ/0BpuLfBG2DRQEn+JUEzxbDBLIiQQLpCDkFkRrDBChCQQHbV6T9zjaPBLD2hQPWe5kDVU4nB
ZxvCQEmlDkGR8q7BZH2VQAzSTsDKkpnBTfP2QHhXKcAyHLDBtD2JQJv5wEDIfI3B2nn4QEVAT0Cz
aYzBHYHSQN+t+D90O3vB5yuCQG8zlUB7B6HBlSK9QBwhO8BLPp/BMgpkQOQdNcBPEp/B2ceVQAu2
K8AEmY/BsxiTQAuIksDQjZjBatbQQKSLL0ApdofBjeEWQZfg+0DlsZXB7Rr5QNQw50C5sIfBHU8K
QVBVCkFnfKfBr7nKQGnZ2D/m6LPBPo73QDDKgb7KJ7nBw7SRQPskAkFAT53B0+6QQDCLKL+y9JrB
O5yXQO63rz8uvI3B4JjJQCf/dT+9BJTB4nW/QNFzm0DWWn/BzTKRQDeqc0CQIIHBU1LGQAkpQ0D2
yp7B6HXCQBQhpUCibZPBisheQGVXYUDH1ZPBJ5XKQJpbBUHUpL/Bn3r4QPGOAEEuVbfBI5TKQNu3
3kCpZbbBhbzGQOWBK0FVsbjBZ7TDQEpoMEHAjarBkYP0QMKdJkGhWrDB/P6HQOPYE0GoV7jBbsKE
QLWo+0B5JK/Bz9WBQNXUGEFHRqrBxdWIQNVuHUDChKrBmQJkQFLEuz+2/Z/B+sSxQPi93UDO4YHB
K8GKQD92AEHKtofBlabwQG2PW8BSaKvBjJHwQOSKOMA2t7fBrp11QM6LyUBiTJTB1UViQHYUrUBz
CJ/BSAoGQayv/UACPpfBZUHuQOIM8kBkU4/BztX9QCXcBUEbWaHBYe/GQHbkQD+wv6/BalbgQInD
sr5rt7LBxNazQOFLAUFtoJvBdUGlQOPlGL/x36HB+QrCQFPh9EBAf5HB1nnRQFEOB0HetKPB2wup
QPAkID8AXqfBrivdQFySyL83D63BCF7AQHkm2L9IXaTBiKK0QCE24z/TcZHBFdiuQJ1ahECeBYXB
JEWoQHyNKkDxNpvBjUmkQJOImkA9vI/BxYSMQKpAeUCpu5fBAsHVQAsDAEEvorfBUNXRQIEUJkEL
qbDB2O2QQFdiDkFbNbDBOTKPQJNN6T+0pKPB/VahQFNq5kBoSYnBDH7CQJm8DkH8267BNXyzQDEn
M8APPJPBvCX3QFDIKMCA/6/BGEqJQHfdwEDifI3By0z4QFRrTkD+eIzBMzLSQBi49j8QbnvBSx6C
QCBMlUBvD6HBVSPAQN/TN8BjeZ7BykbEQGWD2r+pNY7BFc/CQH69ecCqM47BgBaIQMNKM8A2TZLB
U5vQQGS3LkCyjIfBJvgWQRvc+0BBkpXB1y35QCP85kAOnIfBjXcKQZpgCkFhXafBVVrKQDQD2T91
47PBh1P2QLJ8hr6aWLnBffGRQIwsAkEqQZ3BNGKNQCZlNL/Dr5vBileXQNUJrj8n343BDE7JQCMc
dD/gMJTB5Wy/QMwBm0AdbX/B9w+RQGcWc0AKMIHB1NHFQNprQkCZ857BRnHCQNDopEDqdZPBNFRe
QKl+YUDs45PBoRLLQBx+BUHkjr/B5eT4QDikAEGMOrfBEvLKQCHv3kDVU7bBI0LHQGGfK0FIlbjB
iibEQHd8MEEpcarBf/j0QNetJkHXOrDBLXaIQMAAFEFYRrjBqRyFQF/p+0BTGK/B7DaCQFXxGEGS
NKrB5N2HQD5dHUC3larB9V5iQCbUuz8hB6DBSdWxQHFk3UDV2IHBquOKQN1cAEHBpofBlBDxQGLX
WsBLQKvBXCnxQIu9OMB3mbfBcst1QDOSyUAiS5TBe4liQMdHrUA3C5/BqA4GQenk/UBLJJfBSiLu
QKlP8kB2QY/BRxD+QHT5BUFnQ6HBVuzGQAlPQD9Ab6/BY5PgQICJrr5nh7LB9vWzQAh2AUFon5vB
DSmmQG6UH78jhaHBPPbBQHoz9UATepHBnb/RQLAyB0GOq6PBVkypQISmGz8c/qbBfYjdQAL2yL87
CK3BXdXAQKYM2r8iVKTBv1K0QGf74z+dLpHBApSuQPLthEDp8oTB0BCoQNwqKkAeBZvB3RqkQE/V
mkCUtI/B9mOMQMtpeUAdq5fBrVbWQHwoAEFdmLfBBmDSQMI5JkETnrDBu2uRQPePDkFMPbDBEvuO
QEcR5j9kTKPBfRKhQNfN5kBtTonBd/bCQHTjDkGW1q7BwVHZQP3EQcClgJXBXtX2QAsbKcCkQbDB
tBiJQFg6wUD1ho3BCwP4QDX6TkATWIzBXuLRQCfe+T91/nrBYkWCQPcYlUAzEKHBFWq9QBVEOcAb
xZ7B8jjSQEBUAsBaPY7BAp8BQZn5QMANdJjB3cfQQMcOh8BjxJDBiVHQQMKvL0A7YYfBefgWQbEC
/EBmb5XB9uf4QCw+50DKhofBq6MKQXx6CkElQafBz+7JQPRV2T8NhrPB/qL2QFLgcr6uILnBvhiS
QP5bAkHLSZ3B3yePQNTnPL9DI5vBvPyWQM26rz8MlI3B4+zIQB1LdD+D25PBxSO/QE+3m0APWH/B
2sKQQCZ/dEDvG4HBzqHFQNVtQUDezp7BC0rCQHQcpUDUbpPBbNFdQP0sYkA+1pPBocvLQM+lBUGj
h7/BH3n5QF/FAEGnJ7fBaHrLQE0830BQTbbBNfLHQKDHK0HijLjBrZrEQN6hMEFeaarBgYH1QAHP
JkEwJrDB1xmJQOIvFEF6ULjB5IyFQLpH/ECkI6/BuaCCQK0gGUFcQKrBlQiHQOv4GkB/RKrBS55i
QHVmtz+xkZ/BV2WxQJDS3UAT14HBo5iKQBmRAEF/tofBfeTwQHeoW8CflKvBoRPwQALoN8Ci2rfB
4M51QGXiyUDpXJTBlPZiQAE4rUCkHp/B

>  <OMEGA_E>  (2) 
QPOnPmBNsT4MpwQ/9MoLP560Gz8=

>  <OMEGA_NBR>  (2) 
     23276

$$$$
50217003
     RDKit          3D

 71 73  0  0  1  0  0  0  0  0999 V2000
    8.1348    8.2388  -18.1918 C   0  0  0  0  0  0  0  0  0  0  0  0
    7.0908    7.7451  -17.3914 C   0  0  0  0  0  0  0  0  0  0  0  0
    7.8619    8.7631  -19.4694 C   0  0  0  0  0  0  0  0  0  0  0  0
    6.2781    0.6687  -21.3445 C   0  0  0  0  0  0  0  0  0  0  0  0
    7.1030   -0.4168  -21.6885 C   0  0  0  0  0  0  0  0  0  0  0  0
    5.4902    8.2928  -19.1501 C   0  0  0  0  0  0  0  0  0  0  0  0
    4.8682   -0.8225  -20.0202 C   0  0  0  0  0  0  0  0  0  0  0  0
    5.7649    7.7781  -17.8661 C   0  0  0  0  0  0  0  0  0  0  0  0
    6.5315    8.8038  -19.9650 C   0  0  0  0  0  0  0  0  0  0  0  0
    5.1587    0.4693  -20.5093 C   0  0  0  0  0  0  0  0  0  0  0  0
    6.8165   -1.7060  -21.1988 C   0  0  0  0  0  0  0  0  0  0  0  0
    5.7011   -1.9167  -20.3559 C   0  0  0  0  0  0  0  0  0  0  0  0
    5.6051    1.8251  -17.9092 C   0  0  0  0  0  0  0  0  0  0  0  0
    5.5289    4.3219  -16.5604 C   0  0  0  0  0  0  0  0  0  0  0  0
    5.1005    2.6054  -19.1511 C   0  0  2  0  0  0  0  0  0  0  0  0
    4.9815    4.8800  -17.8948 C   0  0  1  0  0  0  0  0  0  0  0  0
    4.2063    3.8086  -18.7141 C   0  0  1  0  0  0  0  0  0  0  0  0
    7.6634   -3.5349  -17.9450 C   0  0  0  0  0  0  0  0  0  0  0  0
    7.4222   10.0065  -22.0739 C   0  0  0  0  0  0  0  0  0  0  0  0
    5.1022   10.4516  -21.2529 C   0  0  0  0  0  0  0  0  0  0  0  0
    5.6836    8.2082  -22.2666 C   0  0  0  0  0  0  0  0  0  0  0  0
    4.3072    1.6520  -20.0866 C   0  0  0  0  0  0  0  0  0  0  0  0
    4.6401    7.2213  -17.0157 C   0  0  0  0  0  0  0  0  0  0  0  0
    6.2746   -4.2031  -17.8429 C   0  0  0  0  0  0  0  0  0  0  0  0
    5.1610   -3.3602  -18.5013 C   0  0  0  0  0  0  0  0  0  0  0  0
    6.1983    9.3601  -21.3687 C   0  0  0  0  0  0  0  0  0  0  0  0
    7.6495   -2.7641  -21.5416 N   0  0  0  0  0  0  0  0  0  0  0  0
    4.0418    6.0111  -17.6368 N   0  0  0  0  0  0  0  0  0  0  0  0
    7.7122    3.3930  -17.7203 O   0  0  0  0  0  0  0  0  0  0  0  0
    6.8397    2.2368  -15.6194 O   0  0  0  0  0  0  0  0  0  0  0  0
    3.6812    4.4568  -19.8755 O   0  0  0  0  0  0  0  0  0  0  0  0
    5.4161   -3.2021  -19.9231 O   0  0  0  0  0  0  0  0  0  0  0  0
    6.5909    2.9192  -16.8953 S   0  0  0  0  0  0  0  0  0  0  0  0
    9.1505    8.2160  -17.8254 H   0  0  0  0  0  0  0  0  0  0  0  0
    7.3047    7.3406  -16.4131 H   0  0  0  0  0  0  0  0  0  0  0  0
    8.6715    9.1376  -20.0783 H   0  0  0  0  0  0  0  0  0  0  0  0
    6.5018    1.6563  -21.7200 H   0  0  0  0  0  0  0  0  0  0  0  0
    7.9581   -0.2617  -22.3297 H   0  0  0  0  0  0  0  0  0  0  0  0
    4.4745    8.2976  -19.5169 H   0  0  0  0  0  0  0  0  0  0  0  0
    4.0069   -0.9767  -19.3872 H   0  0  0  0  0  0  0  0  0  0  0  0
    4.7451    1.4595  -17.3289 H   0  0  0  0  0  0  0  0  0  0  0  0
    6.2178    0.9713  -18.2340 H   0  0  0  0  0  0  0  0  0  0  0  0
    6.1052    5.1039  -16.0441 H   0  0  0  0  0  0  0  0  0  0  0  0
    4.6902    4.0039  -15.9237 H   0  0  0  0  0  0  0  0  0  0  0  0
    5.9699    2.9957  -19.7004 H   0  0  0  0  0  0  0  0  0  0  0  0
    5.8271    5.2391  -18.4997 H   0  0  0  0  0  0  0  0  0  0  0  0
    3.3851    3.4223  -18.0925 H   0  0  0  0  0  0  0  0  0  0  0  0
    8.4156   -4.1758  -17.4619 H   0  0  0  0  0  0  0  0  0  0  0  0
    7.9262   -3.3957  -19.0040 H   0  0  0  0  0  0  0  0  0  0  0  0
    7.6375   -2.5570  -17.4420 H   0  0  0  0  0  0  0  0  0  0  0  0
    7.1204   10.3810  -23.0632 H   0  0  0  0  0  0  0  0  0  0  0  0
    7.7972   10.8420  -21.4645 H   0  0  0  0  0  0  0  0  0  0  0  0
    8.2159    9.2543  -22.1931 H   0  0  0  0  0  0  0  0  0  0  0  0
    4.8682   10.8446  -22.2533 H   0  0  0  0  0  0  0  0  0  0  0  0
    4.1953   10.0148  -20.8093 H   0  0  0  0  0  0  0  0  0  0  0  0
    5.4657   11.2697  -20.6136 H   0  0  0  0  0  0  0  0  0  0  0  0
    5.4454    8.6003  -23.2664 H   0  0  0  0  0  0  0  0  0  0  0  0
    6.4610    7.4346  -22.3520 H   0  0  0  0  0  0  0  0  0  0  0  0
    4.7788    7.7710  -21.8193 H   0  0  0  0  0  0  0  0  0  0  0  0
    3.9930    2.2072  -20.9827 H   0  0  0  0  0  0  0  0  0  0  0  0
    3.4186    1.2829  -19.5536 H   0  0  0  0  0  0  0  0  0  0  0  0
    5.0376    6.9562  -16.0249 H   0  0  0  0  0  0  0  0  0  0  0  0
    3.8608    7.9896  -16.9046 H   0  0  0  0  0  0  0  0  0  0  0  0
    6.3171   -5.1824  -18.3421 H   0  0  0  0  0  0  0  0  0  0  0  0
    6.0284   -4.3437  -16.7801 H   0  0  0  0  0  0  0  0  0  0  0  0
    4.1939   -3.8651  -18.3610 H   0  0  0  0  0  0  0  0  0  0  0  0
    5.1292   -2.3683  -18.0267 H   0  0  0  0  0  0  0  0  0  0  0  0
    7.3129   -3.6050  -21.1178 H   0  0  0  0  0  0  0  0  0  0  0  0
    7.6585   -2.8726  -22.5357 H   0  0  0  0  0  0  0  0  0  0  0  0
    3.6404    6.2821  -18.5118 H   0  0  0  0  0  0  0  0  0  0  0  0
    3.1369    5.1891  -19.6111 H   0  0  0  0  0  0  0  0  0  0  0  0
  1  2  2  0
  1  3  1  0
  2  8  1  0
  3  9  2  0
  4  5  2  0
  4 10  1  0
  5 11  1  0
  6  8  2  0
  6  9  1  0
  7 10  2  0
  7 12  1  0
  8 23  1  0
  9 26  1  0
 10 22  1  0
 11 12  2  0
 11 27  1  0
 12 32  1  0
 13 15  1  0
 13 33  1  0
 14 16  1  0
 14 33  1  0
 15 17  1  0
 15 22  1  0
 16 17  1  0
 16 28  1  0
 17 31  1  0
 18 24  1  0
 19 26  1  0
 20 26  1  0
 21 26  1  0
 23 28  1  0
 24 25  1  0
 25 32  1  0
 29 33  2  0
 30 33  2  0
  1 34  1  0
  2 35  1  0
  3 36  1  0
  4 37  1  0
  5 38  1  0
  6 39  1  0
  7 40  1  0
 13 41  1  0
 13 42  1  0
 14 43  1  0
 14 44  1  0
 15 45  1  6
 16 46  1  6
 17 47  1  1
 18 48  1  0
 18 49  1  0
 18 50  1  0
 19 51  1  0
 19 52  1  0
 19 53  1  0
 20 54  1  0
 20 55  1  0
 20 56  1  0
 21 57  1  0
 21 58  1  0
 21 59  1  0
 22 60  1  0
 22 61  1  0
 23 62  1  0
 23 63  1  0
 24 64  1  0
 24 65  1  0
 25 66  1  0
 25 67  1  0
 27 68  1  0
 27 69  1  0
 28 70  1  0
 31 71  1  0
M  END
>  <OMEGA_C>  (3) 
ESgCQUDSA0HiiJHB7OfiQLjX90CTIYvB5pT7QH01DEFpwZvBUObIQOYwKz9ywarB00vjQBlo1b4U
gq3BDLCvQDGvBEFvM5nBpMibQOmQUr9xKaDBuHm4QE/m+EDZ7Y7BOQLRQGbcDEFbuJ/ByxOlQExF
8D4LE6TBjiDaQG5f2r8Tl6nBUm+2QFJX9b/P2KLByVyzQBWc6T//RY/B4uywQEtNikCfe4TBATej
QM6+JkB/NZnBIGifQEcpnECMKI/B0ZmGQKLAc0CItpXBQzr1QAY8YsBhj4/BR4LtQKcaIEFWl7DB
aUWjQOM5J0H3BarB89+1QM1UA0EWIrLB0tSJQNR00z9ZsaDB9nuUQJoU50ArIIjBlMnIQMl/hsBM
vo7BCCelQCANV8C9ApTBP1jGQBfDFUEd86rBBcn0QKLnMMBLVazBBVaBQENbwEA2GI3BN8r2QGYn
WUBBw43Bxd7aQBknD0A/6XnBkJhrQLudjkD0AJ/Bh1CtQMjuTMB9Yp/B4ujSQM7TOkB7KYfBWWgS
Qel0A0GBmo7BPMDpQGnm6kAHToPBd74KQcMzEkFOoKDBZg7QQH4C1D99wq3BFan+QJEBhr4xo7LB
vC6PQAfDBEGuIpzBaDiAQFkLer8RGZvByteXQHnQuj+AoYrBm/jGQJykeD8/35HBi13DQNpSo0BU
WoDBHBaWQJEfgEBZx37BzQm/QMG4P0Bomp3B7He6QJmmp0Bm/5PBg6VYQGYHW0BovZDBS6YGQQag
hcDosYvBM6P9QAFTWcBHCJjBIGb0QLalI8BEiYvBWNrjQGoYJkFxgbjBAIP5QK54LUFdt6vBV3QD
QdARFEGOi7HBVcibQHKDLUHOBrLBR0CGQK88IEGCeabBvuauQIdQNEGg6KTBz0CuQOSaCUGYIbrB
HsDOQG7o7UDN0LLBnOuYQAms+EDeja7B1o1/QA1CDUCq3KfBG8paQJ80pD/abZzBEzShQN6Y3kD2
MoDBgBd3QKGq/0CSPIfB+yXKQCjWpcCbvJLB6ejAQIP/isCZPYbBFTSGQBVdd8BD45LBHCKkQOaS
F8DANpDB+wLqQMW3ZsA68ajBtxL1QOjXN8AjSbTBCf1oQMcGyUAeGJTBv8JIQC0NpkCD45zBMpUC
QdOhA0H5xpHB9ATkQJbH90BrPIvBH/v7QJzZC0FDApzBW/rHQCR9Lj9sw6rBtdHiQNbryb6TeK3B
+TKwQAxyBEFIMZnBNimbQK8EU795OKDBaW25QDSu+EDy7I7BxjLRQEOQDEE605/BKSWkQOYS8T79
G6TBJAzaQKPP17//jKnBtju2QC539L9d36LB5JSyQNQ/6D/MR4/BYdOwQNfiiUCkfITBj4CiQD5W
JkBsNJnBV3qfQBoAnEC2JY/BukiGQHv1c0BotZXB4MP0QArDYcBwp4/BJPa2QHycAkFsP7LBVXns
QCxlIEHforDBeqGhQF0dJkFoJKrB+9SIQEIG0z/7p6DBEqmVQMz25kAKCIjB/E7IQKAmhsCat47B
FaWkQAFIV8AhHZTB6ADGQMNOFUFVDKvB/Tb1QGjxLsBZPKzBwuaBQOOKwEC1BY3BIGL2QId0V0Am
yo3Bz0DaQNLVDUAA83nBUHFrQL7ojkDz/57B7WitQKbHTMCgdJ/Btm3SQK+aOUBGLofBIecSQXpG
A0F28Y7BAjHrQIk060D2Y4PBNdgKQWKpEUGs/6DBzcvOQBjg1T/tx63B0Dn+QDTNa75xkbLB7ZGP
QCB4BEE/CpzBfQp/QO/ZfL+ZM5vBpQaXQKgjuj/hn4rB9frFQNnudD9l5ZHBr3PDQMW3okBhVoDB
VuSVQKu8f0Ayz37BIGK+QAjCPkDzn53BpaS6QG85p0BA/ZPBmb5XQLTLW0CkvJDBTmoGQaIUhcC6
r4vBXif9QLpKWsA8JpjBrfnzQM+CIsCVy4vBnvSuQHPCCEEpP7rBZbvQQMxl7UBH7LLB14GaQH0q
9kBBsK7B+4LiQF0/JkGOjbjBo2f3QKzyLUFYu6vBFGEDQXfXFEFHlLHBysuZQAhILEH0JbLBFhmF
QDeVHkHVn6bBqjWsQDJlM0FBAqXBefh8QNYqDUAhyqfBwiVZQMJGoz8hV5zB6byiQGob3kDDKoDB
kvp5QPa7/0CRAYfBm6TJQKDRpcBzi5LB63bAQKrticDMMIbBD9uFQIpzeMAWHZPB+fWiQFriF8CP
T5DBqLLqQE7/ZMC+2qjBvcT1QDr0NcC3L7TBQiJqQCh8yUBWAJTBPBlJQH+GpkCS4pzBP7EDQX1X
AkE53ZHBW9zlQLWe9UBVYYvBd6H+QAXuCkGqC5zBpajAQA+ALD/KSavBRNHcQLuMtr6FT67BCX+y
QORpBEEMRpnBanaaQLLwX78hlp/Bh027QBzO90C4EI/BIOrTQBMvDEG/4J/BEYifQI6K2D6d4KPB
90XYQK4s0r8m4qnBBEC3QJzG879ghaLBEGuvQGo05D9z6o7Ba7GwQL3hiUCXm4TBZO+eQNPXIkDd
5ZjBrdieQOSCm0AsRY/BuzGEQJr2ckDhgpXBehlbQK7dhsDCcJLB85vwQLHkHkFr4bDBiKynQGmg
J0GY26nBmEq2QN1yA0H+KLLBx/WDQGSdyT9F8Z/BKAmXQAHu5kAMNIjBpoGcQAzVjcCnBY/B3pq4
QJbeUcC495LB3BHJQKtpFUGcB6vBqib1QLU2KcA9kqzB81WCQP31wEDcMI3BkYL0QEFjUkBLKY7B
QDzZQLVXDUBW6XnBAEJnQAH6jUAa3J7BHpCzQBQyS8Cna57BXefQQMuKN0BoPYfBOf4TQcCJAUFv
Bo/Br7bsQKhj6ECelYPB3k4MQY2cEEGZ+6DB1WbEQDqw1D9Yp67BdPD1QCB4JL6ECLTBfNuRQDAF
BUEQGZzBL6uAQBtUir+8E5rBcBKUQP3Nuj8kBIrBbuHBQAj0Zj/7dpHBcUvEQJ2VokCpsoDBt/uV
QPb6gEDMpn7BBKe6QAqtOED4lZ3B7NS5QNCfpUDLUpTBepJTQC9yXUAXWpDBs68zQNChocAti4/B
ylZDQBd2UcAg/47BplhXQJNChcABOJvBiMnmQLwpJUFhurjB8ET+QMPuK0F2DqzBhWQEQWFMEkHK
/7HBMwOgQDkqLkHizLHB6WWKQBA/IUEyKKbBx+y0QNZiNEEqyKTBCYyuQFL5CUGwGbrBnfDNQL4L
7UDpAbPByAyZQK8r+kBmb67BGWpuQCwBCEBi3abB6ZBSQNl+lj8kLJvBDtGjQD/G3UBvVIDBqO59
QPAlAEFCMofBDTmeQM2Aj8ATPobB+zmoQFQIrMD0dpLBGYyuQP7EFcDeIo/Bm03aQL/OXsBRAZHB
GVLtQJY0X8Bqv6jBp0H0QOM2M8BFeLTBeb1rQA4vykBXMJTBArpGQKRVpkAQ05zBJpgDQUF3AkGN
55HBArDlQLrS9UAEbIvBY2v+QM0FC0EdF5zBQfvAQDcKLj9cVKvBwA/dQBqQtL4uWq7B3UyyQA9v
BEGRU5nBr72aQJeaXb8hm5/BCyG7QNDo90DyG4/BtrbTQFQ4DEG97p/BedqfQO6F3D4p6qPBIG7Y
QDak0b8I66nBE2q3QMjX8r9+iqLBraCvQBAO5D9t6o7Btp6wQITQiUCTjoTBEjufQLkCI0Bv5JjB
w+6eQLx2m0DcO4/BWmKEQALkckBMfpXBSVxdQLochcA9hZHBL7S2QNAZA0EON7LBoW/wQF3cHkG7
87DBtC2nQK1VJ0G1FarBSlGEQMaTyj8C/Z/BPO2WQDf25kDhO4jBHS2eQPpmjcAO2I7BFRa6QMWN
UcBAB5PBa/LIQKlDFUHiIKvBmh31QH8rKcBypazB0VaCQBvhwEB/MI3B67L0QGFWUkB0A47B6/bY
QEgEDUCnv3nBhpRnQMz4jUCB1Z7B6XKzQDSgSsCCbZ7BiebQQJ1jN0A5KYfBy+QTQRe0AUGPD4/B
1I7sQB+h6ECMn4PBSzIMQdi5EEF4BqHBm8jEQHZs1T8msq7Bfi/2QKOnIr4zFLTBBKqRQL0ABUGY
J5zBcPuAQHLPiL9zFJrBpDqUQAwBuj9jDorBfDbCQCRuZz/QeZHBSyfEQPqDokAKoIDBYdSVQKXl
gEC5mn7B1vy6QHkNOUDZjJ3Bzfy5QCqXpUAVQ5TBpPpTQHIoXUADWJDBNyU2QIGrn8BPd47B+bBI
QHcHTsBTwo3BO4hVQG27gsDhPprBhf+uQHh3CUGcMLrBdKPOQAOT7EBe+7LB64OZQAVI+UB+ga7B
nKzmQE79JEEB1bjBdr39QJcFLEEDJqzB028EQRxeEkGp/7HBRZ+fQJe3LUGzELLBPuuJQBbfIEF+
aabBygq0QG47NEGsCKXBhnhvQPm0CECb6abBJgtTQBN/lz8oQpvBlcGjQDfu3UA9W4DBP4t9QLUg
AEFbPYfB0PGhQI7Wj8CiHYbBcF2oQD+Oq8AxmpLBMeewQLdKFcDAGY/B+fjbQPE6X8C7XpHB70Ht
QOMaX8BX0KjB5wf0QLMlM8A3i7TBv7prQKz5yUBiMpTBw+dGQM1EpkD+yZzBi1ICQfquAkFSOpLB
WIzjQGSh9kD/kovB9GH7QPduCkFNi5zBgHrOQAwkSz/wxKrBc5foQKpppL6v/6zBEpyvQH0pA0Hj
nJnBIxSaQLKbKb/OPKLBVey4QMZS90DkOo/BWpTQQPP2CkH/WqDBTHunQOZaHj9rN6XBCYTbQDjB
zb+/wqnBF4yzQBbQ4r+joqTBG+a0QNXV5z8t1I/BwrOxQGPRiEBIX4TB5iOlQAMaKkAdgJnBBQmg
QK9Ym0B59Y7Bx12HQJ0ec0DgkJXBifm6QMvznMDVBIjBrb3rQEs7HkFLWLHBtMOgQKXwI0Gt9arB
h6e2QPUxAEEwsrLBrvGMQIzo5T8kzKHBS16VQDpQ5kD/KIjBNOSgQNS4jsCrvpHBKwm2QDEcTsCY
VpbBUF7FQGk4E0FzrKvBCnv2QFqOLMDYWqvBceCBQIFCv0ByzozBzEv4QLDMV0DRhY3BXAzbQFgh
CkA+RXrBoktpQP7HjkAvkJ7B2JamQEAMP8Bw7KDBuNrTQOUIOED1OYfB8agSQZdmAkG6ao/Btcjq
QJvH6kCGqYPBKIcKQcMGEEFxm6HBX0DYQGzV4z/VTK3B4EUDQWZOQr6ULbHBn/uOQJj1AkHTdZzB
siF4QE53S78dFp7Bkz+ZQES1tD9Ra4vBC9jIQJ2Cej92sZLB2iHEQKedoUDoJ4DBm+uWQN2QfEBG
nH7BTCvBQJbrRkB9a53BLgu7QLslp0ASxZPBzndcQJEhV0CAfpDBmF+sQLC8ucDqgYTB7O/bQN40
pMB+hIrBkGG7QKojg8BsCYLBSsjhQDu7I0EqU7nBJGn2QFYELEF7kazBzRoDQTS+EkG7J7LBeO2Y
QCHBKUH9B7PBDEyEQDN1HEH6YafB+h2rQAZ2MUG79KXBzaSuQA4ABkEzwrrB8JfQQM+x6EArPbPB
uESaQNdr8UB/FK/BZJSFQFBvGkDQ2KjBOvFdQM1ttz9dNp7BoZqiQOWT3kAUPYDBORl5QLkL/0BF
UYfBJXegQCpVqMDox5fBkdF/QPZDh8DXTI/Br3yuQJefFsD3QpHBFOjYQNKHV8DPkpbBwWHoQFiu
YcDBnqjBQIT8QK4EM8BsK7PBTRhoQL1ex0DiupPBJOREQMYapUAAIpzB

>  <OMEGA_E>  (3) 
0BCWPqi8lT4Iyp8+tBmhPkDSsz4=

>  <OMEGA_NBR>  (3) 
    133625

$$$$
50217004
     RDKit          3D

 68 70  0  0  1  0  0  0  0  0999 V2000
    8.1863    8.1934  -18.1898 C   0  0  0  0  0  0  0  0  0  0  0  0
    7.1371    7.6986  -17.3958 C   0  0  0  0  0  0  0  0  0  0  0  0
    7.9165    8.7563  -19.4518 C   0  0  0  0  0  0  0  0  0  0  0  0
    6.0844    0.6246  -21.4450 C   0  0  0  0  0  0  0  0  0  0  0  0
    6.9215   -0.4397  -21.8175 C   0  0  0  0  0  0  0  0  0  0  0  0
    5.5378    8.3262  -19.1283 C   0  0  0  0  0  0  0  0  0  0  0  0
    4.8896   -0.8542  -19.9097 C   0  0  0  0  0  0  0  0  0  0  0  0
    5.8091    7.7691  -17.8619 C   0  0  0  0  0  0  0  0  0  0  0  0
    6.5839    8.8362  -19.9372 C   0  0  0  0  0  0  0  0  0  0  0  0
    5.0580    0.4204  -20.5015 C   0  0  0  0  0  0  0  0  0  0  0  0
    6.7518   -1.7103  -21.2367 C   0  0  0  0  0  0  0  0  0  0  0  0
    5.7508   -1.9313  -20.2646 C   0  0  0  0  0  0  0  0  0  0  0  0
    5.5391    1.8011  -17.9072 C   0  0  0  0  0  0  0  0  0  0  0  0
    5.5028    4.3080  -16.5807 C   0  0  0  0  0  0  0  0  0  0  0  0
    5.0300    2.5687  -19.1540 C   0  0  2  0  0  0  0  0  0  0  0  0
    4.9654    4.8688  -17.9171 C   0  0  1  0  0  0  0  0  0  0  0  0
    4.1662    3.8023  -18.7269 C   0  0  1  0  0  0  0  0  0  0  0  0
    7.4877   10.0475  -22.0358 C   0  0  0  0  0  0  0  0  0  0  0  0
    5.1977   10.5627  -21.1680 C   0  0  0  0  0  0  0  0  0  0  0  0
    5.6779    8.3223  -22.2370 C   0  0  0  0  0  0  0  0  0  0  0  0
    4.2080    1.6001  -20.0532 C   0  0  0  0  0  0  0  0  0  0  0  0
    4.6745    7.2159  -17.0213 C   0  0  0  0  0  0  0  0  0  0  0  0
    4.9661   -3.4023  -18.4679 C   0  0  0  0  0  0  0  0  0  0  0  0
    6.2507    9.4345  -21.3237 C   0  0  0  0  0  0  0  0  0  0  0  0
    3.5623   -3.9649  -18.7548 C   0  0  0  0  0  0  0  0  0  0  0  0
    7.6046   -2.7443  -21.6063 N   0  0  0  0  0  0  0  0  0  0  0  0
    4.0532    6.0240  -17.6609 N   0  0  0  0  0  0  0  0  0  0  0  0
    7.6644    3.3450  -17.7471 O   0  0  0  0  0  0  0  0  0  0  0  0
    6.7906    2.2167  -15.6308 O   0  0  0  0  0  0  0  0  0  0  0  0
    3.6550    4.4505  -19.8938 O   0  0  0  0  0  0  0  0  0  0  0  0
    5.6954   -3.2083  -19.7048 O   0  0  0  0  0  0  0  0  0  0  0  0
    2.8589   -3.1296  -19.5622 F   0  0  0  0  0  0  0  0  0  0  0  0
    2.8941   -4.1200  -17.5840 F   0  0  0  0  0  0  0  0  0  0  0  0
    3.6767   -5.1724  -19.3684 F   0  0  0  0  0  0  0  0  0  0  0  0
    6.5431    2.8914  -16.9108 S   0  0  0  0  0  0  0  0  0  0  0  0
    9.2034    8.1415  -17.8303 H   0  0  0  0  0  0  0  0  0  0  0  0
    7.3485    7.2650  -16.4296 H   0  0  0  0  0  0  0  0  0  0  0  0
    8.7296    9.1305  -20.0560 H   0  0  0  0  0  0  0  0  0  0  0  0
    6.2277    1.6016  -21.8826 H   0  0  0  0  0  0  0  0  0  0  0  0
    7.6977   -0.2827  -22.5518 H   0  0  0  0  0  0  0  0  0  0  0  0
    4.5197    8.3649  -19.4866 H   0  0  0  0  0  0  0  0  0  0  0  0
    4.1040   -1.0107  -19.1853 H   0  0  0  0  0  0  0  0  0  0  0  0
    4.6805    1.4500  -17.3161 H   0  0  0  0  0  0  0  0  0  0  0  0
    6.1411    0.9380  -18.2276 H   0  0  0  0  0  0  0  0  0  0  0  0
    6.0898    5.0831  -16.0663 H   0  0  0  0  0  0  0  0  0  0  0  0
    4.6591    4.0040  -15.9438 H   0  0  0  0  0  0  0  0  0  0  0  0
    5.8976    2.9296  -19.7260 H   0  0  0  0  0  0  0  0  0  0  0  0
    5.8172    5.2047  -18.5268 H   0  0  0  0  0  0  0  0  0  0  0  0
    3.3365    3.4422  -18.1007 H   0  0  0  0  0  0  0  0  0  0  0  0
    7.1852   10.4541  -23.0121 H   0  0  0  0  0  0  0  0  0  0  0  0
    7.9048   10.8547  -21.4159 H   0  0  0  0  0  0  0  0  0  0  0  0
    8.2493    9.2677  -22.1836 H   0  0  0  0  0  0  0  0  0  0  0  0
    4.9636   10.9855  -22.1561 H   0  0  0  0  0  0  0  0  0  0  0  0
    4.2819   10.1500  -20.7196 H   0  0  0  0  0  0  0  0  0  0  0  0
    5.6006   11.3529  -20.5173 H   0  0  0  0  0  0  0  0  0  0  0  0
    5.4397    8.7444  -23.2244 H   0  0  0  0  0  0  0  0  0  0  0  0
    6.4234    7.5215  -22.3508 H   0  0  0  0  0  0  0  0  0  0  0  0
    4.7639    7.9107  -21.7841 H   0  0  0  0  0  0  0  0  0  0  0  0
    3.8534    2.1459  -20.9399 H   0  0  0  0  0  0  0  0  0  0  0  0
    3.3446    1.2257  -19.4835 H   0  0  0  0  0  0  0  0  0  0  0  0
    5.0676    6.9283  -16.0350 H   0  0  0  0  0  0  0  0  0  0  0  0
    3.9083    7.9954  -16.8975 H   0  0  0  0  0  0  0  0  0  0  0  0
    4.8706   -2.4374  -17.9484 H   0  0  0  0  0  0  0  0  0  0  0  0
    5.5164   -4.1094  -17.8298 H   0  0  0  0  0  0  0  0  0  0  0  0
    7.3561   -3.5757  -21.1094 H   0  0  0  0  0  0  0  0  0  0  0  0
    7.5243   -2.9072  -22.5896 H   0  0  0  0  0  0  0  0  0  0  0  0
    3.6704    6.3123  -18.5386 H   0  0  0  0  0  0  0  0  0  0  0  0
    3.1304    5.1995  -19.6364 H   0  0  0  0  0  0  0  0  0  0  0  0
  1  2  2  0
  1  3  1  0
  2  8  1  0
  3  9  2  0
  4  5  2  0
  4 10  1  0
  5 11  1  0
  6  8  2  0
  6  9  1  0
  7 10  2  0
  7 12  1  0
  8 22  1  0
  9 24  1  0
 10 21  1  0
 11 12  2  0
 11 26  1  0
 12 31  1  0
 13 15  1  0
 13 35  1  0
 14 16  1  0
 14 35  1  0
 15 17  1  0
 15 21  1  0
 16 17  1  0
 16 27  1  0
 17 30  1  0
 18 24  1  0
 19 24  1  0
 20 24  1  0
 22 27  1  0
 23 25  1  0
 23 31  1  0
 25 32  1  0
 25 33  1  0
 25 34  1  0
 28 35  2  0
 29 35  2  0
  1 36  1  0
  2 37  1  0
  3 38  1  0
  4 39  1  0
  5 40  1  0
  6 41  1  0
  7 42  1  0
 13 43  1  0
 13 44  1  0
 14 45  1  0
 14 46  1  0
 15 47  1  6
 16 48  1  6
 17 49  1  1
 18 50  1  0
 18 51  1  0
 18 52  1  0
 19 53  1  0
 19 54  1  0
 19 55  1  0
 20 56  1  0
 20 57  1  0
 20 58  1  0
 21 59  1  0
 21 60  1  0
 22 61  1  0
 22 62  1  0
 23 63  1  0
 23 64  1  0
 26 65  1  0
 26 66  1  0
 27 67  1  0
 30 68  1  0
M  END
>  <OMEGA_C>  (4) 
9PoCQQMYA0GwhJHB3WLkQCpb9kCWKovBkFP9QKUZDEFVnZvBy7PCQCfnHz9qj6vBlnzdQJ8i4b4q
iq7BqjWxQDU4BUGzBpnBqXecQMmrWr8WR5/B4OO5QJic+EAz5Y7BU6/SQOdgDUFvf5/B7dqhQI86
1z4eA6TBxA7YQEfs2r/c5KnBcAa4QAI197/uHaLBl0CxQJiK5j/jQY/BSBewQA3biUAzpYTBKfag
QONkJEBtO5nBLOSeQIbNm0BRVo/BPFGFQHhYc0Cz0JXBEJvvQIzCIEFhSbDBllOmQNsAKUH/V6nB
uLG1QD0oBUFP5bHBk6eGQOzOzD/bbKDBeZWVQOjo5kCTK4jBOuqeQOG+WcAxvpPB3AXIQMjzFkEK
l6rBNPxjQOnAfcDLCZbBEVnzQCmiL8Cb2azBorOBQLvEwECOSY3BdkL1QNMTVkD++Y3BcEzZQCbe
DUCaF3rB+utpQChqjkCXJp/BoUC2QPVUTcCBo53B9vg2QBBLSMB3f5zBLDk5QKrWg8AUrIzBzE5r
QKeEpcBs8prB4WDRQLEMOUBpSYfBAUETQYJDAkGEpI7BHCfrQJB66EC6b4PBoawLQZMWEkG5cqDB
tUnHQPj/zD+FD6/BkVP2QE26kL7+abTBZqGQQLfWBUF+5JvBOFSDQARdgb94e5nBRcaVQAeauT9Q
h4rBJITEQJ0icD810pHB3N/CQB6pokDBh4DBOxeVQHMggECoGX/B/bi8QBN+O0DJzp3BKia6QJCM
pkDYNpTBs4lVQJ1NXEBTzpDBj+3lQAdEJ0HiGLjBQvT8QAytLUG3U6vBUP0DQZpIFEHqd7HBx9We
QIbEL0G/P7HBuwWJQGRmIkGrwaXBPTizQFilNUGEI6TBJRKuQEDpC0Gcy7nBYozNQPyv8ECIzrLB
z3GYQMck/UDLRa7B2J12QK5VCUD/hKfB5w1WQBzknD9D3pvB1ymiQD203UC4R4DBTCF6QGTa/0AA
LofBytubQCj+G8BHlo/Bl4awQNd/g8Bfo47Bz2TrQK7YZMD536jB28bwQAoPOsCKt7TBfehqQIT+
yUAgT5TBz1hIQCRipkBwF53B6fgBQWFyBEEyZpHBtcDiQMmO+ECRAYvBufr6QHPbDEGhmpvBq3jJ
QDIwKT/9uKrB+OTjQMPG277EW63B7UivQLLdBEEZC5nBjiabQNU8U7+JbqDBKE24QC0o+UD6y47B
DmLQQEZGDUHrjp/ByjmlQPZW7z6dLKTBBzDaQIft27/Tf6nBa5e1QK+A9r/tD6PByBq0QIHC6T8U
Z4/BD3GxQCVAikAElITBOa2jQLHPJkClUJnBZsKfQAornEDqOY/BcgSHQMirc0CWyJXBy4u1QHef
A0Ha+7HBJErsQHDRIEE4abDBD9ihQE1SJ0Hr0anBCCuKQNa70z8iyqDBU4GUQPvL5kBHBYjBEAej
QPeZWcC7kJTBNHXFQM0kFkEQx6rBSz3KQEjMgMA9AI/Bzzj1QOjNMcAM9KvBNI2BQAsvwEDfGI3B
AlD3QA8GWkDz7I3B69HbQL+aD0CpNHrBPBhsQBqUjkAYDp/B4AurQNWiTcDe6J/B/yTvQFoaWcBP
1ZHBZi3NQMbQqsDurZHB9vPEQNbFesCxQ4TBLZvTQD4wO0B5TYfBtzoSQVtFBEHQeI7BCcjpQBaP
60AfMoPBQlwKQdQLE0Hbd6DBN/DQQHjL0j/rtq3B0a7/QBxjjr7YWbLBWcKOQG3OBEG39pvB6jJ+
QF/Peb/xh5vBdbeYQPVCuj9KvYrBctHHQGnpeT/pB5LBmsnDQO5Oo0CDb4DBO7CWQFa/f0CD9n7B
iWG/QAf3P0CGvZ3BFba6QO/Xp0BzE5TBJKRZQCi9WkDPzJDBqL2tQDjgCUGS+bnBlcrOQNTf7kD7
rbLBps2YQNvJ+EAEaq7B5W/iQFjEJkF+UbjBTuD3QMtBLkG8havBLggDQS79FEEzYbHBoCSaQHyZ
LUH/z7HB8w2FQBAVIEGCR6bB7BGtQLN3NEGZr6TBiCeAQF5sDUDU9afB12dbQLb6pD87hJzB412h
QKAD3kD7IIDB+9d2QN8t/0BoCofBQ1GHQKodgsADipPBJBicQIcoG8C645DByuvpQBh/Z8ACpKjB
p7f2QGD/OMDR5LPBrYVpQMsTyUDLFZTBlDVJQCL3pUBl65zBWAcCQbJuBEEtapHBdeTiQO+W+EAm
AIvBPwn7QGvQDEF9n5vB98jJQECcKT8UwarBTyfkQEQ23L5zXK3ByVqvQBvZBEEnBpnBIAubQJj2
Ub94jKDBx2u4QE8l+UDgx47BT2bQQFVCDUEhjZ/Bs1+lQGGe8T55QaTBo0HaQKjl27/VganBCHC1
QBIU9r/8JKPBZBy0QHOJ6T8+c4/B7l+xQJYZikAzlITBocqjQKTtJkC/W5nB3cqfQP0enEAtOo/B
5xaHQDavc0Bs0JXBbMm1QHqWA0HN/rHBQgzsQH8AIUGoXLDBm2+hQIwmJ0ELy6nBIWCKQN6C1D+r
4qDBjaKUQL6+5kCcAYjBNKOiQEtZWcCbqpTBBF3FQC8iFkHCwqrBxWTJQNAAgsCNOo/BSGr1QNvV
McCx2avBI6GBQOIswEAxGY3BH0f3QHj+WUBM7o3Br8vbQIY8D0AWQ3rBDk1sQDukjkCdFJ/BcKuq
QLxLTcAiAqDB6wLNQEoMq8DMrpLBewjDQCjtgcD4fYTBslLuQNdHWcAUdZHB8ZLTQOP4OkAbUofB
lksSQTVBBEExgI7B9vTpQFOs60AIL4PB4WAKQTP1EkEggqDB52rRQBbz0j+vuq3BvwQAQd5AkL5m
U7LBgdCOQPjGBEEs75vBkql9QLsIeL/Fs5vBNq2YQL75uT92zorBiNPHQF2DeT/UFJLB7qzDQLId
o0B/aIDBB5SWQMxQf0BxAn/B2oy/QE05QEDov53Bac26QFDLp0CfDpTBiMFZQLKgWkBi2JDB7Oet
QAraCUHI+rnBiTzPQM4F70C4s7LBHieZQNFw+EAoca7BfSbiQIPzJkEDRLjB4F73QJh2LkE/c6vB
xgMDQcVJFUG8VbHB56iZQIZuLUHNx7HBosKEQGnEH0HqRKbBq2esQGNSNEH4o6TBlJOAQHoADkBW
D6jBNI9bQGjzpT+oqJzBToWhQKDj3UBBH4DBBSR3QHwi/0D/AYfB0lGGQBMsgcDmopPBVL2cQDq8
GsBx7JDBl/HpQBt1Z8CCjqjBqFL3QOEyOcBtyLPBhsRpQMUdyUB1FpTBGlxJQMv/pUB28JzBd8MB
QQtwBEFAa5HBt1TiQGin+ECvAovBrpL6QJLBDEG2pJvBrkXKQGxCKT8Ok6rB1JXkQHr83L5cLK3B
qeSuQPe7BEFvFZnBrZubQGt7Ub+2SKDBPuW3QNYf+UD7z47Ba/vPQKAhDUHUmp/Br+WlQGfB8T4I
EKTB9YDaQKIH3L9kXKnBQbm1QLAU9r/++KLBw6q0QM6o6j/7aI/BK32xQFNIikBpiYTBdTakQEBS
J0DZUJnBb9GfQJs0nED/L4/B3FWHQG7Bc0DWyZXBR+LrQN6iIEGvd7DBiGKhQCsgJ0EE5qnBwDm1
QIFpA0EFCLLBGdeKQGy11D93y6DB+x+UQIjG5kDwBojBH0ejQOsTX8AmA5XBwA3FQFb2FUFY1arB
K/3MQGP+fcDkcI/B+DH1QDogMsBr6avBWGCBQM4DwEA9EY3B+Jf3QDT/WkBm343BlijcQMbSD0CG
MHrB095sQHyjjkAUEZ/BkM6pQDefTcBFTKDBqEXtQOgThsC0hpbBXsLEQD88pMC2OorBYXTaQNqZ
QsATQojBs+rTQFSrO0CTRofB0wQSQf9JBEEnfY7Bs1fpQH3X60ARLoPB5igKQSnoEkGZhKDBnOfR
QHCv0j9rkK3BxkkAQRNSkb7fGbLBWWOOQOGXBEGHBJzBMGN/QCpwdr+aUpvBdEqZQKx7uj8OxYrB
yIXIQPqgfD+qC5LBganDQAFlo0ACXoDBb76WQLVrf0DL7H7BguK/QJHDQEBYup3BTsO6QAsWqEAq
ApTBBThaQHR6WkCB15DBSwviQPyOJkF8YbjBVm/3QPwXLkEhlqvBC9cCQZTQFEFYbLHB/LGZQL9e
LUH05bHB/JmEQJ/hH0F7W6bBnY+sQBVMNEEixqTB02utQNejCUEBB7rBooPOQBl+7kA9t7LBZH+Y
QKFV+EBjdq7BNx+BQC6sDUBXAqjBxGRcQNyrpj/ikJzBbfagQF0x3kCAHoDBqeJ1QNEU/0BrFofB
v7aKQPmIiMBlMJTB6TmYQGInJMB2EZHBor7pQKLSZ8D0oajByH32QFXhOMBK3LPBCu9oQLrAyEDN
DZTBC69JQGfrpUCj75zBfRsCQUd2A0HuTpHBzKfiQFQI90Ct+IrByMH7QDXbC0FaipvBLQTHQI+H
LT8OWKvBjYLhQEHHzr7bFK7BAdOvQGU8BEEKI5nBKeybQHk+S78HFKDB+1a4QIYG+EDB2I7BEVDR
QD11DEEPl5/BIe6jQEoO9z6gbaTBmaDZQAJC17/8y6nBEAC3QHoN8L/fjaLBXwOzQAzp5j/GlI/B
WlqwQMIXiUDUk4TBAueiQFlRJkC8dZnBjj6fQBB3m0BKPI/BR4KGQNxRc0Al7JXBKwG3QGUIA0HL
GrLBIUDuQMfwH0FpWLDBfaijQJDDJkGk76nBdA+JQPkN1T8Z/KDB+jSUQLwj5kCxGojBDBjUQBUV
asAgJZjBP/vGQB5sFUG/06rBrrTIQNJwgcDOuYzBT1z0QJWZLsAe1azBsiOBQC6Rv0A4JI3BFHL2
QLuCV0AJ0o3BJwraQOMRDEAXU3rBg39sQFLojkCONJ/BBVCvQDtmRcCYjZ3BwJW0QPSSQMB5yYfB
/LHtQHimisBlgIfB7ZquQKQvpMCkzozBpGDSQH+nOEB+UofBlFASQaMgA0H9UI7BlEvpQEcR6kDl
IoPBTOQKQTzlEUFIW6DBbYfNQOWG1D9Viq7B1wX8QOhIgr5JfrPBh2mPQPVEBEGkIpzBv+aAQOVN
cb8X05rBknWXQK7ntj8AAIvBg7fGQFKydD+zQJLBg6rCQCPloUC9VIDBeVOVQGVifUBUJn/BhMG+
QCklP0D42p3BzXq6QJQcp0Bb/ZPBFN1XQP+VWkD0DJHBLqOvQBphCUFyGrrBkArQQEx27UCSwrLB
7fuZQOHV90CPnq7BY9jkQKL4JUFtRbjBTuH5QGJNLUEVaavByOsDQdz+E0GHQrHB/WCcQP0bLUGj
8LHBx5mGQK6lH0GSeKbB0O+uQBbWM0Eow6TBVT5+QGW6DkCJHKjBxBZZQExapj8Iu5zB78OgQOl9
3UA5LIDBko92QOq8/kBBN4fB1CXuQDLCOsAi/5fBE63eQKa1kcArg5zBMQjrQA12ZMDhManBPczy
QBZ0NsAtw7TBNcBoQJRmyEAhI5TBztpJQLFkpkB8E53B58oCQc6ZA0EGXpHB/wzkQAhP90D0AovB
IP38QKZFDEELipvBjFrDQJ/1Iz9ZKavB63beQOJQ1b45Iq7BGPewQG4UBUHo/5jB0+ybQLO0Xb+n
WJ/BQ565QGLq+EDezY7BaWvSQHMvDUF3fp/BduahQPZZ1z6wzaPB+2XYQAmW2b8wxanBz1e3QB0z
+L8QUaLBRTixQOt65z/KF4/BiLOwQJpYikAgqITB/9qgQIlfJEArF5nBPBOfQBEQnEBzVY/BhGCF
QECmc0ChvpXBqoy1QO0pBEEczrHBR2XvQDDaH0EGfbDBgxmmQLpeKEGBoqnBfXKGQEzSyz94LqDB
xmGVQOIE50CaF4jBUiqhQK5gW8AD6JPBNdDHQPJIFkEUsKrBLVJnQJTOf8BF7pTBQO7zQLiyLsBZ
r6zBRbaBQErYwEBEPo3BPHj1QCn+VUB6Eo7B1u3ZQPcQD0CQBXrB7SlqQLpSjkDXH5/BkKCzQHAi
T8CSaJ7BS5EzQHZvSMAvP5rBLUJHQNPnhsCZ/4rBvsRpQFB4pcD1aJrBXsPRQIKvOUCNRofB3gkT
QXoNA0Glb47B7czqQAvi6UAkO4PBI34LQZ1HEkESYKDB0SbIQH7hzz+fha7BHQf4QPTneb4iyLPB
iWuQQHaDBUEE5pvBjnKCQOZmhL97qpnBesuVQBkGvD+WSorBUjnEQHEucD9zn5HBNbjDQK05o0Bl
o4DBj+KVQMjZgEC38n7BtpW8QIEAO0Dstp3BsBu6QCrrpkACRpTBC5VVQBoaXUBytpDB6vStQHSR
CkFsx7nBDG7NQNul7kCBkbLBq0qYQGhz+0DfHq7BbrflQNkEJkEJXrjB9rv8QBn7LEEpq6vBeOMD
QfFUE0EAibHBBaGeQF/OLkEHnLHBP8qIQDPoIUGq/KXB1/WyQDE6NUHPjqTBR0N1QNd4CECTQafB
e0NWQBYfmz9HipvB4PmhQB7L3UB+NIDBlH95QPXX/0CEF4fBPeCfQNqLHcAJto/B0Bu1QK8qhMDK
Uo/Bhl/rQFyBZMAq66jBO1jyQLzBN8AwmLTBg81qQPwcykAtQZTBysBIQCpqpkAYHZ3BCVwCQfLA
AkEaJJHBUL3jQA6Y9EAgx4rBqkv7QBUfDEFpG5vBb6HAQNRTEz8/Qq7BiZDaQK7EDb8sGbDBno6v
QFJ1BEFdYpjB+gucQOzdHr/o9Z/BRQm5QIaL9kDnWo7BtXPQQBQuDUFO3J7BEN+gQMh3CD/FQKbB
d/nWQBw22L+GcanB92S4QCmQ2b9VCaHBZkG0QEqz5D9he5HBOYmxQGLChUBFVIXBRVOjQAcbKUBg
/5rBvfmfQGpJmkAgr4/Bj/eGQOHSc0BZvZbBQomzQNF9BUHtU7HB1evrQCbTIUE9a6/B6meiQL+q
KEHYSqjBFM6IQMr+4z8JCKPBPICVQER340BbnofBoIquQNlcfMCdpJrBiAbFQJgmF0GV0KnBCWV7
QO1QhcBNlJnBjqfzQDYzL8D606rBV/+BQPLavUB5/4zBDX/3QNtFVUDrB4/BZkHbQDlBAkAS3H3B
70BrQDwMkUCOmp/B4++6QHAyJcDFg5jB4dFoQO7VlcCGzI/Buw5jQJRnocC2QqHBCnpNQL+CQcC1
3prBZ33TQE+RM0CNvYjBGbcSQVgQAkHkX47Bsx7rQCsd5kAfJ4PBFXAKQdGPEkFX8Z/Bkg/FQBw9
vD/q9rLBT0DxQKkODb+5nbbB1deOQCPaBEHLKZvBrDyCQH1sLb+SO5rBCf6YQLkWrz93CY3B7y/I
QNirdz/TlpTB5vfDQHiunUDrzoDBnLuWQCuBdEBDZ4DBZt++QDOMREDZRJ/B3Py6QDP4pkDwWZTB
EudZQGNGWEAn6pHBG2GrQMiKDEHzILnB1hHMQEYh8kBfbrLBm7yWQAaj/EA5wq3BrrvhQOyUKEGR
IrfBLJf4QKasLkGiTqrBb38CQeDGFUEPyLDBn1qaQJK5L0ExGbDBJI+FQFl9IUHVv6TBWL6uQFs2
NUFD8qLBbySCQJ9SGEAFOarBSORUQDXMvj+QO5/Bf7+iQLJf2UBCu3/BQFp5QCXe+0DOT4bBOAq/
QO9Bk8B/7ZTBnVO4QNx6hsBv1qLBhhztQGynXcDrkqXBUQPxQJkrRsAIRLLBJCxpQAv5x0CMzpPB
+qRIQIXYp0DeCp3BKycBQXo0BEHbS5DBd+/gQLmv9kCdM4rBUqH5QCC/DUGFQ5rBRVPIQBQhDz9c
s6zBBlfhQN6cFL/Ata7BoNqtQECCBUGhEJjBrTCdQOoQO79ALqDBrJm2QOER+EC7D47BECDPQAiy
DkHoQZ7BCZulQCjP9D7bkqXBcDDZQIf05b9LV6nB93W3QHSX7r84i6HBbfe1QKw75z8bFpHB5/Cw
QHwYh0AJR4XBrXKlQEZjKED4x5rB2cCfQAHpmkBfw4/B+RiIQOAlc0By4JbBkIbrQG5ZJEEwZq7B
X+ygQEwRKkHEu6fBx7O0QKJ7B0HZ/7DBx0iMQB5D3D9gsaLBLrWSQF/M40C9qofBXv7LQEv1f8A2
kZjB1IDEQLQBGUFsL6nBHKv1QEH0ZsA9WJLBhHzzQD95N8CBBazBv8OAQPnsvUDjTI3BzOP3QNaw
WkAkvI7BHVXcQI4sCEB2CX3BEcNuQL3aj0AO85/Bvk2tQMajO8CeuprBlmoEQaggHsDo2ZXBPgYJ
QbANlMCwe5PBJg3tQCgVXcAtxofBZC/UQCayN0CecYjBS14RQXKxA0FKUo3BJrznQHME6EDBkILB
scMJQc9nFEF76p7BL7rPQIA0vz8YnbDBZyf7QEqoBr8pcLTB+mqNQMjEBUFVC5vBH/mBQJZkSr+r
4JrBWpeaQEzUsT/BrIzBY2/KQKijfD/T9ZPBXm/CQO+Rn0BjtYDBggWWQGAvdkB3d4DBhhjBQDLj
Q0CCAZ/BZti6QO4JqEC+UpTB5n1bQFt6V0CdLZLBFufhQJxRK0EHHbbBuQb3QJ4dMUE9EanBpKQC
QcmkGEHatK/B+HKZQBpeMUENha/BmgSEQKZrIkFEeqTB1hCsQMaDNkGhK6LBQB6tQODEDkFEyLjB
3+rNQKTE9kAfDbLBK9iXQMOt/0Act63BMYmFQHF8EkCUCarBru1bQJx3tT/0757BkzifQOqq2UDM
rn/B20hyQDuI+0CBfYbBbc3VQC6DjcDYT6DB/WG7QAGjmMAo25PB1PTqQBL2asB0xqfBsYPwQGcx
RMCe07PBGHZoQG0AyEB5N5TBxA1LQG2YpkDemZ3B

>  <OMEGA_E>  (4) 
aLRbPrBFdz6g7Xc+aOd7PhSaiz5AO1E+COmqPljStD4=

>  <OMEGA_NBR>  (4) 
    160689

$$$$
