253236
     RDKit          3D

 42 44  0  0  1  0  0  0  0  0999 V2000
    6.0891   -0.8293  -21.8846 C   0  0  0  0  0  0  0  0  0  0  0  0
    6.8229    0.0749  -22.6670 C   0  0  0  0  0  0  0  0  0  0  0  0
    3.0600   -4.8654  -17.2075 C   0  0  0  0  0  0  0  0  0  0  0  0
    3.9112   -4.3672  -18.2056 C   0  0  0  0  0  0  0  0  0  0  0  0
    4.9415    1.0387  -20.8296 C   0  0  0  0  0  0  0  0  0  0  0  0
    1.8028   -2.7922  -17.3412 C   0  0  0  0  0  0  0  0  0  0  0  0
    5.6721    1.9706  -21.6156 C   0  0  0  0  0  0  0  0  0  0  0  0
    5.1551   -0.3468  -20.9405 C   0  0  0  0  0  0  0  0  0  0  0  0
    1.9931   -4.0649  -16.7691 C   0  0  0  0  0  0  0  0  0  0  0  0
    6.6329    1.4622  -22.5309 C   0  0  0  0  0  0  0  0  0  0  0  0
    3.6744   -3.0761  -18.7403 C   0  0  0  0  0  0  0  0  0  0  0  0
    4.4195    3.8907  -19.2425 C   0  0  0  0  0  0  0  0  0  0  0  0
    4.5794   -2.5022  -19.7570 C   0  0  0  0  0  0  0  0  0  0  0  0
    6.8390    3.7545  -19.3798 C   0  0  0  0  0  0  0  0  0  0  0  0
    6.7001    4.2003  -20.8456 C   0  0  1  0  0  0  0  0  0  0  0  0
    5.4469    3.5008  -21.4479 C   0  0  1  0  0  0  0  0  0  0  0  0
    5.0723    4.1463  -22.8063 C   0  0  0  0  0  0  0  0  0  0  0  0
    2.6304   -2.3226  -18.3016 N   0  0  0  0  0  0  0  0  0  0  0  0
    4.2922    3.7592  -20.5458 N   0  0  0  0  0  0  0  0  0  0  0  0
    3.2607    3.8989  -18.4827 N   0  0  0  0  0  0  0  0  0  0  0  0
    4.3834   -1.1640  -20.1062 N   0  0  0  0  0  0  0  0  0  0  0  0
    5.5161   -3.1670  -20.1861 O   0  0  0  0  0  0  0  0  0  0  0  0
    5.6404    4.0490  -18.6047 O   0  0  0  0  0  0  0  0  0  0  0  0
    1.1550   -4.5101  -15.8071 F   0  0  0  0  0  0  0  0  0  0  0  0
    7.3861    2.2842  -23.2950 F   0  0  0  0  0  0  0  0  0  0  0  0
    6.5695    5.5582  -20.8880 F   0  0  0  0  0  0  0  0  0  0  0  0
    6.2379   -1.8924  -22.0036 H   0  0  0  0  0  0  0  0  0  0  0  0
    7.5416   -0.2982  -23.3816 H   0  0  0  0  0  0  0  0  0  0  0  0
    3.2224   -5.8458  -16.7846 H   0  0  0  0  0  0  0  0  0  0  0  0
    4.7389   -4.9618  -18.5630 H   0  0  0  0  0  0  0  0  0  0  0  0
    4.2042    1.4036  -20.1300 H   0  0  0  0  0  0  0  0  0  0  0  0
    0.9793   -2.1790  -17.0060 H   0  0  0  0  0  0  0  0  0  0  0  0
    7.0212    2.6700  -19.3541 H   0  0  0  0  0  0  0  0  0  0  0  0
    7.6927    4.2806  -18.9277 H   0  0  0  0  0  0  0  0  0  0  0  0
    7.5883    3.8673  -21.4026 H   0  0  0  0  0  0  0  0  0  0  0  0
    4.9170    5.2266  -22.6691 H   0  0  0  0  0  0  0  0  0  0  0  0
    5.8867    3.9817  -23.5272 H   0  0  0  0  0  0  0  0  0  0  0  0
    4.1475    3.6884  -23.1871 H   0  0  0  0  0  0  0  0  0  0  0  0
    3.3795    3.8362  -20.9473 H   0  0  0  0  0  0  0  0  0  0  0  0
    3.3138    4.0176  -17.4912 H   0  0  0  0  0  0  0  0  0  0  0  0
    2.3714    3.7861  -18.9258 H   0  0  0  0  0  0  0  0  0  0  0  0
    3.5784   -0.7284  -19.7034 H   0  0  0  0  0  0  0  0  0  0  0  0
  1  2  2  0
  1  8  1  0
  2 10  1  0
  3  4  2  0
  3  9  1  0
  4 11  1  0
  5  7  1  0
  5  8  2  0
  6  9  2  0
  6 18  1  0
  7 10  2  0
  7 16  1  0
  8 21  1  0
  9 24  1  0
 10 25  1  0
 11 13  1  0
 11 18  2  0
 12 19  2  0
 12 20  1  0
 12 23  1  0
 13 21  1  0
 13 22  2  0
 14 15  1  0
 14 23  1  0
 15 16  1  0
 15 26  1  0
 16 17  1  6
 16 19  1  0
  1 27  1  0
  2 28  1  0
  3 29  1  0
  4 30  1  0
  5 31  1  0
  6 32  1  0
 14 33  1  0
 14 34  1  0
 15 35  1  6
 17 36  1  0
 17 37  1  0
 17 38  1  0
 19 39  1  0
 20 40  1  0
 20 41  1  0
 21 42  1  0
M  CHG  1  19   1
M  END
>  <OMEGA_C>  (1) 
39nCQEhNVL+RE6/BfVXaQGxdmT0AVrXBHtdDQI6xm8D+qInBglF6QP6/i8ArpZHBAyGeQKXyhD8V
o6bB58DmP9+yMsC+uorBA4K1QFQ7/D/M7KzBOfakQI2Qsb4bhqfBuxz/P1QTgsAjJ4bB1kDUQEMq
uz9YP7TB/ilrQBjfRMAb7JXB1myNQDEBeUCm8JnB2oqSQJckIMBCDp7B5djaQARJcEDiCZvBZGfW
QCtphkDBw6bBnUyuQHYNYEAzlavBbVCiQBeuhEBMc7bBdFgoQOukFMCgaZLBT1mJQEuWcEDPXaTB
FLBQQEOHeUCE3JPB5USMQNr8lL9+2aDBOoSwQKKwSsAhfaHB2H20QD+RgUB01pTBFtiTP5RSkMDP
6XzBm1rsQIMwEkAvXLrBCjnSQAPdsUCGGqfBjZzHQOc48r9tB7DBCFXxQJapmL6VDbvBEzxOQBIR
u8D0RobBDKWXQHbHnsAggZTBnoiGQO2osz8rCqHBt7B6P3t1C8BcDIjB3a3gQLTgKkAf1ZrBcSr2
QG/6iED8a5fBIdPyQA+Cd0CNOKvBqledQOY/p0BfWrXBw1+8QADUfkC7N7zB/beEQC4ObEAYf7nB
X0pYQNaEdUATlKfBhxVUQDCQgEDo7YvBrMUXQOdOckAkaJfBVgRlQP53Or+ioJ3By4rCQLNVWb9A
Hq/BHYnaQDRWaj1ROrXBDh/fPzUdN8AzFYrBz1wkQHyyFcAGGpLB7A6eQBpvgj8UlqbBw0dIQCtY
m8DYHIrBwui1QDbx+T+zvqzBhqakQP5yvL6Kk6fBFtQBQPlShMDGBYbBTODUQH7ouD+/ArTBdrlq
QNpzRsBc6JXBs9iMQB5TeUCJ15nB8RGSQFy+IcAGH57BUDjaQAj/bUB8gJrBwCjXQBcshUBxQ6bB
/hyvQOX4XkDxT6vBuz6kQBa1hEDvMLbBggB7QDzVisDs4JHBg6CJQE/cb0AiRqTBL3pOQBY+fEA3
+pPBHu2LQAwjmL+19qDBc6+vQPv5TMC/nqHBloOzQJRNgUA+iZTBuiCgP1hHlcBiiHzB2bPtQOYZ
EUBI7rnBre7TQA6xsECorqbBLOzGQDW89L8tLrDB453xQPbToL5j7rrBpmZnP8LNEsBRFofBEaIX
QHATrr80YpXBblOGQGvosD95BKHBOxdWQE3QusB4/IbBZ1DfQOteKEBsO5rBhIn1QFRTh0DfvZbB
B8jzQOe5c0DqiKrBOY2fQJ5Ip0A8CLXBBri+QIjGfkAW1rvB7cCGQBL/bED5bLnBjE9ZQJ83dECL
oKfBo5tQQBN2gkBJDozB4xIWQAKrdUDZqpfBww5kQOwZQb+izJ3B

>  <OMEGA_E>  (1) 
gBtvPmDTwj4=

>  <OMEGA_NBR>  (1) 
     21287

$$$$
253262
     RDKit          3D

 49 51  0  0  1  0  0  0  0  0999 V2000
    6.1356   -0.8928  -21.9693 C   0  0  0  0  0  0  0  0  0  0  0  0
    6.8596    0.0405  -22.7305 C   0  0  0  0  0  0  0  0  0  0  0  0
    3.0088   -4.7292  -17.1786 C   0  0  0  0  0  0  0  0  0  0  0  0
    3.8812   -4.3038  -18.1900 C   0  0  0  0  0  0  0  0  0  0  0  0
    4.9460    0.9299  -20.8866 C   0  0  0  0  0  0  0  0  0  0  0  0
    1.8586   -2.5969  -17.3580 C   0  0  0  0  0  0  0  0  0  0  0  0
    5.6497    1.8796  -21.6458 C   0  0  0  0  0  0  0  0  0  0  0  0
    5.1839   -0.4333  -21.0329 C   0  0  0  0  0  0  0  0  0  0  0  0
    1.9845   -3.8644  -16.7597 C   0  0  0  0  0  0  0  0  0  0  0  0
    6.6323    1.4214  -22.5692 C   0  0  0  0  0  0  0  0  0  0  0  0
    3.7077   -3.0194  -18.7527 C   0  0  0  0  0  0  0  0  0  0  0  0
    4.3711    3.8289  -19.1974 C   0  0  0  0  0  0  0  0  0  0  0  0
    4.6181   -2.5284  -19.7981 C   0  0  0  0  0  0  0  0  0  0  0  0
    6.7769    3.5594  -19.3714 C   0  0  0  0  0  0  0  0  0  0  0  0
    6.5876    4.0656  -20.8083 C   0  0  1  0  0  0  0  0  0  0  0  0
    5.3588    3.3706  -21.4275 C   0  0  1  0  0  0  0  0  0  0  0  0
    4.9254    4.0021  -22.7750 C   0  0  0  0  0  0  0  0  0  0  0  0
    7.4091    6.3227  -21.0410 C   0  0  0  0  0  0  0  0  0  0  0  0
    7.4997    6.4995  -22.5619 C   0  0  0  0  0  0  0  0  0  0  0  0
    2.7082   -2.1967  -18.3277 N   0  0  0  0  0  0  0  0  0  0  0  0
    4.2159    3.5927  -20.4869 N   0  0  0  0  0  0  0  0  0  0  0  0
    3.2386    4.1116  -18.4540 N   0  0  0  0  0  0  0  0  0  0  0  0
    4.3926   -1.2372  -20.2334 N   0  0  0  0  0  0  0  0  0  0  0  0
    5.5720   -3.1996  -20.1760 O   0  0  0  0  0  0  0  0  0  0  0  0
    5.6070    3.8708  -18.5637 O   0  0  0  0  0  0  0  0  0  0  0  0
    6.3107    5.4753  -20.7275 O   0  0  0  0  0  0  0  0  0  0  0  0
    1.1246   -4.2459  -15.7911 F   0  0  0  0  0  0  0  0  0  0  0  0
    7.3704    2.2806  -23.3088 F   0  0  0  0  0  0  0  0  0  0  0  0
    8.0101    5.3880  -23.1574 F   0  0  0  0  0  0  0  0  0  0  0  0
    8.3168    7.5463  -22.8137 F   0  0  0  0  0  0  0  0  0  0  0  0
    6.2665    6.7645  -23.0735 F   0  0  0  0  0  0  0  0  0  0  0  0
    6.3054   -1.9514  -22.0992 H   0  0  0  0  0  0  0  0  0  0  0  0
    7.5946   -0.3029  -23.4434 H   0  0  0  0  0  0  0  0  0  0  0  0
    3.1224   -5.7047  -16.7293 H   0  0  0  0  0  0  0  0  0  0  0  0
    4.6754   -4.9494  -18.5347 H   0  0  0  0  0  0  0  0  0  0  0  0
    4.2056    1.2645  -20.1751 H   0  0  0  0  0  0  0  0  0  0  0  0
    1.0695   -1.9335  -17.0361 H   0  0  0  0  0  0  0  0  0  0  0  0
    6.9259    2.4696  -19.3880 H   0  0  0  0  0  0  0  0  0  0  0  0
    7.6608    4.0435  -18.9304 H   0  0  0  0  0  0  0  0  0  0  0  0
    7.4857    3.8591  -21.4088 H   0  0  0  0  0  0  0  0  0  0  0  0
    4.7146    5.0717  -22.6284 H   0  0  0  0  0  0  0  0  0  0  0  0
    5.7343    3.8855  -23.5114 H   0  0  0  0  0  0  0  0  0  0  0  0
    4.0198    3.4970  -23.1421 H   0  0  0  0  0  0  0  0  0  0  0  0
    8.3397    5.8698  -20.6684 H   0  0  0  0  0  0  0  0  0  0  0  0
    7.2628    7.3038  -20.5658 H   0  0  0  0  0  0  0  0  0  0  0  0
    3.2865    3.5605  -20.8544 H   0  0  0  0  0  0  0  0  0  0  0  0
    3.3214    4.3393  -17.4838 H   0  0  0  0  0  0  0  0  0  0  0  0
    2.3375    4.0881  -18.8869 H   0  0  0  0  0  0  0  0  0  0  0  0
    3.5348   -0.8250  -19.9265 H   0  0  0  0  0  0  0  0  0  0  0  0
  1  2  2  0
  1  8  1  0
  2 10  1  0
  3  4  2  0
  3  9  1  0
  4 11  1  0
  5  7  1  0
  5  8  2  0
  6  9  2  0
  6 20  1  0
  7 10  2  0
  7 16  1  0
  8 23  1  0
  9 27  1  0
 10 28  1  0
 11 13  1  0
 11 20  2  0
 12 21  2  0
 12 22  1  0
 12 25  1  0
 13 23  1  0
 13 24  2  0
 14 15  1  0
 14 25  1  0
 15 16  1  0
 15 26  1  0
 16 17  1  6
 16 21  1  0
 18 19  1  0
 18 26  1  0
 19 29  1  0
 19 30  1  0
 19 31  1  0
  1 32  1  0
  2 33  1  0
  3 34  1  0
  4 35  1  0
  5 36  1  0
  6 37  1  0
 14 38  1  0
 14 39  1  0
 15 40  1  6
 17 41  1  0
 17 42  1  0
 17 43  1  0
 18 44  1  0
 18 45  1  0
 21 46  1  0
 22 47  1  0
 22 48  1  0
 23 49  1  0
M  CHG  1  21   1
M  END
>  <OMEGA_C>  (2) 
i1bEQHWMZL8Rwa/BxIHbQFDuJT0C2LXBh5BAQI9Vl8DEbYnB+2R4QOq4icAjhZHBw0WeQE8Lbj+v
F6fBDebtP9cyJsBE3YrBhsq0QAyW8D+ZKq3BvOKlQDrY3b5YQ6jBzgL+P+tSd8DzE4bB7zvUQFjv
tT+yjbTBxEttQIU9QcCHBZbBA+CLQDQNdUBSlJnBIseTQLfQIcB+Yp7ButzYQAvNY0Ce+JrBO83S
QIMZgkBdd6bBdnurQHG4V0CHa6vBIp2dQBMRgEBDM7bBdBftQEJTykARVKjBpP3vQBP8z0DefrTB
sVItQAWXDMA3n5LB1uiGQD3vZUAc5aPBvUVPQDGSg0C7oZPBf5CMQNpcnr/y3aHBbE2yQCXGTMBu
aKHBlGyzQGq7d0BlgpTB3vDJQM81r0Dx0aXBBfSPP37eh8BnqHzB9dnrQAT2EUBWeLrBeikAQZVq
rEBjQrnByBEFQZ978UB1grbB8obIQA532ECUlrjBz8XJQOHG+b9Dy7DBKgfzQOMTm77+i7vBh9VH
QBqNtsCs1YXBFJ2VQGthnsD/RpTBBpSGQMvZoT+aZqHBQ+SIP/R7978FSojBpKDdQKQOHkC3GpvB
8yT1QLZkgUB9cZfBJIvvQEL8dkBBRavBI96WQD5LokDjBrXBAX+3QFeseEBRF7zBVKKAQEvOX0D0
IrnBhW8FQY3Vu0DRWKXBBWnoQAq56UCvhqTBPVVSQDLfY0C51abB2pFUQNTbikDE3ovBFZoVQNTR
gkB0GJfB3DliQN8xU7+MaZ/B8KTAQCTtZr8W56/BqSzXQAAnAjx9T7bBuDtDQELnmsBe4YnBfUl7
QEw+i8DPspHBvaecQAK9cT9++qbBha/oPzIfMMC+EIvBXMqyQJA77z9sX63B3X2jQPnG2L57KKjB
U8D9P8r6gMD6iobBtHPQQJiOsT9gHrXBSbFtQEG9Q8Dy7ZXBGIKMQIMxfUBwq5nBIdyTQOS4IMCn
Dp7BJKbYQMxcaUC0d5nBPjfaQFG9cUAUxqXBS5KuQKX9VkA5DKvBOl+jQEbTgkAIs7XBL9XRQLgb
xkCX5KXB5vfYQEh56EAUQq7BXBUrQH14EsBTjZLBwFSJQPq3aEBe16PBCuVNQLD6gkBi4JPB2keL
QLzKnL9afaHB6X6zQCHmSMCZ96DBktiyQCx7h0D/s5TBrojpQKBzoUCUUanBi/yOPyA7j8CWHn7B
eAzoQLOuDkDmNbvB1cUBQWrX8EA38q7BSjbDQKH1BUFTPavBq5jKQMQQ20AT+LfBm4zFQIRn+7+1
4bDBfsHtQOz5tL5oLbzBuGxMQMNXusBEe4bBHRuYQEmKnsAKdZTBaRSGQEwqpj+1FKHBO25+P9pq
CMDWgIjBlHDZQNr0JEC/ZZfB9P30QKqphEBUHJbBp4PxQEKWQUAGeajBvCygQJ9cpUDIMrTBeQS9
QOemekB5kbvBjQOFQLyCbEAc27jBF3jdQLYT0UCuDZ7BsJavQNBIvkAcU6XBN/RXQJyzZECc/KbB
ywNQQC1vjEAAPYzBpJIVQGNfeUC3VZfBSBJgQL+FUr/MzJ7Bhm3DQL5IZb8Mmq/Bbr7aQCRSyzxD
wbXBN/w5QFfdm8BP3IrB8cdxQGATjcAd0pLBUf+dQJa+cD+s86bB9vD0P8jdKcC6SIrB1oi0QCgg
8D9ULa3B4FSlQIRJ2r5bDajByHH7Pxu8fsBiiIbBcsTTQCXlsz9IjbTBlM9rQAkgRMA8O5bBK++L
QAaUeEDGxpnB9zWTQNttIsD8ZJ7BgM7YQE6aZEDky5rBvVbUQMxOgEDmhqbBT1isQLh6V0AcfavB
7k6gQEsQgUDDWbbBbEnvQEWHx0Dh6KfBcRHbQLtN8kCcm6rBUpEwQKYlDsCv9JHBzG+HQEe8Z0AG
EqTBUaBOQB+uhEDe5pPBslmMQDRknb+BjKHBIbSxQGL5TMDFhqHBFUizQG33fUBbqJTBC7fLQKt+
rEAktKbBZIaOPy+FjMCOo33BbofrQJo7EEDQibrBzFTHQCg670AiTrTBlgn6QFc7CEE56arBCmm9
QECP/EDKA6PBKnfIQElo+r/yobDBiinyQIuYqL5GcbvBIkQ9QOmTvMC1GojBfV2QQGlFosC6TZbB
TZ+GQM7EpD+EOaHB3NSXP/Jl/L8K+IbBuzjcQCqWHkC9dZrBAGP1QAVsgUBsUZfB9iTxQM6Mb0Dc
HKvBzm+aQLloo0AKGrXBRsO6QHvGeUCoD7zBpjqDQBzgY0D5jrnB8RMCQWRzvEDKbq7BOewAQQp5
yUCucqDBGqRTQL+yZUDsFqfBLzJTQMB1jEC0KYzBlSoVQLL1gkAGZpfB2EZjQMooTr/MvZ7BRrLB
QFqHZ78qv6/B/uDXQOD5Ozw+LrbByCtBQFtkm8CDEorBZit6QPHPi8C5y5HBaJCcQFR6bj/O96bB
3X/oP/jnL8CXJ4vBvlqyQEYj7j8pYq3BohKkQI353b6TFKjBR5X6P3IjgcDMvIbBN1TQQDuisT/p
FrXBUOBtQNJuRMCR8pXB5X+MQJ2bfkCttpnB4CaUQNnNIcCRDp7BDfXYQFdsb0D5/pnBSgbZQLPl
c0AFYKbB1CGtQJVxVkBrPKvBbwWgQCI4gUAc9bXBBs7NQGNpxkAgGanBF23qQA9y6UBz/qTBqtcr
QFl0EsBmjZLBTJWIQOazZ0DfyaPBsKFOQBpnhEBpzZPBp+qLQOpunr+4baHBGW2zQKW3SsALDKHB
IROzQO5LiUCdAJXBfz7oQKqHoUBhsKrB+NmJPxlUj8AquX7BcGznQL9ZD0C3ObvBwFT+QC8z3EBz
5ZvB5tHRQDkTBkHb8KLBNgEEQYyX8kCLpKzBUjnHQOB2+79WpbDBeNHuQJ+1r76d/LvBfElJQAgG
u8AnvobBUGeXQGlWn8A0ipTBibyFQAjCoz+pG6HBwO9/P1ygB8AelYjBK7TbQOPYK0BDoJfBO+j0
QOGHiUDaCJfBawfwQCSjQkAu6qjBVQScQIjKo0C4o7TBzh+5QPS2d0Cb+rvBaK6BQDgCZ0AF0LjB
Opy0QPJUv0CKNqPBmge/QFgd0EBItbDBK+ZVQMZRYUBNs6bBcbBRQIgkj0CvRozBDe0VQJiuekB7
EJfBfqNhQP7PVL//rp7BvkHDQDGXar8Ona/Bv6vZQMCsOTxu5rXBmSLmP7W5MsDWP4rBNiYnQLXT
FMDlh5LBPVyeQGb2aT/6rabBlDhJQMsMmsCd84nBqAW0QD617T9kCa3BntKlQHbt6L7W4qfBhLEE
QIqfgcAt3IXBc3/SQMIBsj+TorTBo0lsQDAMSMBaPZbB/NuLQOixfUCCvpnBnk2TQC7pJcDudZ7B
7kLYQMszaEB3pZrBlH/UQI1if0BggKbBTNCrQC+ZVkBZUKvBUcWeQDg5gEBaILbB7dnwQB6OwUDp
CK3BBQDeQHEw60BjEbHBLll7QMI4i8Cz95HBoC6HQG/WZkDl1qPBsqtOQK5iiEBh8ZPBRGWNQHQ8
or9zVqHBF1mxQDcbUcABu6HBbTqzQOhUg0DXxZTBGQnQQFDPrEA2JafBSD6oPznMkMBWjHvBIXLp
QDOTD0ClxrrBwoe/QGN/4kA/ibjBFuT9QMBBAUG3gLXBQwPMQOGCAEGjx6jBC33IQIbf/L8CrrDB
WZHwQJ/+q77HvrvBmMZ5PzWcDMCWTYfBK/QaQPwmrr/RGZbB05mHQMx4oD/qxaDBXfdVQAJIucDR
nIbBy27aQMs7IkDi1pnBKEv1QPLugkD5U5fBpenwQGvZaECL3arBo92YQIqUokA26LTBgr24QGz6
d0DF+LvBsnuBQAPHYUD8JbnB/u36QGR3rUC3zrPBwkMGQZb7x0A816fB7udSQAnxX0DKq6bBUI5T
QOo8kkAmW4zBSwgVQMprhUAYV5fBcPdmQHTWVL9qMp7BtSHEQJkWZb9W1q/Bi9TaQGBYHD3iCLbB
c4XnP6jzJ8AOHIrB//soQID5C8CQYJLBHd6eQCJfbj+D+6bBh5hDQK2plsBgBIrBXdG0QDS+8D+p
MK3B1EymQHIF3r5fOKjBMJEBQP6RecDK1YXBiZ3TQKS0tT/ou7TBgWNrQJxBQsA0NpbBxvaLQLZX
d0DurJnBa1OTQOZ1IsDoe57BxOfYQM8CaEC2IZvB6ozSQBTJgkAWuqbBskarQMToV0AAhKvB5ySd
QHW9f0AnU7bBY5jsQHAJy0C/xqjBzo7xQJZOz0DC77TB5dl2QDjFiMDQB5LBetOGQFYVZkAk8KPB
W3FPQGkBhECPqpPBDQKNQH5inr/X2aHBhASyQOKZTcC8XaHB956zQPqjfUAWuZTBnlHJQAvkr0Bl
bqbBjemfP2wEi8BBe3vBLJPqQNerEUCy1LrBY5UBQXFwq0B/QLnB1NQFQe/l8EDT4bbBuMfKQPC/
1kDwibnB1njJQAAS+r865bDBpfbxQBJ/nL6f1bvBCk6CPxsd/79SFofB7scfQDS1mr9n2ZXBKciH
QP0Ioj8bI6HBCXhNQDhGtsAcwIbB5qTdQIhCIkDS/5rBmkX1QC3og0Bww5fBFUPvQC+id0CvgqvB
cD+WQCQXokDBMbXBdPa2QAlDeECWO7zB+zOAQIv/XkB5NrnByvsEQYc2vUCzX6XBRPzmQHrS6kDd
Q6XBwgRSQBpGYkCUzabBhvdUQHcQjEB39IvBQ4kVQDT4gUDsCJfBit1jQFkEUL+FRp/BCb3CQIZB
Zr8pYa/BZrrYQGCBnTze1LXBU9TrPyA5NsAVmInB2LMrQMJcFMDWd5HBW7idQPrObz9tlqbBRuJF
QH+PncDG4YrBrlazQD+97z/YD63BtTKlQMET3r45r6fBaEIDQFNfhcD2QYbBaSTRQCvJsj8axrTB
wpBtQJUcSMCj55XBWPSLQGznf0AO+pnBSlWTQB+WJMB9Kp7B8fnYQCQwe0DiPJvBH8PVQIQigUCa
i6fBITCrQIXmV0DgnKvBDS+bQDs1fEBMerbBlru/QKt0zEDho6fBNIK5QFqb7kA/LLDBRjp5QEnu
jMDAipLBiyeHQISVZkCT8KPBWJhOQCI5hUCL4JPBWg6NQKNzn78cBaHByKawQDUaUMCCwqHBwNSy
QGLHi0ATpJXBh4TcQLUOrED+havBD8egPxK1lsDKW33BmAHnQPWDD0DOOrvByU/dQOp7A0GR2bDB
w3WXQHF0A0GIQq3BboyxQGKW3ECd4bnBZF/IQCa8+r/ASrDB6KHvQE6Cq77mpbvBj3eGPxYSEMDB
KYbBdEAjQC57pr8dKpTBvQmHQO5kpD8MsaDBoSRQQHgTvsAIQIjBx9feQN/NN0BsJ5nBuR30QPY+
kUDEipjBisfvQGlfWkC0v6rB7Q6VQOCdoEADrLXBQbizQN+ZcUCOpbzBmuR6QFB3W0BOzrjBrz3N
QIMx20CuZaDBzaqgQNvLvUD9t6XBP7pSQFFwXEAykqbB7K9SQORgkUCUfozBY5oVQB2+eUDL25bB
RpdmQMqST7+4yp3B

>  <OMEGA_E>  (2) 
8OHOPnw10D7ovdI+OG3WPsRlCz+kBwk/bgIJPw==

>  <OMEGA_NBR>  (2) 
     28506

$$$$
253261
     RDKit          3D

 49 51  0  0  1  0  0  0  0  0999 V2000
    6.1201   -0.9015  -21.9942 C   0  0  0  0  0  0  0  0  0  0  0  0
    6.8453    0.0348  -22.7516 C   0  0  0  0  0  0  0  0  0  0  0  0
    2.9942   -4.7152  -17.1763 C   0  0  0  0  0  0  0  0  0  0  0  0
    3.8849   -4.2917  -18.1727 C   0  0  0  0  0  0  0  0  0  0  0  0
    4.9539    0.9187  -20.8829 C   0  0  0  0  0  0  0  0  0  0  0  0
    1.8511   -2.5812  -17.3756 C   0  0  0  0  0  0  0  0  0  0  0  0
    5.6533    1.8712  -21.6420 C   0  0  0  0  0  0  0  0  0  0  0  0
    5.1814   -0.4436  -21.0450 C   0  0  0  0  0  0  0  0  0  0  0  0
    6.6273    1.4162  -22.5758 C   0  0  0  0  0  0  0  0  0  0  0  0
    1.9623   -3.8497  -16.7781 C   0  0  0  0  0  0  0  0  0  0  0  0
    3.7201   -3.0089  -18.7413 C   0  0  0  0  0  0  0  0  0  0  0  0
    4.3712    3.8253  -19.1931 C   0  0  0  0  0  0  0  0  0  0  0  0
    4.6298   -2.5274  -19.7917 C   0  0  0  0  0  0  0  0  0  0  0  0
    6.7790    3.5759  -19.3797 C   0  0  0  0  0  0  0  0  0  0  0  0
    6.5726    4.0748  -20.8168 C   0  0  1  0  0  0  0  0  0  0  0  0
    5.3513    3.3603  -21.4258 C   0  0  1  0  0  0  0  0  0  0  0  0
    4.9052    3.9843  -22.7732 C   0  0  0  0  0  0  0  0  0  0  0  0
    7.3444    6.3505  -21.0429 C   0  0  0  0  0  0  0  0  0  0  0  0
    7.4398    6.5318  -22.5625 C   0  0  0  0  0  0  0  0  0  0  0  0
    2.7179   -2.1827  -18.3296 N   0  0  0  0  0  0  0  0  0  0  0  0
    4.2111    3.5730  -20.4790 N   0  0  0  0  0  0  0  0  0  0  0  0
    3.2424    4.1250  -18.4506 N   0  0  0  0  0  0  0  0  0  0  0  0
    4.3878   -1.2486  -20.2514 N   0  0  0  0  0  0  0  0  0  0  0  0
    5.5891   -3.1957  -20.1614 O   0  0  0  0  0  0  0  0  0  0  0  0
    5.6102    3.8765  -18.5653 O   0  0  0  0  0  0  0  0  0  0  0  0
    6.2650    5.4788  -20.7383 O   0  0  0  0  0  0  0  0  0  0  0  0
    7.3597    2.2791  -23.3168 F   0  0  0  0  0  0  0  0  0  0  0  0
    7.9788    5.4330  -23.1563 F   0  0  0  0  0  0  0  0  0  0  0  0
    8.2353    7.5970  -22.8043 F   0  0  0  0  0  0  0  0  0  0  0  0
    6.2052    6.7704  -23.0840 F   0  0  0  0  0  0  0  0  0  0  0  0
    0.8250   -4.3405  -15.5547 Cl  0  0  0  0  0  0  0  0  0  0  0  0
    6.2797   -1.9600  -22.1372 H   0  0  0  0  0  0  0  0  0  0  0  0
    7.5736   -0.3062  -23.4724 H   0  0  0  0  0  0  0  0  0  0  0  0
    3.0998   -5.6898  -16.7229 H   0  0  0  0  0  0  0  0  0  0  0  0
    4.6861   -4.9372  -18.5012 H   0  0  0  0  0  0  0  0  0  0  0  0
    4.2248    1.2510  -20.1588 H   0  0  0  0  0  0  0  0  0  0  0  0
    1.0591   -1.9155  -17.0657 H   0  0  0  0  0  0  0  0  0  0  0  0
    6.9411    2.4880  -19.3934 H   0  0  0  0  0  0  0  0  0  0  0  0
    7.6599    4.0724  -18.9467 H   0  0  0  0  0  0  0  0  0  0  0  0
    7.4704    3.8843  -21.4232 H   0  0  0  0  0  0  0  0  0  0  0  0
    4.6862    5.0526  -22.6285 H   0  0  0  0  0  0  0  0  0  0  0  0
    5.7109    3.8723  -23.5136 H   0  0  0  0  0  0  0  0  0  0  0  0
    4.0018    3.4706  -23.1338 H   0  0  0  0  0  0  0  0  0  0  0  0
    8.2828    5.9184  -20.6653 H   0  0  0  0  0  0  0  0  0  0  0  0
    7.1728    7.3273  -20.5669 H   0  0  0  0  0  0  0  0  0  0  0  0
    3.2798    3.5212  -20.8395 H   0  0  0  0  0  0  0  0  0  0  0  0
    3.3297    4.3712  -17.4854 H   0  0  0  0  0  0  0  0  0  0  0  0
    2.3395    4.0952  -18.8794 H   0  0  0  0  0  0  0  0  0  0  0  0
    3.5154   -0.8488  -19.9703 H   0  0  0  0  0  0  0  0  0  0  0  0
  1  2  2  0
  1  8  1  0
  2  9  1  0
  3  4  2  0
  3 10  1  0
  4 11  1  0
  5  7  1  0
  5  8  2  0
  6 10  2  0
  6 20  1  0
  7  9  2  0
  7 16  1  0
  8 23  1  0
  9 27  1  0
 10 31  1  0
 11 13  1  0
 11 20  2  0
 12 21  2  0
 12 22  1  0
 12 25  1  0
 13 23  1  0
 13 24  2  0
 14 15  1  0
 14 25  1  0
 15 16  1  0
 15 26  1  0
 16 17  1  6
 16 21  1  0
 18 19  1  0
 18 26  1  0
 19 28  1  0
 19 29  1  0
 19 30  1  0
  1 32  1  0
  2 33  1  0
  3 34  1  0
  4 35  1  0
  5 36  1  0
  6 37  1  0
 14 38  1  0
 14 39  1  0
 15 40  1  6
 17 41  1  0
 17 42  1  0
 17 43  1  0
 18 44  1  0
 18 45  1  0
 21 46  1  0
 22 47  1  0
 22 48  1  0
 23 49  1  0
M  CHG  1  21   1
M  END
>  <OMEGA_C>  (3) 
OdjDQKTFZr8h9K/BqQzbQFi9Dj1WA7bBsKE/QE7jlsABaYnB86J4QEtVicC9YZHBWoaeQOQyaz9C
EKfBZu/sPxUyJcAkAYvBgue0QCyC7z/HIq3BB86lQF0j474zXKjBxBLUQJlEtT8nm7TBSC77PxBi
dsCPOYbBohZuQGqRQMA37pXByOCLQOTRdEBsi5nBNSeUQBDBIcB8VZ7BvO3YQJDbZECdCZvBi1LS
QG9kgkDNiKbBrT2rQFQPV0DwZ6vBM/ecQIH/fkCML7bBUwXrQIM3y0DZV6jBIRPuQHgE0UALgLTB
/PEtQEuxC8D2opLBNsGGQHKrZEAN1aPBl4NPQKP/g0DnmpPBFmmMQLjRn7/bAqLBntmyQNaFTMCM
SqHBHoezQH4YeEC9hZTBmXrIQD5Sr0D356XBdILrQIDcEUC1iLrBklL/QOHarUATQLnB4MMDQVYa
80Awb7bBG5HGQEun2EAArLjBWjRTP8jlisAQ4HjBj/PIQOLg+r/nGLHBQ1vyQGnMnL6Ox7vBlmJG
QNIStsCRyIXBlvSVQDz9ncBgApTBQDGHQJ4goD88RaHBP4+HP7ov9b96hojBuB3eQF47H0DGJZvB
AB71QGBRgkDWkpfBKQ3vQBeZeEC6YqvBoPWVQMCuoUA7B7XBBsC2QGfUd0DlG7zBBg+AQG8eXkAa
ErnBfIYEQY9jvUBwUqXBuYflQN546kAIiaTBiOdRQL5aYUBPt6bBSRlVQAbhi0AJ4ovBJ7oVQAIM
g0ALCZfBXvxgQCRIWb8ww5/BJY/DQEijZb+26a/BHt/aQEitED0D+7XBIkpAQHh1l8ATeYnB3sV4
QFOgicA7eJHBXVaeQMq6bT+ZEKfBRsrsP2+iJsDj8YrBhte0QC5W8D/cJ63BiYulQB/93r7CUqjB
1gzUQM5ptT/yl7TB7VX8P4Hwd8D8NIbB5MJtQI32QMCP85XBAfKLQBvXdEBJj5nBafKTQCt4IcAH
U57BlPTYQClmY0Ce7JrBvvLSQDgAgkDcaabBVq2rQNirV0COZKvB/xieQBBbgEANK7bB+iftQAVd
ykBA66fB+onwQJVU0UCoBrTBmHYtQESMDMB6mJLB4QqHQPjLZUBq4aPBhmZPQIK0g0Aro5PBGTiM
QGC/nr878KHBnceyQLriS8CkRaHBlHizQHRUd0C2eJTBbt/JQFILr0Bau6XBedHrQE+pEUBkerrB
l3EFQfD08kDSu7XBtzvJQNVR2kAJKLjBn3EAQYMvrkBM+rjByXRYP18EjMCXvHjBC4/IQPxl+r+8
C7HBhibyQBh3nr5qvbvBoH5HQEiytsBT44XBlwOWQPMknsBnK5TBW/uGQIvjoT+8SqHBSRKHP6LV
+L8Ka4jBJLDdQPqlHUCLEpvB9zv1QIMjgUBQYZfBzLrvQCUVd0ApN6vBJ3yXQEqWokCe9LTBJBO4
QDVGeUCICLzB3xmBQHbHYEA9KbnBuWMFQQR/u0Cs9KTBkFXoQMZS6UC36KPBMKNSQCe7Y0Ai1abB
naRUQNgXi0CT4YvBvMYVQMQGg0A2HZfBbuJgQFRzVr/gnJ/BIv/AQPgVaL8k76/BqZnXQIBz9Ttd
SrbBu15DQITPmcDinYnBNXh8QDZzisDuW5HBHZacQIZbbz/1C6fBoc3nP4iTLsDRPIvBreuyQBWY
7j/ZWq3Bf5ijQCIi3b6QPajB9czQQCF4sT9NEbXBlTn8PzDWf8Buj4bBIbluQGTsQsDLz5XB6yqM
QBzcfEDNn5nBfEqUQJ7dIMAPBZ7BhUjYQLx9Z0BzWZnBOAbaQFSMcUA6oqXBQZKuQMKgVkDT+qrB
26ijQO7LgkC2oLXB2XnQQPzuxUASeaXBS1rXQP/r6EAWrK3Bj38rQOSTEcBEp5LBCi6JQE4SaEDS
y6PBevRMQAvhg0CP8JPBDV2LQIw8nr+RnKHBa9ezQLpYScBK7KDBhnyyQAdohkApipTBu+PoQPXS
oUCY+ajB8oboQIrfDkB5GLvBIeQAQXMl8kACKa7BHanAQNfZBUHnl6rBB9LJQLHT20AzfLfB0v1T
P/H4kcBfJ3rBzwrGQFTl+7+U6rDBEE3uQKBis756JLzBoXRMQKr8uMC+EIbBIx6ZQBirncBu45PB
nLeFQHdvpD85NKHBDs96P07JBsAq2ojBvOLYQErOIkDIbJfBbKf0QItcg0Cb5pXBUaHxQMRQQkAc
a6jBql6gQPRNpUA0GbTB0Xy9QALaekA3dLvBCWqFQOZ4bECD2rjBaaLbQI6X0EBHkJ3BBVeuQMiJ
vUACBaXBDr9XQGCXY0Ce9abBduROQL5qjUChTozBBKIUQJKLfECTeJfBkXpfQFDbV7/mE5/BoQDC
QAaiaL8AIrDBPmHZQJhHlzxqOLbBmEpDQPDVl8ADWInBLqh6QNfdicBncZHB8aSeQHztaz8H3qbB
6oDuP/iUKMD124rBcT+1QHqN7j8D/azBbdakQFIh474zWqjBI3XTQN4ssz/Op7TBBKwAQJRtecCL
C4bBJvBtQGL6QcD6AJbBn7OLQJzedkDccJnBZpaTQCMKIsA2bp7BezXYQJisXUDa1JnB3C7WQEws
fEASe6XBFPStQLqYVkCA8KrBEHmiQNKKgUA2rLXBdIPtQGSWwkCat6vBdDPWQA3L60CUfq7BRCQt
QCNMDsBQoJLB7V+IQDNjZkABwqPB8iBNQBoKhUCC5ZPBVniLQMAIoL9eA6LBccCyQFyYS8AkW6HB
B0+yQJ3AeEAN95PBfnbRQGwdq0A6BKXBnhbrQBVsEEBjmLrBJyW4QLzS40AGF7bByyvzQFYJBEGS
TrLBdbTCQPMN/EB4nqXBkHtnP3P/jMC2L3jBPE3GQOT9+7+yZLHBsv/vQHr+qL6/ILzBGLVLQMHl
tsB8tIXBBSyXQG4SnsBaKZTB2hiIQPyNoT+76aDBnCKIP6jM/b/hS4jBQTTaQJBlF0AssJnBUMr0
QNrteEDB/JXBOjPzQCrQaEDB1anBeyqdQHTio0AeRbTB4O68QKatekBdYbvB6i+FQJdNZkAj+bjB
haD0QOBPsEBhBrPBAcIFQca3yUBbeafBaS1WQI5PZEC5+KbBL+xPQH9wjEAHH4zBfLEUQHaThEDt
qpfBvR1fQDO+Wr8Mt5/BS1DBQCx+aL9816/BzJbXQGDIAjyCQLbB3HFBQE4Im8Bt9InBFdt6QHqU
i8BlppHBSaOcQNrhbT+n9abBZHToP1Z1L8CqOIvB32eyQBvq7T8JYa3BafejQDyS374XHqjB51zQ
QHxOsT9VFrXBGHP6P5LEgMDfu4bBiWxuQBZIRMBd5ZXBr1+MQGR8fkDtqpnBcFWUQNfsIcDSCp7B
CKfYQE6KbEA0u5nBpHzZQJgZckByGqbBuZytQNdPVkAXIavBS1OhQEbygUCzz7XBnpfPQEDPxUAa
nqjBVufrQFGj50C7x6PBfBUsQIJREsAGmZLBoMeIQB67Z0A+wqPBRQVOQOXKhEAz2ZPBzPKLQH3l
nr+OcaHBvnGzQNoPS8BtF6HBIeSyQDyWiEAv2JTBIX7pQJKaoECuSarBZeTnQKokD0BMH7vBN1z/
QIMc2EDW2JrBpg/TQMzRBEE3OqHBKfQEQR7i8kA0I6vBunhQP2fGksAgfXrBmZDGQKcC/L/vzbDB
Z1vuQHG4sb4zGbzBaYJJQKuPusAekIbBLu6XQFgRn8BuTJTBcfiFQF94oz+qD6HBABF/PyolB8Bt
uIjBi2zaQFunKEB8cZfBjtj0QL5Eh0DWnZbB8EDwQANcQEBloajBYq+dQEp8pED0YLTBqaq6QCg9
eUClxbvBQveCQMaRaUD+z7jBaBq1QNlGvkAFI6PBSpLCQLwZ0UBnSrDBIX1WQKaVYUB5vabBisBQ
QDxij0CaTozBCmUVQGBofEBhMZfBOqJhQA1EVr9Fs57B

>  <OMEGA_E>  (3) 
zCrRPohl0T4gVtI+ONbTPvzF2D4=

>  <OMEGA_NBR>  (3) 
     32989

$$$$
253264
     RDKit          3D

 49 51  0  0  1  0  0  0  0  0999 V2000
    6.1574   -0.8891  -21.9501 C   0  0  0  0  0  0  0  0  0  0  0  0
    6.8787    0.0436  -22.7134 C   0  0  0  0  0  0  0  0  0  0  0  0
    4.9761    0.9326  -20.8584 C   0  0  0  0  0  0  0  0  0  0  0  0
    2.9758   -4.6398  -17.0679 C   0  0  0  0  0  0  0  0  0  0  0  0
    1.8513   -2.5152  -17.3733 C   0  0  0  0  0  0  0  0  0  0  0  0
    5.6686    1.8810  -21.6294 C   0  0  0  0  0  0  0  0  0  0  0  0
    5.2133   -0.4302  -21.0047 C   0  0  0  0  0  0  0  0  0  0  0  0
    6.6505    1.4234  -22.5530 C   0  0  0  0  0  0  0  0  0  0  0  0
    1.9532   -3.7497  -16.7124 C   0  0  0  0  0  0  0  0  0  0  0  0
    3.8736   -4.2828  -18.0851 C   0  0  0  0  0  0  0  0  0  0  0  0
    3.7168   -3.0222  -18.7290 C   0  0  0  0  0  0  0  0  0  0  0  0
    4.3635    3.8261  -19.2064 C   0  0  0  0  0  0  0  0  0  0  0  0
    4.6238   -2.5386  -19.7962 C   0  0  0  0  0  0  0  0  0  0  0  0
    6.7737    3.6130  -19.3801 C   0  0  0  0  0  0  0  0  0  0  0  0
    6.5749    4.0912  -20.8246 C   0  0  1  0  0  0  0  0  0  0  0  0
    5.3579    3.3700  -21.4329 C   0  0  1  0  0  0  0  0  0  0  0  0
    4.9188    3.9772  -22.7908 C   0  0  0  0  0  0  0  0  0  0  0  0
    7.3624    6.3558  -21.0846 C   0  0  0  0  0  0  0  0  0  0  0  0
    7.4773    6.5029  -22.6074 C   0  0  0  0  0  0  0  0  0  0  0  0
    2.7145   -2.1763  -18.3523 N   0  0  0  0  0  0  0  0  0  0  0  0
    4.2119    3.5885  -20.4960 N   0  0  0  0  0  0  0  0  0  0  0  0
    3.2237    4.0557  -18.4562 N   0  0  0  0  0  0  0  0  0  0  0  0
    4.4283   -1.2302  -20.1942 N   0  0  0  0  0  0  0  0  0  0  0  0
    5.5346   -3.2211  -20.2480 O   0  0  0  0  0  0  0  0  0  0  0  0
    5.5990    3.9163  -18.5776 O   0  0  0  0  0  0  0  0  0  0  0  0
    6.2739    5.4966  -20.7708 O   0  0  0  0  0  0  0  0  0  0  0  0
    7.3821    2.2821  -23.2993 F   0  0  0  0  0  0  0  0  0  0  0  0
    8.0134    5.3882  -23.1735 F   0  0  0  0  0  0  0  0  0  0  0  0
    8.2854    7.5551  -22.8642 F   0  0  0  0  0  0  0  0  0  0  0  0
    6.2500    6.7407  -23.1461 F   0  0  0  0  0  0  0  0  0  0  0  0
    0.8158   -4.1722  -15.4636 Cl  0  0  0  0  0  0  0  0  0  0  0  0
    5.1451   -5.4206  -18.4909 Cl  0  0  0  0  0  0  0  0  0  0  0  0
    6.3232   -1.9477  -22.0848 H   0  0  0  0  0  0  0  0  0  0  0  0
    7.6126   -0.2998  -23.4275 H   0  0  0  0  0  0  0  0  0  0  0  0
    4.2450    1.2682  -20.1377 H   0  0  0  0  0  0  0  0  0  0  0  0
    3.0715   -5.5903  -16.5643 H   0  0  0  0  0  0  0  0  0  0  0  0
    1.0687   -1.8257  -17.0930 H   0  0  0  0  0  0  0  0  0  0  0  0
    6.9426    2.5260  -19.3785 H   0  0  0  0  0  0  0  0  0  0  0  0
    7.6486    4.1206  -18.9478 H   0  0  0  0  0  0  0  0  0  0  0  0
    7.4761    3.8891  -21.4222 H   0  0  0  0  0  0  0  0  0  0  0  0
    4.6937    5.0459  -22.6595 H   0  0  0  0  0  0  0  0  0  0  0  0
    5.7305    3.8609  -23.5240 H   0  0  0  0  0  0  0  0  0  0  0  0
    4.0205    3.4552  -23.1523 H   0  0  0  0  0  0  0  0  0  0  0  0
    8.2940    5.9272  -20.6866 H   0  0  0  0  0  0  0  0  0  0  0  0
    7.1912    7.3441  -20.6329 H   0  0  0  0  0  0  0  0  0  0  0  0
    3.2835    3.5528  -20.8658 H   0  0  0  0  0  0  0  0  0  0  0  0
    3.3013    4.2805  -17.4849 H   0  0  0  0  0  0  0  0  0  0  0  0
    2.3224    3.9969  -18.8854 H   0  0  0  0  0  0  0  0  0  0  0  0
    3.5969   -0.7980  -19.8450 H   0  0  0  0  0  0  0  0  0  0  0  0
  1  2  2  0
  1  7  1  0
  2  8  1  0
  3  6  1  0
  3  7  2  0
  4  9  2  0
  4 10  1  0
  5  9  1  0
  5 20  2  0
  6  8  2  0
  6 16  1  0
  7 23  1  0
  8 27  1  0
  9 31  1  0
 10 11  2  0
 10 32  1  0
 11 13  1  0
 11 20  1  0
 12 21  2  0
 12 22  1  0
 12 25  1  0
 13 23  1  0
 13 24  2  0
 14 15  1  0
 14 25  1  0
 15 16  1  0
 15 26  1  0
 16 17  1  6
 16 21  1  0
 18 19  1  0
 18 26  1  0
 19 28  1  0
 19 29  1  0
 19 30  1  0
  1 33  1  0
  2 34  1  0
  3 35  1  0
  4 36  1  0
  5 37  1  0
 14 38  1  0
 14 39  1  0
 15 40  1  6
 17 41  1  0
 17 42  1  0
 17 43  1  0
 18 44  1  0
 18 45  1  0
 21 46  1  0
 22 47  1  0
 22 48  1  0
 23 49  1  0
M  CHG  1  21   1
M  END
>  <OMEGA_C>  (4) 
zQnFQB2ZY7/bma/BUx7cQPCJMj0FtbXBHzyfQFi9bj/w3abBFnM+QAR5lMAdi4jB+PXsP3j5IMCE
/IrB7mS1QHrF8D/pCK3BiNOmQA5E3L6wCajB2tDUQHQztj+AbLTBygL6P6r6b8D8soXB2eh3QGQM
icAxrpDBCeBtQDdsQcAJ1ZXBtqGLQGLfdECwppnBhPaTQD94IsCIXp7BP8LYQBs7Z0B7CpvB1GXS
QC7rgkDYmKbBUXSrQCauV0COdqvBaWadQFiKfkCAU7bBI5nrQAVjy0A/rajB7kXvQPcX0EDb27TB
U7otQLVIC8CN0ZLBs8eGQJiqZUDX96PBxVFOQH7IgUBlppPBl7SNQIx4nb++jaHBhhuxQOIlTsD3
+6HBsiqzQLmkekDpnpTBksPIQHHkr0ClKqbBaDrsQIANEkD4ZLrB+zYAQU5srEBgY7nBH5EEQVbD
8UDe6bbBQQDIQOaz10AoK7nBgdVQP9yChcDwanfBbaSkQJB1rcBF7ZPBWFfKQG1P+b+hrbDBWprz
QAB/mb5ua7vBTdeHQF1Toj8NGqHBHpREQO7jssCag4TBtsmIP86x6b+OvojBnSneQFyqIUAvB5vB
GMH0QP/bg0D/lJfB/TvvQJHneECzYKvBuDKWQPF3oUCkRrXBLGC3QIQZd0ARMbzBSaiAQKQhXUD2
N7nBbLQEQdurvUAifqXBTR7mQNIC60AvEKXBHiRSQGpgY0Aw7abBukhTQML5iEAh4YvBw6IUQBbN
f0BVFZfBujNmQC5ITL+Uwp7BXYLEQCIPab/Hwa/Bc5PbQED54Tzaz7XBTN6eQMqWZz9E3qbBULI8
QMEdlsBr5ojB6AzvP7xsIsB49YrBAwq1QL3Y7T8o+qzBOGOmQMxo6r5uJqjB+13UQOgDtD8XbLTB
gdD4P1h4csCd5YXBtpJ2QO2UisC9+5DBIiduQK5rQ8Cx6ZXBjHWLQCjYdkBhjZnBwxqUQJ5RJMAt
cp7BZWfYQDSvZUAE3prBF1vSQMTkgUDidKbB/iqrQOomVkCXTqvB9MicQBxQfUBfILbBw1bsQAvs
yUCsxajB7kbvQLREzkBn+LTBsTEvQMqADMAxu5LBwY6GQBQgZED9xqPBQXZOQL21hUDQuZPBUzuN
QEwUor/Zv6HB6fexQNwBT8Dc4KHBM/myQKwke0BnfZTBOk3JQCD6rkABGKbBV9PrQHI9EUAxV7rB
39EEQXdg70B2LbfBGN7HQCWT1kAwHrnBmmz/QAIrqkAphbnBFXFLP2v0hsAnBXjBYQmjQP+hr8DL
fJTBN8HJQKHs+78R6LDBTvnyQBcQn77skLvB94qHQPsOnj/eEKHBy6FBQDnstMB1CIXB0MGMP2BY
67/MlojBkxXdQMjpH0D8xprBkbf0QBmfgkCEb5fB1ynvQMjidUChNKvBx5qVQFzWoEBNCLXBI5a2
QD0OdkAZC7zBfOx/QOX3W0Dw+rjBFBQFQRjfu0BNr6XBfYXnQOez6UCAL6XBt5lRQF4AX0AbpqbB
KMNTQLZvjkDADozBLs8UQKxqhEArL5fBHjpkQDw3Wb/oIJ/B

>  <OMEGA_E>  (4) 
WIXTPji81T4=

>  <OMEGA_NBR>  (4) 
     34953

$$$$
315434
     RDKit          3D

 47 50  0  0  1  0  0  0  0  0999 V2000
    6.0570   -0.9296  -21.9896 C   0  0  0  0  0  0  0  0  0  0  0  0
    6.8244   -0.0327  -22.7438 C   0  0  0  0  0  0  0  0  0  0  0  0
    2.9953   -4.7575  -17.1922 C   0  0  0  0  0  0  0  0  0  0  0  0
    3.8813   -4.3032  -18.1784 C   0  0  0  0  0  0  0  0  0  0  0  0
    4.9479    0.9459  -20.9025 C   0  0  0  0  0  0  0  0  0  0  0  0
    1.8042   -2.6483  -17.3803 C   0  0  0  0  0  0  0  0  0  0  0  0
    5.7060    1.8670  -21.6543 C   0  0  0  0  0  0  0  0  0  0  0  0
    5.1296   -0.4323  -21.0498 C   0  0  0  0  0  0  0  0  0  0  0  0
    6.6712    1.3541  -22.5725 C   0  0  0  0  0  0  0  0  0  0  0  0
    1.9422   -3.9193  -16.7926 C   0  0  0  0  0  0  0  0  0  0  0  0
    3.6920   -3.0169  -18.7339 C   0  0  0  0  0  0  0  0  0  0  0  0
    4.3879    3.7869  -19.2114 C   0  0  0  0  0  0  0  0  0  0  0  0
    4.5985   -2.5066  -19.7714 C   0  0  0  0  0  0  0  0  0  0  0  0
    7.0071    5.0285  -19.7683 C   0  0  0  0  0  0  0  0  0  0  0  0
    6.9258    3.7120  -20.5670 C   0  0  1  0  0  0  0  0  0  0  0  0
    6.8162    3.6948  -19.0343 C   0  0  2  0  0  0  0  0  0  0  0  0
    5.6127    3.3697  -21.3302 C   0  0  1  0  0  0  0  0  0  0  0  0
    6.5233    6.3499  -22.5940 C   0  0  0  0  0  0  0  0  0  0  0  0
    5.4069    4.2059  -22.6246 C   0  0  0  0  0  0  0  0  0  0  0  0
    2.6684   -2.2190  -18.3234 N   0  0  0  0  0  0  0  0  0  0  0  0
    4.3984    3.6822  -20.5190 N   0  0  0  0  0  0  0  0  0  0  0  0
    3.1763    4.0650  -18.5988 N   0  0  0  0  0  0  0  0  0  0  0  0
    4.3365   -1.2283  -20.2401 N   0  0  0  0  0  0  0  0  0  0  0  0
    5.5801   -3.1545  -20.1196 O   0  0  0  0  0  0  0  0  0  0  0  0
    5.4985    3.5738  -18.4199 O   0  0  0  0  0  0  0  0  0  0  0  0
    5.3163    5.6088  -22.3165 O   0  0  0  0  0  0  0  0  0  0  0  0
    7.4988    2.1612  -23.2733 F   0  0  0  0  0  0  0  0  0  0  0  0
    0.8079   -4.4493  -15.5831 Cl  0  0  0  0  0  0  0  0  0  0  0  0
    6.1745   -1.9944  -22.1266 H   0  0  0  0  0  0  0  0  0  0  0  0
    7.5383   -0.4090  -23.4615 H   0  0  0  0  0  0  0  0  0  0  0  0
    3.1203   -5.7340  -16.7480 H   0  0  0  0  0  0  0  0  0  0  0  0
    4.6979   -4.9275  -18.5098 H   0  0  0  0  0  0  0  0  0  0  0  0
    4.2135    1.3118  -20.2003 H   0  0  0  0  0  0  0  0  0  0  0  0
    0.9931   -2.0056  -17.0713 H   0  0  0  0  0  0  0  0  0  0  0  0
    7.9632    5.5670  -19.6910 H   0  0  0  0  0  0  0  0  0  0  0  0
    6.1809    5.7531  -19.8165 H   0  0  0  0  0  0  0  0  0  0  0  0
    7.8626    3.3368  -21.0049 H   0  0  0  0  0  0  0  0  0  0  0  0
    7.6845    3.3062  -18.4820 H   0  0  0  0  0  0  0  0  0  0  0  0
    6.3729    7.4079  -22.3329 H   0  0  0  0  0  0  0  0  0  0  0  0
    7.3510    5.9392  -21.9971 H   0  0  0  0  0  0  0  0  0  0  0  0
    6.7664    6.2674  -23.6636 H   0  0  0  0  0  0  0  0  0  0  0  0
    6.2583    4.0392  -23.3009 H   0  0  0  0  0  0  0  0  0  0  0  0
    4.4780    3.8841  -23.1181 H   0  0  0  0  0  0  0  0  0  0  0  0
    3.5356    3.8208  -21.0051 H   0  0  0  0  0  0  0  0  0  0  0  0
    3.1186    4.1082  -17.6014 H   0  0  0  0  0  0  0  0  0  0  0  0
    2.3598    4.2226  -19.1542 H   0  0  0  0  0  0  0  0  0  0  0  0
    3.4637   -0.8303  -19.9575 H   0  0  0  0  0  0  0  0  0  0  0  0
  1  2  2  0
  1  8  1  0
  2  9  1  0
  3  4  2  0
  3 10  1  0
  4 11  1  0
  5  7  1  0
  5  8  2  0
  6 10  2  0
  6 20  1  0
  7  9  2  0
  7 17  1  0
  8 23  1  0
  9 27  1  0
 10 28  1  0
 11 13  1  0
 11 20  2  0
 12 21  2  0
 12 22  1  0
 12 25  1  0
 13 23  1  0
 13 24  2  0
 14 15  1  0
 14 16  1  0
 15 16  1  0
 15 17  1  0
 16 25  1  0
 17 19  1  6
 17 21  1  0
 18 26  1  0
 19 26  1  0
  1 29  1  0
  2 30  1  0
  3 31  1  0
  4 32  1  0
  5 33  1  0
  6 34  1  0
 14 35  1  0
 14 36  1  0
 15 37  1  1
 16 38  1  1
 18 39  1  0
 18 40  1  0
 18 41  1  0
 19 42  1  0
 19 43  1  0
 21 44  1  0
 22 45  1  0
 22 46  1  0
 23 47  1  0
M  CHG  1  21   1
M  END
>  <OMEGA_C>  (5) 
KdPBQFz5bb+66q/BfWHaQBzUBb1i87XBqrM/QMo9mMCyiYnBM2d4QPazicB0bZHBU1WeQK4jcj9i
OKfBkvDmP8J9KcDGCovBzJe2QAL57j/uO63B4CWkQGZa3b7zZajBU3rVQChTrT+AlLTB+pj4P1zW
esAvV4bBSUlsQGwUQcAP35XBgWmMQPxcckDisJnBLyeTQOhsIMDmK57BPzrgQB/poEBkJZ7BfqDd
QKCQbUAsiaTBEx7aQNh3bEA0RpjBMZuzQMCpV0AvpKrBLL/QQLoyy0B7wLTBeAWtQFaWhkAV/7TB
LccqQNgEDsBolpLBBMCMQKKoa0DkJqTBv0hLQLMUgkBmypTBwcSKQBE4nb/A66HBSJCyQPrjScDm
9KDBd/OvQFq4ZED5W5PB0x6qQBJ7s0AkiLLB5/XvQFhQCkCiL7rBs89OP6pgjsCKVHnBRpXFQMxI
/786A7HB0DnxQOhp0b5AsbvB3rJHQM98t8Dm+4XBk1WWQMOtncAbFJTBVdWGQEHopz8dmqHBcT1+
P+lbAMDzkYjBLNL+QL8kskA7h53BRcrFQHgZuEAkiJ7BX5r7QImOVUAICqjBW+f1QECYU0A125PB
fu7LQCAN7UC1qbLBrDvrQDEOvkAg+q/BVYbYQJyOyEAVT73BnkPIQFFBgUBEaLrBEEyPQEiUeEDv
8bjBekdiQC6IdEB0CqjBvZZHQAh2g0C5z4zBrgYXQFYfh0DUO5nBpa1dQKePVL/+qJ/BHfjCQMpN
eb98EbDBUjraQDD7AL2M/7XBbo/dPxgPMMCW7IrBx2YnQDgWEsD5s5LBifqcQHkSVz+/MqfBcjVB
QJTjmcAMaYrBVT60QIWA5z8r9qzB93OkQEJeBr+vmqjBP13TQISJrD/jfbTBcFX3P4ENgcDPwIbB
fBJsQGT4RsBhMpbBUKuMQIyRfUCWNJnB4LSTQIrcJsBQb57BudvTQGA0rkBUZaPBsVXWQDwsfkBv
6qbBgR3ZQGOtikABAJvBw9arQKrWU0ApwqrBMS3CQEaeskAopr7BD9uXQB7ff0AIqLTB9rl3QF8N
i8Af+ZHB8JOIQO6vXkCD3qLBDslOQJaph0BOopPBv+eKQM/frL9ngKLBt7uzQFquT8Bh66DB6X6z
QLBBhUDcRJTBx7G1QOS7hkA0K73Bc6DrQO5jDEDLVrrBswVWP6L5lMCXTnrBumXIQKz4AcBxNrHB
gZvxQCVuu75QxbvB8P9oPyfSCMCUMIjBESAfQEXipb+zD5bB1deEQJqVlD9PkqHBnytLQJFtucC1
GofBIpfuQKwOxECaG6XBXHC1QGq+v0AXA6TBcPfzQOURaUCu3arBdtD4QFnZh0BsPZfBKAfZQEXW
tEDOUcXB17mlQGsGxkD/d8DBJ1LRQFKUvkAZSrfBOll7QFFiV0Bmp7fBRvSKQL8ln0AZLbLBKn5W
QLzRTECOKKXBfNpRQMWekkCgIIzBDeYVQBwdg0BgHpfBjMJbQJRQfb/ZxKDB

>  <OMEGA_E>  (5) 
4LhnPlDC/z4=

>  <OMEGA_NBR>  (5) 
     48565

$$$$
315435
     RDKit          3D

 47 50  0  0  1  0  0  0  0  0999 V2000
    6.0256   -0.8588  -22.0433 C   0  0  0  0  0  0  0  0  0  0  0  0
    6.7782    0.0918  -22.7500 C   0  0  0  0  0  0  0  0  0  0  0  0
    3.0288   -4.7687  -17.2172 C   0  0  0  0  0  0  0  0  0  0  0  0
    3.8773   -4.3362  -18.2469 C   0  0  0  0  0  0  0  0  0  0  0  0
    4.8818    0.9436  -20.8809 C   0  0  0  0  0  0  0  0  0  0  0  0
    1.9352   -2.6009  -17.2902 C   0  0  0  0  0  0  0  0  0  0  0  0
    5.6113    1.9237  -21.5854 C   0  0  0  0  0  0  0  0  0  0  0  0
    5.0984   -0.4194  -21.0780 C   0  0  0  0  0  0  0  0  0  0  0  0
    6.6109    1.4695  -22.5001 C   0  0  0  0  0  0  0  0  0  0  0  0
    2.0448   -3.8891  -16.7363 C   0  0  0  0  0  0  0  0  0  0  0  0
    3.7173   -3.0317  -18.7670 C   0  0  0  0  0  0  0  0  0  0  0  0
    6.9716    4.0917  -19.4692 C   0  0  0  0  0  0  0  0  0  0  0  0
    4.5883   -2.5335  -19.8439 C   0  0  0  0  0  0  0  0  0  0  0  0
    4.1203    4.9690  -19.5036 C   0  0  0  0  0  0  0  0  0  0  0  0
    4.2432    3.5994  -20.1937 C   0  0  2  0  0  0  0  0  0  0  0  0
    4.6690    3.7588  -18.7286 C   0  0  1  0  0  0  0  0  0  0  0  0
    5.3958    3.4205  -21.2309 C   0  0  2  0  0  0  0  0  0  0  0  0
    5.8721    4.3052  -24.6767 C   0  0  0  0  0  0  0  0  0  0  0  0
    4.9901    4.2887  -22.4440 C   0  0  0  0  0  0  0  0  0  0  0  0
    2.7585   -2.1958  -18.2794 N   0  0  0  0  0  0  0  0  0  0  0  0
    6.6824    3.9240  -20.7304 N   0  0  0  0  0  0  0  0  0  0  0  0
    8.2288    4.5896  -19.1922 N   0  0  0  0  0  0  0  0  0  0  0  0
    4.3290   -1.2452  -20.2771 N   0  0  0  0  0  0  0  0  0  0  0  0
    5.5321   -3.1982  -20.2577 O   0  0  0  0  0  0  0  0  0  0  0  0
    6.0951    3.8520  -18.4282 O   0  0  0  0  0  0  0  0  0  0  0  0
    6.1098    4.5950  -23.2921 O   0  0  0  0  0  0  0  0  0  0  0  0
    7.4798    2.3138  -23.0949 F   0  0  0  0  0  0  0  0  0  0  0  0
    0.9661   -4.3847  -15.4622 Cl  0  0  0  0  0  0  0  0  0  0  0  0
    6.1556   -1.9133  -22.2369 H   0  0  0  0  0  0  0  0  0  0  0  0
    7.4918   -0.2347  -23.4920 H   0  0  0  0  0  0  0  0  0  0  0  0
    3.1302   -5.7603  -16.8016 H   0  0  0  0  0  0  0  0  0  0  0  0
    4.6425   -4.9909  -18.6371 H   0  0  0  0  0  0  0  0  0  0  0  0
    4.1337    1.2580  -20.1682 H   0  0  0  0  0  0  0  0  0  0  0  0
    1.1797   -1.9249  -16.9178 H   0  0  0  0  0  0  0  0  0  0  0  0
    4.7931    5.7914  -19.7885 H   0  0  0  0  0  0  0  0  0  0  0  0
    3.1277    5.3753  -19.2592 H   0  0  0  0  0  0  0  0  0  0  0  0
    3.3105    3.0505  -20.3904 H   0  0  0  0  0  0  0  0  0  0  0  0
    4.0061    3.3171  -17.9700 H   0  0  0  0  0  0  0  0  0  0  0  0
    6.7657    4.5625  -25.2644 H   0  0  0  0  0  0  0  0  0  0  0  0
    5.6519    3.2339  -24.7944 H   0  0  0  0  0  0  0  0  0  0  0  0
    5.0160    4.8969  -25.0333 H   0  0  0  0  0  0  0  0  0  0  0  0
    4.2379    3.7441  -23.0334 H   0  0  0  0  0  0  0  0  0  0  0  0
    4.5564    5.2303  -22.0763 H   0  0  0  0  0  0  0  0  0  0  0  0
    7.3853    4.1543  -21.4034 H   0  0  0  0  0  0  0  0  0  0  0  0
    8.4968    4.7730  -18.2464 H   0  0  0  0  0  0  0  0  0  0  0  0
    8.8717    4.7670  -19.9374 H   0  0  0  0  0  0  0  0  0  0  0  0
    3.4619   -0.8552  -19.9673 H   0  0  0  0  0  0  0  0  0  0  0  0
  1  2  2  0
  1  8  1  0
  2  9  1  0
  3  4  2  0
  3 10  1  0
  4 11  1  0
  5  7  1  0
  5  8  2  0
  6 10  2  0
  6 20  1  0
  7  9  2  0
  7 17  1  0
  8 23  1  0
  9 27  1  0
 10 28  1  0
 11 13  1  0
 11 20  2  0
 12 21  2  0
 12 22  1  0
 12 25  1  0
 13 23  1  0
 13 24  2  0
 14 15  1  0
 14 16  1  0
 15 16  1  0
 15 17  1  0
 16 25  1  0
 17 19  1  6
 17 21  1  0
 18 26  1  0
 19 26  1  0
  1 29  1  0
  2 30  1  0
  3 31  1  0
  4 32  1  0
  5 33  1  0
  6 34  1  0
 14 35  1  0
 14 36  1  0
 15 37  1  1
 16 38  1  1
 18 39  1  0
 18 40  1  0
 18 41  1  0
 19 42  1  0
 19 43  1  0
 21 44  1  0
 22 45  1  0
 22 46  1  0
 23 47  1  0
M  CHG  1  21   1
M  END
>  <OMEGA_C>  (6) 
99HAQOLXW7+YWLDBvubYQOgDvD0KALbB7ddBQECZmMDqvInBsyV4QM3BisC8+ZHBiDecQICOcT8B
DKfBcrX3P3V0JsBuUorB5I+zQAI89j/PrqzBYyajQJ2/1r6on6jBs4zTQLQYvD8nALTBd94CQGXm
eMDu44XBc+htQNQGQsDoIpbBvRffQDHvgkACwZvBBNOSQB4lIsBAwJ7BydmDQEcCn0BkB5zBnciH
QIRcZkC0jKHBxGiVQIKQcEAw1JXBm6qsQDHqWkD32KnBJui7QFjEiUDtacXB466fQB89iUA6jbPB
wYswQIuIDMAjPJLBUtbVQI0je0DW16XBTqkDQSvekkC1iZnBfoeKQFNkn7+KN6LBtQaxQA6wTMCu
D6LBYgvDQM+HdkAHbZPBk4PDQEcKk0BPVrrBc1rvQNYUFEBHwrjBJFF3PxJPjMBUZXfB0/rEQKDm
9L8U5bHBqbzvQJBccL6d77vBmVRIQMFUuMChaYbBBI+UQLi1n8C7GJXBekeEQJkGoT9iWKHBDAGX
P5lk9r+PV4fB62CZQO1SuUDZTp7BzyxIQBUCrEDiEprB895TQKg7Q0CSH6PBKDKAQLJLVECewo/B
S4DYQLv/kUB3HcrBMNy0QL74TkD8WsbBbIOgQA2znEA0RMjBfJyHQOueb0CARLjBw82RQPVep0Ap
nLDBvVTsQLDvhEAUOqvBxvIHQTu8mECn+JHBjvINQUiLmEDCf5/BE5BdQArvWr8WvZ/BAA/EQKIu
cb8c+q/BfTXdQKQ+Kr2s2LXBgKk6QIt2l8Af/YnBrxpyQOsuisA9JpLBruefQMjhbT9EeqfBim71
P2QzIcD8P4rBCPy3QBRm7T/Yea3BIwSmQCmv474kjajBXkDYQNhUrD/0dbTBrnj8PwCNdMCYAYbB
1Z5rQLDgP8A5GpbBxDzdQAQfcUAGgprBRr+SQOd6IcD3jZ7BvGSHQMLFn0DWSp7B4FmKQH9GaUBO
P6TB2tGPQI2ybEAOCJjBILGzQCGeVkC156rBvh/dQC4DxkCAtbDBygmxQHZ/h0AONrXBrIgwQERZ
CMCXGpLB2QzbQBubaUD16qTBXUwCQWykg0BIUJbBinWMQFp7nL/W+6HBV2qwQOEpTsDRt6HBC/e6
QHgCZ0AIo5PBiOayQBIHtUDnBrPB5Wv0QEXiCUBKhLnBKJtgP/97icA/vXfB86fHQNVqAMCJIbHB
w4z0QO751L5keLvBilc+QPyPt8D30YbBNJeQQKLyn8BnYJXBYCeIQBaDpT/C6qHBOmWYP93K6L8e
LIfBHPugQEyst0BgMp/BSMFQQPElsEAUjJ3BNpJYQK8qTkDBUqfBhFBqQAa7U0AlNZPB5cvaQDaa
6EBgL6/BUT7qQILytUBXmanBBljyQBxawEALlrfBnvPLQNsbfkC8ebrBz62SQPh/gECGTrnB8g/2
QApTcUDWGKnBvvYDQSLeh0BwbY7Bl+EOQbNwh0C2KZvBzG9jQC1jSL/VWZ/Btg29QGvrcr8bTrHB
hxXWQPjjrr2OiLfB8CRHQPY5lcCQ8ojBDC98QOPeh8CjWpHB+MCkQOu8cj8Qx6bBAj/0Pwz3I8Ae
iIrBcxC9QIzd6z8PBq3BksmkQE5Q2b6+yajBoeDWQNAGpj9kZ7XBQksFQOzIc8C4g4XBFOxtQAzA
PsByE5bBBXjXQNn5d0C8W5fBKKKSQAByH8Dgu57B0kuKQF8fpUA/L6HBbh2QQPVkbkAHgqXB2jCK
QI4bfkA7c5nB5A2+QLcpVEDSR6nBnvHBQA03m0A+FcTBSA/NQIrMikA9prHBbrstQLDhCsAXmJLB
oDPeQLBvVkCMw6DBe9f6QO5Xi0Ad9pHB3GuLQApZmL90GqLBH8iwQDWBSsAH/KHBc8OvQLUXfECI
jpLBGmiwQLU9iUD1irrBWUHxQFjrAkDffbvBrIGDP2MoicDWO3bBVGC8QMF1AMBPBbPBAfToQPvj
9774B77Bp71QQGj1s8CELoXBVJ6XQCk7nMBkL5TBs6KRQK7Tqj8OR6DB1cSOP8wn9L9W4ofBm2il
QBaSu0CvO6HBQPFYQNSwtkBkyKLBMxRqQMkcUkCN4anBLj5WQCDYa0BAAJbBA06qQHT5mEBGlMrB
rQzKQBACvUDJrsLB6ADfQKGEiUChVsbBLNzMQGEWq0AxJa7BXqftQFHTgkDVTrTB6e36QOvWPEDB
PaLBo4v3QGjQl0Deo4rBI+ALQdn9iUDyX5XBuIRhQEIPQb8MYp/BKKm/QKxvb7/yubDBse/WQMr+
hr3FT7fBYABEQJkHlsCFN4nBev95QDiJiMBNgpHBpQSjQHGueT/mEafBODDzP1LuI8CQiorB7zu5
QBSZ7z+FwK3BGxWmQLzKz74GdKjB3XnUQHW5qT/V1LXB2iEDQDujdMC1sIXBSLttQE8IP8BYBpbB
YefXQE9+aUB9aJjBQHSTQKc9H8DMdp7BqLOLQFZGpUA5gKDB6QKNQAmQcECym6XBxZeKQLHBekDP
XZnBI/K4QIHEVkBSiKrBO6v+QAY6uECvXq/BfLvBQHzgikCfBrTBOiAuQGOXCsBzgJLBFiHcQATC
WkB4p6LBVEP9QLdLdUAYrpLBDuGNQPs0lb/ucqHByJSwQHzuS8D37qHBdFexQELKbkDDF5PBZvPu
QLrRk0B7WLXBq0jtQK29BUBNNrzBd6p7P4WwicANvnbBAEvBQLUsAMDI+bHBJvHqQDas775GlL3B
CiJMQMAptcA6m4XBZyeWQKoyncAcaZTBkiaPQNPWrj95uqDBSc2OP8ol878y2YfBtFyoQNKzuUBH
paDBdOZdQMRMuUAUWKHB1xhgQANdWkDaxKnBgnNXQCtLa0CqmpXBpIsQQb1SvED55bDBw27tQAo2
1UCZ5LHBmWz5QOnUskDzxabB7Hq1QF0DeUDGc7vB3NmwQDIhqUDRd7LBCtH5QDhbUUA0ZqXBa/37
QEK1gEDO1IrBB8kMQU+3cUA/YpbBugdqQOtRMr9DF57B

>  <OMEGA_E>  (6) 
CoUxPzagFT8CGDo/nKY5Pw==

>  <OMEGA_NBR>  (6) 
     53251

$$$$
