50491825
     RDKit          3D

 50 53  0  0  1  0  0  0  0  0999 V2000
    4.6200   -1.1829  -20.6939 C   0  0  0  0  0  0  0  0  0  0  0  0
    5.6322   -1.8279  -21.4224 C   0  0  0  0  0  0  0  0  0  0  0  0
    4.5706    0.2195  -20.6450 C   0  0  0  0  0  0  0  0  0  0  0  0
    6.5907   -1.0696  -22.1153 C   0  0  0  0  0  0  0  0  0  0  0  0
    5.5376    1.0062  -21.3265 C   0  0  0  0  0  0  0  0  0  0  0  0
    6.5499    0.3364  -22.0799 C   0  0  0  0  0  0  0  0  0  0  0  0
    5.4730    7.3466  -25.4144 C   0  0  0  0  0  0  0  0  0  0  0  0
    6.0695    7.6783  -24.1784 C   0  0  0  0  0  0  0  0  0  0  0  0
    4.9634    6.0467  -25.5934 C   0  0  0  0  0  0  0  0  0  0  0  0
    5.7124    5.4959  -23.4485 C   0  0  0  0  0  0  0  0  0  0  0  0
    6.8191    3.1942  -19.1866 C   0  0  0  0  0  0  0  0  0  0  0  0
    4.3922    3.2204  -19.1321 C   0  0  0  0  0  0  0  0  0  0  0  0
    6.7330    4.6122  -21.2910 C   0  0  0  0  0  0  0  0  0  0  0  0
    5.3212    3.1561  -22.6322 C   0  0  0  0  0  0  0  0  0  0  0  0
    6.7650    3.1944  -20.7133 C   0  0  2  0  0  0  0  0  0  0  0  0
    5.4696    2.5462  -21.2480 C   0  0  2  0  0  0  0  0  0  0  0  0
    6.6174    9.0658  -23.9288 C   0  0  0  0  0  0  0  0  0  0  0  0
    5.6546    3.2724  -16.9753 C   0  0  0  0  0  0  0  0  0  0  0  0
    3.6054    4.4541  -26.7816 C   0  0  0  0  0  0  0  0  0  0  0  0
    6.1849    6.7411  -23.2176 N   0  0  0  0  0  0  0  0  0  0  0  0
    5.0951    5.1489  -24.5989 N   0  0  0  0  0  0  0  0  0  0  0  0
    5.8626    4.5202  -22.4899 N   0  0  0  0  0  0  0  0  0  0  0  0
    5.6260    3.1810  -18.4523 N   0  0  0  0  0  0  0  0  0  0  0  0
    4.3134    3.0258  -20.4282 N   0  0  0  0  0  0  0  0  0  0  0  0
    3.2076    3.4523  -18.4462 N   0  0  0  0  0  0  0  0  0  0  0  0
    7.9088    3.3150  -18.6380 O   0  0  0  0  0  0  0  0  0  0  0  0
    4.3265    5.7145  -26.7786 O   0  0  0  0  0  0  0  0  0  0  0  0
    7.4920    1.0094  -22.7847 F   0  0  0  0  0  0  0  0  0  0  0  0
    5.3743    8.2620  -26.4055 F   0  0  0  0  0  0  0  0  0  0  0  0
    3.8777   -1.7667  -20.1700 H   0  0  0  0  0  0  0  0  0  0  0  0
    5.6741   -2.9067  -21.4501 H   0  0  0  0  0  0  0  0  0  0  0  0
    3.7878    0.7063  -20.0822 H   0  0  0  0  0  0  0  0  0  0  0  0
    7.3644   -1.5695  -22.6791 H   0  0  0  0  0  0  0  0  0  0  0  0
    6.3109    5.3178  -20.5602 H   0  0  0  0  0  0  0  0  0  0  0  0
    7.7453    4.9376  -21.5725 H   0  0  0  0  0  0  0  0  0  0  0  0
    5.8974    2.5837  -23.3740 H   0  0  0  0  0  0  0  0  0  0  0  0
    4.2636    3.1862  -22.9332 H   0  0  0  0  0  0  0  0  0  0  0  0
    7.6355    2.6537  -21.1132 H   0  0  0  0  0  0  0  0  0  0  0  0
    7.0631    9.1094  -22.9241 H   0  0  0  0  0  0  0  0  0  0  0  0
    7.3859    9.2972  -24.6811 H   0  0  0  0  0  0  0  0  0  0  0  0
    5.8016    9.8003  -24.0001 H   0  0  0  0  0  0  0  0  0  0  0  0
    4.6262    3.2461  -16.5858 H   0  0  0  0  0  0  0  0  0  0  0  0
    6.2231    2.4240  -16.5665 H   0  0  0  0  0  0  0  0  0  0  0  0
    6.1361    4.2149  -16.6756 H   0  0  0  0  0  0  0  0  0  0  0  0
    3.1439    4.2974  -27.7677 H   0  0  0  0  0  0  0  0  0  0  0  0
    4.3042    3.6316  -26.5690 H   0  0  0  0  0  0  0  0  0  0  0  0
    2.8219    4.4783  -26.0099 H   0  0  0  0  0  0  0  0  0  0  0  0
    3.4434    3.2057  -20.8872 H   0  0  0  0  0  0  0  0  0  0  0  0
    2.3383    3.4662  -18.9402 H   0  0  0  0  0  0  0  0  0  0  0  0
    3.2237    3.6053  -17.4581 H   0  0  0  0  0  0  0  0  0  0  0  0
  1  2  2  0
  1  3  1  0
  2  4  1  0
  3  5  2  0
  4  6  2  0
  5  6  1  0
 16  5  1  6
  6 28  1  0
  7  8  2  0
  7  9  1  0
  7 29  1  0
  8 17  1  0
  8 20  1  0
  9 21  2  0
  9 27  1  0
 10 20  2  0
 10 21  1  0
 10 22  1  0
 11 15  1  0
 11 23  1  0
 11 26  2  0
 12 23  1  0
 12 24  2  0
 12 25  1  0
 13 15  1  0
 13 22  1  0
 14 16  1  0
 14 22  1  0
 15 16  1  0
 16 24  1  0
 18 23  1  0
 19 27  1  0
  1 30  1  0
  2 31  1  0
  3 32  1  0
  4 33  1  0
 13 34  1  0
 13 35  1  0
 14 36  1  0
 14 37  1  0
 15 38  1  6
 17 39  1  0
 17 40  1  0
 17 41  1  0
 18 42  1  0
 18 43  1  0
 18 44  1  0
 19 45  1  0
 19 46  1  0
 19 47  1  0
 24 48  1  0
 25 49  1  0
 25 50  1  0
M  CHG  1  24   1
M  END
>  <OMEGA_C>  (1) 
CNeTQLFnl78ijaXBWzu0QBL36b8KYavBhkKSQEPPYD7mKKXBsObSQMLniL8K7LDBLTSxQOLJgD+q
nKrBl5jRQEFArD6yo7DBqiKvQJsX60CYUMvBbDnCQPm09UBrbcHBAdSeQKx+wUBSv8zBBcy2QAre
r0BzlrvBAjbaQNdtTEAWfpnByYyMQLwbTkCaDpnBwnTXQNiWk0DtU6rBA0eqQFT9SUCyDrXBkXrY
QJFwTEDTtKXBOgevQGr0IkDq+6nBm8HTQJINEUFAbr/BV/K0QEVuUUBqzYfBd79mQCKIjkCpQNbB
XurFQPa210CuvbnBDAujQCXEpEByysTBMpq7QBSlkEBN67PBUwi0QDiVS0BKnpPBpAeKQCWmQUD8
bKPBsElNQN7xXEDBkZPBCRX9QKwoVECUGpXB7HKKQIvdtkCjOtbBab7vQJ00gT8PR7bBFPqrQDAx
BEFpPtPBvyt4QJUj4r83XKHB+5G1QCoHOsC9mavBRGtyQL7OND9qqKDBxKjrQOjjyL/KbrXBB/PJ
QBArqkBfe6TBytn3QDkBnkBvlKzBvbe8QKNaJUDg/brBYG+IQBbqS0BDd7fBylX0QLLWKUDQ56jB
mwTiQOe/EUGSZLfBR1nsQGvBFEHMcsXBBKe5QA3OHEE3AMDBngmUQIfAT0DHr4TBhyPHQPYiG0A1
iITB2lrEQD3ghkCpZ4XBADZJQHiEiUBAJN7B77uJQNFraEBgjdTBf5o0QBNOj0AzFNDBfGBcQPgq
TUDnGKfBRaYVQGvWXUB4hZfB2VFOQBG9ZkAlqovBZYLXQBpbe7+sIrHBIUC5QIpw6b/JTKzBIzbT
QFSI0j5DTbDBe4KWQPijor+ktKbBI8KwQEyxfj9giarBncyRQGLo/z2MzqXBleSuQHLP6kAwJ8vB
+zPCQHQc9UCOR8HB+caeQO8xwUDsq8zB2Lu2QHEmr0BsibvBnfPZQPsuS0DHdpnBu1eMQCgtUEC0
CpnBOoDXQFXikkCQT6rBJQ2rQPDhR0CFDrXBxCHYQDkYS0AtqqXBRFSuQPxmIkCt3anBk1bSQCPy
EEFLGL/BWLq0QHdQT0AUx4fBjAVoQJ0vjkA/W9bBBqDFQNsG10DGnLnBTimjQNIupEDfxsTBQZG7
QCLlj0AI4bPB4sGzQLvWSkCMmJPBbMOJQGFcREDkbaPBAkBNQBWFYEBSiJPBVtD8QJNTU0BoFZXB
sDKKQF/8tkBzJ9bBG0teQFB0Ez9/aaDBZC+rQARABEEs+dLBoRbyQDvms7/rfrXBVKm8QMtYOcCz
4KzBrYLqQC+Nhj9fHLTBn1J+QBwp9r/+DaPBFjTKQCGpqUCZe6TBLPb3QEMDnUDClazBQrK+QJ8l
I0D0u7rBfZ2JQC6HSEBnzrfBHbzzQAPLJ0Cv4ajBx4PfQHe9EUHD8bbB8X/rQGYEFUED58TBTby3
QB5fHEHr2b/BI9CTQP1KTkBIqYTBH4HGQDsaGEAjm4TBmJnEQEhwhUB+RoXBvQBKQJuYiUCyO97B
rAKLQFdqaECc39TBmmk2QH/TjUD8HNDBHLxcQB2XUkBHKafBBKEVQO3yYkBtepfBz41OQN7baUCs
novBKWiQQIZ4jr+G3afBAAmxQMJe379ls63Bqg6RQLDZjj5BbqbB8GHSQFToe78EJLLBT6WyQBWU
iD/mxKrBV4bTQPSQ0j7PvbDBXE6oQENf5kDJFszBWB+cQCc4u0B4t8zBML+8QHsd9UAGvsLBEIu4
QGgEsEBAq7vBVyraQBhHTUBk5ZjBhIKMQJJ2TkB89ZjBRUzYQINOlkDurqnBxTOtQAxxTUCko7TB
s9HZQE6eUEB/JqXBkAGxQKCGJkBVrqnBcsaBQOxRqkDT8tXB4tSyQA4jSUA3c4fBzvPgQBK8FkE/
WbnBi12kQOs2oUAOgsTB1g/FQPpM2UBHo7rBpi29QGDIkkBbd7PBtFWzQAZSSUDVSJPBZUCLQOaZ
REAjXqPBHCVMQAgcXUD2spPBTpz8QGYqUEADOJTBQXnFQPUzEEF+A8LBRhX0QH18iz8DbLXBD+Cf
QKDKAEF1O9TBX39tQB6B2b/3eKTBxX6wQFJCNMCyxq7B8mdvQEayQT8M+aHBilLrQDSgvL8uqbbB
QcnJQJdirEBX3qPB+6H4QKmFoUCUvavB8MjAQNbCKUAfb7rBfqOLQJqfTUCESrfBxC32QLRfL0Aq
TKjBJaRxQITdiEDkX9TBWVNJQLHKvUDS09bBKa6UQLMFrEACXN3BuJGRQOTERUACmoTBjLjEQBNY
EUDLe4TBmNfBQMkUgkCidoTBQXXlQG8uKEHpnrnBLDXSQL8/EkHYrbHBuBUAQRrBDkFWIbrBbwRg
QB+wUUCSO6fBp38VQFzPX0B72ZfBT2tLQGj1ZECOwovBvtjWQJYpZL/LHrLBGPe2QGtZ3r8uCq7B
tlrUQMxk/D4bY7DBzZiUQFc1mb9nOqjBqdexQFNFiD9GkKrBk42RQFC5Qj6ze6bBvtapQB+m5kBR
L8zBg5WbQOUSvEDSs8zBCpS/QEOQ9EDa78LB7iy4QMPgr0CKt7vBgcbZQBLFTECg9pjBKRCMQJ6+
T0Cf35jBshbYQNLGlUC2yanBHdisQMpiTEAsrrTB2QXZQIK6T0DzNqXB3a6vQB64JkCDlqnBV5qB
QP+1q0DkD9bBgQ2zQEZ9SECIcIfBNuzgQIM9FkEEt7jBVeeiQEHaoUAceMTB3afGQDGT2ECVyrrB
ZkG9QIM7kkBEm7PB/RSzQLqTSUD2RZPBwJyKQFbgR0A1UKPBjyRLQBJ8W0BZhJPBf2f8QIZ9TkD8
XJTB0xnMQDCCD0GudMLBUf1dQMYWIT/p/aDBHm6iQOz+AEH7XdTBUEnxQBUPp7+El7bBkti4QDtf
M8CqXa/BghztQGVakT8mibPBynt4QLA27b9wEKXB4ZfJQPcXrEAaB6TBN5X4QD6roEDOy6vB06HA
QNuJJ0C5ULrBhnmLQMvxTED4erfBLfn0QJ1pLUAUaajBggxwQNpgikCpjtTBarhJQGGlv0DFC9fB
aAiVQHE4rUDoY93BX+KRQGjuRUC8goTBjJ/EQMHrD0DrlYTBC6TCQGJngUDCa4TBdEjpQAhMJ0H/
S7nBiynLQMzIE0Fi6LHB+DH+QBXEDEFZg7fBFsBfQGqXWEAyLqfBRkAUQOKqXUARn5fBr5pKQEXB
YUBGjovB

>  <OMEGA_E>  (1) 
gIcJPUD9Yj0Ax3w+2LGJPg==

>  <OMEGA_NBR>  (1) 
    141741

$$$$
50491832
     RDKit          3D

 47 50  0  0  1  0  0  0  0  0999 V2000
    6.4073    0.2952  -21.8465 C   0  0  0  0  0  0  0  0  0  0  0  0
    6.2102   -1.1430  -21.6269 C   0  0  0  0  0  0  0  0  0  0  0  0
    5.4452    7.3321  -25.4194 C   0  0  0  0  0  0  0  0  0  0  0  0
    5.4622    1.0618  -21.2026 C   0  0  0  0  0  0  0  0  0  0  0  0
    6.0371    7.6688  -24.1840 C   0  0  0  0  0  0  0  0  0  0  0  0
    4.9869    6.0169  -25.6147 C   0  0  0  0  0  0  0  0  0  0  0  0
    5.1303   -1.4077  -20.8212 C   0  0  0  0  0  0  0  0  0  0  0  0
    5.7536    5.4659  -23.4750 C   0  0  0  0  0  0  0  0  0  0  0  0
    6.7290    3.2236  -19.1355 C   0  0  0  0  0  0  0  0  0  0  0  0
    4.2959    3.2611  -19.0909 C   0  0  0  0  0  0  0  0  0  0  0  0
    6.7034    4.6186  -21.2662 C   0  0  0  0  0  0  0  0  0  0  0  0
    5.3823    3.1177  -22.6393 C   0  0  0  0  0  0  0  0  0  0  0  0
    6.7015    3.2089  -20.6671 C   0  0  2  0  0  0  0  0  0  0  0  0
    5.4164    2.5774  -21.2222 C   0  0  2  0  0  0  0  0  0  0  0  0
    6.4658    9.0906  -23.8974 C   0  0  0  0  0  0  0  0  0  0  0  0
    5.5561    3.2714  -16.9276 C   0  0  0  0  0  0  0  0  0  0  0  0
    3.5137    4.4962  -26.7498 C   0  0  0  0  0  0  0  0  0  0  0  0
    6.1763    6.7276  -23.2287 N   0  0  0  0  0  0  0  0  0  0  0  0
    5.1590    5.1082  -24.6350 N   0  0  0  0  0  0  0  0  0  0  0  0
    4.2421    3.0852  -20.4686 N   0  0  0  0  0  0  0  0  0  0  0  0
    5.8999    4.4952  -22.5076 N   0  0  0  0  0  0  0  0  0  0  0  0
    5.5282    3.2038  -18.4064 N   0  0  0  0  0  0  0  0  0  0  0  0
    3.1707    3.4713  -18.4553 N   0  0  0  0  0  0  0  0  0  0  0  0
    7.8123    3.3517  -18.5760 O   0  0  0  0  0  0  0  0  0  0  0  0
    4.3385    5.6885  -26.7933 O   0  0  0  0  0  0  0  0  0  0  0  0
    5.2829    8.2626  -26.3880 F   0  0  0  0  0  0  0  0  0  0  0  0
    4.3278    0.0546  -20.3329 S   0  0  0  0  0  0  0  0  0  0  0  0
    4.6295   -3.0045  -20.3337 Cl  0  0  0  0  0  0  0  0  0  0  0  0
    7.2054    0.7064  -22.4468 H   0  0  0  0  0  0  0  0  0  0  0  0
    6.8439   -1.9075  -22.0516 H   0  0  0  0  0  0  0  0  0  0  0  0
    6.2404    5.3364  -20.5730 H   0  0  0  0  0  0  0  0  0  0  0  0
    7.7292    4.9415  -21.4974 H   0  0  0  0  0  0  0  0  0  0  0  0
    6.0256    2.5197  -23.3016 H   0  0  0  0  0  0  0  0  0  0  0  0
    4.3548    3.1216  -23.0319 H   0  0  0  0  0  0  0  0  0  0  0  0
    7.5725    2.6517  -21.0424 H   0  0  0  0  0  0  0  0  0  0  0  0
    6.8592    9.1560  -22.8722 H   0  0  0  0  0  0  0  0  0  0  0  0
    7.2489    9.3881  -24.6102 H   0  0  0  0  0  0  0  0  0  0  0  0
    5.6008    9.7622  -24.0016 H   0  0  0  0  0  0  0  0  0  0  0  0
    4.5273    3.2439  -16.5393 H   0  0  0  0  0  0  0  0  0  0  0  0
    6.1203    2.4140  -16.5321 H   0  0  0  0  0  0  0  0  0  0  0  0
    6.0419    4.2067  -16.6126 H   0  0  0  0  0  0  0  0  0  0  0  0
    3.0509    4.3338  -27.7344 H   0  0  0  0  0  0  0  0  0  0  0  0
    4.1376    3.6282  -26.4903 H   0  0  0  0  0  0  0  0  0  0  0  0
    2.7271    4.6222  -25.9913 H   0  0  0  0  0  0  0  0  0  0  0  0
    3.3992    3.3041  -20.9600 H   0  0  0  0  0  0  0  0  0  0  0  0
    3.1726    3.5954  -17.4630 H   0  0  0  0  0  0  0  0  0  0  0  0
    2.3094    3.5078  -18.9621 H   0  0  0  0  0  0  0  0  0  0  0  0
  1  2  1  0
  1  4  2  0
  2  7  2  0
  3  5  2  0
  3  6  1  0
  3 26  1  0
 14  4  1  6
  4 27  1  0
  5 15  1  0
  5 18  1  0
  6 19  2  0
  6 25  1  0
  7 27  1  0
  7 28  1  0
  8 18  2  0
  8 19  1  0
  8 21  1  0
  9 13  1  0
  9 22  1  0
  9 24  2  0
 10 20  1  0
 10 22  1  0
 10 23  2  0
 11 13  1  0
 11 21  1  0
 12 14  1  0
 12 21  1  0
 13 14  1  0
 14 20  1  0
 16 22  1  0
 17 25  1  0
  1 29  1  0
  2 30  1  0
 11 31  1  0
 11 32  1  0
 12 33  1  0
 12 34  1  0
 13 35  1  6
 15 36  1  0
 15 37  1  0
 15 38  1  0
 16 39  1  0
 16 40  1  0
 16 41  1  0
 17 42  1  0
 17 43  1  0
 17 44  1  0
 20 45  1  0
 23 46  1  0
 23 47  1  0
M  CHG  1  23   1
M  END
>  <OMEGA_C>  (2) 
ZQjNQHwplz6Zxa7BB7rGQFNPkr/XA63BXD+uQM6g6kDZWsvBg8quQODnhz/9nqnBPjDBQJpm9UDG
eMHBv5SfQFKKwEDP6szBZCukQEAwtL/IkabBTB24QOXorkC5zLvBxFPXQIhPTkCUFZnB3XeJQP+1
UEAVupjBOoLWQGXLk0AoIarBGTysQN2HR0BTHbXBlXLWQEpfTUA6VqXB21KtQFnzJEAHx6nBgufO
QCFzEUHYLb/Bw8uxQCpfUUDEa4fBwOBgQCHhj0CS/9XBMaTFQHlI10BK1LnBPhalQGZ2o0CBFMXB
LL+HQHFzRUCjv6PB3cu8QE3Yj0CpD7TBXOewQHMLTUBSQJPBgexKQHYqXkB0pJPBF/75QMGBVkCT
m5TB+dSKQJAItkDDWNbB2A2pQMQzBEGKGtPB/HyKQM3RXz20qaLBOyWUQIRKQMBRq6LBnJLmQHbX
ND/5krPBVQHbQBwp9L/AabDBsrHHQH7DqkCWlaTBmlX3QOsgnkCX+qvBw9HAQDdCIUCmabrBi1qL
QA/JR0BvQbjBp1HyQB61KUDaVqjBmH7bQMx+EkFW+rbBTffnQJo1FkG94cTBJjqzQBgyHEEtA8DB
rt+QQJCbT0CKUITBVtnDQER+GkCtQYTBBFfBQIudhkCD5oTBgEFDQCuuikD4393Bc2eEQPE0aEA7
7NPBnIguQAzpk0Ah7s/BrYtZQOh1U0AqrqfBFAtLQNQbZkBKtIvBdc0TQOl/YEB1spfBCI2UQOye
Gj5oTKXBp7KgQBc6n7+uYafBUmWyQG9S6EDJosvB8W+vQCD2hT8PQ6rBfp3FQJFL80Buy8HBKDKg
QMtov0ChxszBxA/EQCVErL/K2a3BrCu2QGYJr0BPYbvB5djWQOCdTkBP/5jBYBqJQCDXUkAZfZjB
86nWQFfXkkAQMarBCLapQKIaSUC6xLTBmaLVQAzrS0AzQKXBV0CsQEqWI0A5oqnBRNzWQEzvD0He
6L/BhgmyQND5WUAdTofBM3tXQGwMk0BIW9XBDAPHQLJk1kDgzbnBFpiiQHyRo0DilcTBp56GQMQ3
QUBEXaPBxMa4QH7SkED/ZLPBiKmwQNBeUEDtFpPBwFZLQKjuZkAmfZPBDpT5QCIEWUC2n5TBxJWL
QFmktEDKMtbBVkawQH9yAkFAv9PBeBrXQBA1Wz6ikbHBVIrbQOgaNsAvybHBaSNzQG6v4T4wbKDB
qrOPQMYTBsAzLqTBj+bLQNvgqkBpWqTBZCz3QNLNmkCH6qzBpoe+QCLPJUB2U7rBkZyIQB31R0Br
wrfBZkDxQLgZJ0CiLqjBKPDiQPMvEUHpqrfBSRDxQOwkE0Huj8XBIiC9QB+xG0FSIcHBiTyRQEj3
WUCjHITBUBTEQIVmJEA/zoPBMNTBQClZi0CyPoXB0v06QJ0ljUBzRN3Bov11QAAca0Cyb9LBTyYl
QEH1nEB4uc/BgihVQBm2SEB1GqfB+bFMQN3odEAPr4vBS98TQMVLaEDxeZfB/ybOQFTFwT5JLq/B
EYvFQP/Oh7+2iq7BzgCrQISu5UCleszBIPGvQBBkkD813KnBhlCdQPDzukCP+szBtbW+QFB29ECS
CsPBHIChQOLqq78yrqjBLtm4QP6gr0Db1bvBNUnXQCuzTkDtmZjB3mmJQD3bT0Abo5jBcmPXQKBy
lkAEnanBfoGuQAfHS0B1wLTBxKDXQB9fUUCX6KTBMvWuQHf8KEAgjqnBp4eCQIimqkDeMtbBs+Gv
QPOsQ0CnLofBGvreQJabFkFi67jBUHCkQKoNoUCyqsTB4bHFQA7T2EDJ0LrBTdmIQJ/aSED3saPB
IOS9QCY9kkAxqbPBP02wQBfkSEDAAJPBOPpJQBffW0BsrpPBrI35QH3GUkD/2pPBj3DIQNvJD0Hp
Y8LBdFCkQItHAEGQy9TBDB2JQMBA2D3WBqTBA7iOQIrHPMDHC6bBdy3pQHuaTT/2W7PBjVTZQN4+
6L90Q7LB/xTIQKkLrUBpDqTBsCP4QC9EoUC4XqvBH/bDQHyLJkDg8rnBFOaNQO2RSkAxELjB7tXz
QEi0LkCu5afBw4lwQA6jiUAFi9TBv2dMQNgtv0BCLNfBWKOVQOZJq0Bnlt3B2qCOQJORP0CjV4TB
lJfBQMpyCkC+mYTBuR+/QBoifUC/0IPBQtXkQFnxJ0E+VbnBhZHLQKn4EkGGzrHB8Ln9QGYbDkEb
ZLjBQRhdQLFpWUA4wafBRqNIQCNTYEDWs4vB8a4TQACYYEAk4JfBuu6SQBQ6XT6CnKbB0++cQHrZ
lb+3jKnBnqarQA535EDDWczBqTexQHg6jT+dQqrBcgWcQJFcukC9pszBp6vAQLTW8kBaDMPBQOXB
QHbmor8vb6/BZ0i4QJbPrkDomLvBmqrWQFXpTkD2ZZjBIuaIQAqiUkALf5jBIy/XQKCalUBhf6nB
IUatQM9DS0CIebTBEhrXQD8PUEAMtaTB34uuQNIGJ0AnX6nB4yt+QD8Fq0BekdXBQjGvQDAET0A2
9IbBXoHlQLFAFUGKiLnBNpGiQICroEBMR8TBnS/HQP5W10CYybrBOhaIQAX5RECTdKPBwlm8QPbj
kUAVULPBEKavQAsMTUDGy5LB6axJQLmDZUDctJPBFub4QPvQU0A+ppPBkz/LQIbfDkE3dsLBvXCl
QAZG/0Ans9TBP9TZQKD2iz7ORLHBL4/WQK3BMMDQc7TByO5tQE2aAT/jGKLBjGOJQJwVAcAKVKfB
4iDJQGmorEAP2qPBIuv3QDOln0D3iavBRoTCQKT2JkCy07nBcHWMQPP3SUCSp7fBI2HzQMobLUD3
mafBPBlmQBXXikB7p9PBK+hHQPgtwUC8bdbBejeRQKnlqUD+Gt3B3OuNQFkaTUBAF4TB7rLAQB9G
F0B61YPBNKG+QHgRhUAoI4TBg6jrQH6PJkFE9rnBFdPUQECEEUFCA7LBoAkCQX6LDEE1z7nB6OJZ
QDKIT0BAe6fBJNRIQLtYcECW0ovB0XQTQEEZaUDv7pfB

>  <OMEGA_E>  (2) 
MInxPdAKPT7gwp0+yGW+Pg==

>  <OMEGA_NBR>  (2) 
     13729

$$$$
220581
     RDKit          3D

 54 57  0  0  1  0  0  0  0  0999 V2000
    5.9572   -1.2784  -21.5525 C   0  0  0  0  0  0  0  0  0  0  0  0
    4.9635   -0.7455  -20.7121 C   0  0  0  0  0  0  0  0  0  0  0  0
    6.7642   -0.4181  -22.3180 C   0  0  0  0  0  0  0  0  0  0  0  0
    4.7768    0.6475  -20.6333 C   0  0  0  0  0  0  0  0  0  0  0  0
    6.5795    0.9740  -22.2447 C   0  0  0  0  0  0  0  0  0  0  0  0
    5.5801    1.5290  -21.4064 C   0  0  0  0  0  0  0  0  0  0  0  0
    6.2912    8.8356  -23.9557 C   0  0  0  0  0  0  0  0  0  0  0  0
    5.8353    7.7419  -24.7047 C   0  0  0  0  0  0  0  0  0  0  0  0
    6.7157    8.6222  -22.6467 C   0  0  0  0  0  0  0  0  0  0  0  0
    6.2024    6.3484  -22.8485 C   0  0  0  0  0  0  0  0  0  0  0  0
    6.7981    3.3250  -19.0150 C   0  0  0  0  0  0  0  0  0  0  0  0
    4.3749    3.5218  -19.0598 C   0  0  0  0  0  0  0  0  0  0  0  0
    6.9314    4.9661  -20.8946 C   0  0  0  0  0  0  0  0  0  0  0  0
    5.5019    3.8751  -22.5284 C   0  0  0  0  0  0  0  0  0  0  0  0
    6.8204    3.5104  -20.5280 C   0  0  2  0  0  0  0  0  0  0  0  0
    5.5172    3.0556  -21.2047 C   0  0  2  0  0  0  0  0  0  0  0  0
    8.8972   10.6078  -20.4702 C   0  0  0  0  0  0  0  0  0  0  0  0
    5.5435    3.2687  -16.8586 C   0  0  0  0  0  0  0  0  0  0  0  0
    4.8482    6.9462  -26.7327 C   0  0  0  0  0  0  0  0  0  0  0  0
    8.4688    9.3726  -21.2526 C   0  0  0  0  0  0  0  0  0  0  0  0
    5.7708    6.5030  -24.1305 N   0  0  0  0  0  0  0  0  0  0  0  0
    6.6645    7.3905  -22.1213 N   0  0  0  0  0  0  0  0  0  0  0  0
    6.2901    5.1053  -22.2249 N   0  0  0  0  0  0  0  0  0  0  0  0
    5.5723    3.3219  -18.3382 N   0  0  0  0  0  0  0  0  0  0  0  0
    4.3417    3.4754  -20.3754 N   0  0  0  0  0  0  0  0  0  0  0  0
    3.1761    3.7436  -18.3933 N   0  0  0  0  0  0  0  0  0  0  0  0
    7.8624    3.3683  -18.4078 O   0  0  0  0  0  0  0  0  0  0  0  0
    5.5435    7.9863  -26.0321 O   0  0  0  0  0  0  0  0  0  0  0  0
    7.2314    9.6692  -21.9284 O   0  0  0  0  0  0  0  0  0  0  0  0
    6.3685   10.0706  -24.5048 F   0  0  0  0  0  0  0  0  0  0  0  0
    6.1004   -2.3473  -21.6099 H   0  0  0  0  0  0  0  0  0  0  0  0
    4.3422   -1.4065  -20.1260 H   0  0  0  0  0  0  0  0  0  0  0  0
    7.5274   -0.8273  -22.9634 H   0  0  0  0  0  0  0  0  0  0  0  0
    4.0168    1.0499  -19.9799 H   0  0  0  0  0  0  0  0  0  0  0  0
    7.2060    1.6275  -22.8336 H   0  0  0  0  0  0  0  0  0  0  0  0
    6.4093    5.5876  -20.1522 H   0  0  0  0  0  0  0  0  0  0  0  0
    7.9881    5.2671  -20.9469 H   0  0  0  0  0  0  0  0  0  0  0  0
    5.9725    3.3046  -23.3426 H   0  0  0  0  0  0  0  0  0  0  0  0
    4.4712    4.1353  -22.8110 H   0  0  0  0  0  0  0  0  0  0  0  0
    7.6672    2.9528  -20.9548 H   0  0  0  0  0  0  0  0  0  0  0  0
    9.8420   10.4012  -19.9461 H   0  0  0  0  0  0  0  0  0  0  0  0
    9.0392   11.4499  -21.1636 H   0  0  0  0  0  0  0  0  0  0  0  0
    8.1193   10.8647  -19.7360 H   0  0  0  0  0  0  0  0  0  0  0  0
    4.4998    3.2743  -16.5112 H   0  0  0  0  0  0  0  0  0  0  0  0
    6.0391    2.3487  -16.5152 H   0  0  0  0  0  0  0  0  0  0  0  0
    6.0705    4.1435  -16.4500 H   0  0  0  0  0  0  0  0  0  0  0  0
    4.6746    7.2571  -27.7735 H   0  0  0  0  0  0  0  0  0  0  0  0
    5.4537    6.0280  -26.7206 H   0  0  0  0  0  0  0  0  0  0  0  0
    3.8828    6.7553  -26.2413 H   0  0  0  0  0  0  0  0  0  0  0  0
    9.2423    9.1135  -21.9905 H   0  0  0  0  0  0  0  0  0  0  0  0
    8.3224    8.5283  -20.5630 H   0  0  0  0  0  0  0  0  0  0  0  0
    3.4949    3.7316  -20.8415 H   0  0  0  0  0  0  0  0  0  0  0  0
    2.3297    3.8612  -18.9126 H   0  0  0  0  0  0  0  0  0  0  0  0
    3.1598    3.7856  -17.3943 H   0  0  0  0  0  0  0  0  0  0  0  0
  1  2  2  0
  1  3  1  0
  2  4  1  0
  3  5  2  0
  4  6  2  0
  5  6  1  0
 16  6  1  6
  7  8  2  0
  7  9  1  0
  7 30  1  0
  8 21  1  0
  8 28  1  0
  9 22  2  0
  9 29  1  0
 10 21  2  0
 10 22  1  0
 10 23  1  0
 11 15  1  0
 11 24  1  0
 11 27  2  0
 12 24  1  0
 12 25  2  0
 12 26  1  0
 13 15  1  0
 13 23  1  0
 14 16  1  0
 14 23  1  0
 15 16  1  0
 16 25  1  0
 17 20  1  0
 18 24  1  0
 19 28  1  0
 20 29  1  0
  1 31  1  0
  2 32  1  0
  3 33  1  0
  4 34  1  0
  5 35  1  0
 13 36  1  0
 13 37  1  0
 14 38  1  0
 14 39  1  0
 15 40  1  6
 17 41  1  0
 17 42  1  0
 17 43  1  0
 18 44  1  0
 18 45  1  0
 18 46  1  0
 19 47  1  0
 19 48  1  0
 19 49  1  0
 20 50  1  0
 20 51  1  0
 25 52  1  0
 26 53  1  0
 26 54  1  0
M  CHG  1  25   1
M  END
>  <OMEGA_C>  (3) 
daG+QIKho7+Ia6zBsdSeQK/aPr9tsqXBnHTYQF4O1r5Ci7LBZtuYQIPFJT8CEaXBlIvSQAdVeT8c
9bHBgpCyQNy0wz9EQKvBoFHJQKteDUE0pb/B87q6QPO990BPo8XBS+fWQKP0CUFlLLXBxHnGQDYm
y0DDybbBzYnZQNrMVEC4HpjBbP+LQM9lYUBzepjBpc3dQDXqnkA1KKfB2g+wQD4CeEAQOrTBX0Da
QNypYEBmOaTBH42wQASPQ0BEo6nByloOQb25KUH6wqPBOmSxQMoxUUBl3obBjCSbQIhH3kCS3NXB
MYAHQVD2FUFVBarBqaq4QNAY0EBYC8HBz0PVQAl/7EBi+LDBJ0jJQAZfo0CfzLHBYFCyQHKZVECk
tJLBde+KQIBtXkC5AKPBjkVLQIKXb0BxJZPB3Jj7QFKSV0AqQ5PBtmSxQBSQ/0CrQdDBT2fnQDG1
GkFMba/B/srLQDchIUHHCcTBnTbDQPw5FsAc4azBUfOKQDIHtL/3AaHBE+DwQJvIU78jtbfBQYmA
QPVhhj/m1p/BrJfmQKhS0D8hq7bBCBnNQLvNskDAN6HBSp7/QDmMqEApk6fB6x6/QEF/U0C/vbrB
ChSPQIFUhEDofLbBUln1QEn7PEBXo6fBrngdQStrJkGzkZ/BraAQQcMyN0EFT6nB2ugBQaDVLUFV
453BP/6PQCaOUUD/FoTBe0DBQHBQFkATH4TBhEHCQIWXhECnmYPBrJaVQGg66EAVMN7ByYSuQArl
wEDEw9XBDH94QLAr2EA77tHBbeATQeXQEUGi7K/BmygFQcJzCEHygKTBq6xfQHLSbkBeu6bBDBkV
QF8ed0DzTJfBBTpKQNxHckCGJ4vBvanBQC8vob9npqzBky7aQOSUv7784LLBvbehQFIqQr+Oz6XB
wfPSQHBdgT9PP7LB1GSaQJ7QID9aJKXB3fSyQC5hxD8QY6vBHv7LQKsHDUHNCMDBKTa8QID19kBA
z8XBeEbYQGgECkG8bLXBA7fEQAwJzECjh7bBcULZQEgiVUD1GJjBdZ+LQJg7YEBrZ5jB3hHdQB2D
n0BvB6fBtjyvQNr1eEBuFbTBQb7ZQCB2YUBPLqTBiCiwQP6IQ0DjmqnBCUsQQXABKUGmX6TB3oKx
QAJ+VED5y4bBasKfQADX2kDEI9bBTj8JQUbdFUGYCqvBsTK4QKYT0EDb58DBH1bUQM5s7UB/5LDB
qyPFQF4UpUAbLLHBzCOyQPpZVUCDpJLB6mCKQGx6XEBV7KLBVWBKQOZKbUAGEJPBiGz7QMTbV0DU
SJPBjOWyQIXo/UDueNDBIp3pQOGrGkGpyq/BzoTQQPJsIEG6t8TBl1rHQJuqFMDRHa3BoZzyQCRX
Qr9QKLjB78OOQBQ0uL/ZD6HB3/3lQD2C1z8yC7fBauyBQArKgD/F15/BvMnOQPBHs0D3rqDBf8n+
QPmdqEB8IKjBDYvAQHbIV0AKh7rBGhuOQHaggkDHoLbBYPz0QJ9uPkDBoKfBAecfQcWYJUHHrqDB
PqsRQdssN0E/jKnBlmQEQT0TLEEJE57Bpi2QQKjPVEAW+IPBHLnBQEyJGkBC4IPBTC3CQMy+hkCF
voPBAOmZQJw95EA4ft7B4Ha1QIEjv0Dv8tXBRTyBQPNA0kCVUdLBOBYVQcHDEkGSXbHBkM8HQSOq
B0Fb5KXBAeJdQP/yakAfn6bBZ/oTQFBwc0DkNJfBbnFJQAeMcEDkEovBXLS5QGiLob9VcK3BIr/W
QJYK1L7ctrLBBPuXQDWSNr/Wa6fB2mrSQAhQez/z4bHBZKCTQDnpLj8NhqbBujOxQJ2Qxj8mpqvB
ogvMQGuVC0E6r8DB4GrWQE63CkFZyLXBNPzAQObs8ECk68XB4KbFQIRtzEDGvrXBTD3aQJ01UkBb
DpjBxKOMQHLHX0BQT5jBrm7fQCYmn0BquKbBxluxQDzGekBlwrPB4NDaQFL/X0CND6TB1tCwQCJd
REAOh6nB4JhqQJqY00DXc9PBrqeyQK6UUEDLwobBWuUHQZRLG0FBnKzBq/2SQLNs+kBXrdTBgmrT
QKzw70D9g7DB1ke9QIw2zEAXWMDBWnTDQAbDpkAGBrDB2CWzQEoOU0BHmJLBfnmLQLxUX0AU1aLB
uFRMQPJGa0An75LBPnz8QLJXU0DLRZPBjpzkQErdHEF6prDBMCu9QJpN8EAb19DBxGnOQFJAHkH4
IcbBqku9QABeFcAIAq7B12vwQC/wVb+2abfB0V6BQEWsrr/HeqPB1Z/oQE8m0D8MCbbBwzdzQLeH
jD9956HByzPVQGvrskBN55/BH24AQYSspkBZvKjBXtLFQK+QXUAw67nBydeQQC2sgUCH9LbBy6H1
QNswPEBQl6fBLV4qQAXL20BzatbBiiCCQNGZuEDWGdjBN6BmQD6PykBB9srBSF2RQE2uUUDC54PB
YGPCQPSqFUCi+oPBmNvDQMVGhECKmYPBu08MQcVfKkErpajBE+EIQf8SDkGP0qbBYfISQX88GEFW
SbPBStiUQMW0AUE8LN3B3AeGQHyvCkGmCNDBTSNhQMS9cUBFgKbBZQcWQAfNckD4D5fBODxLQP0H
bECY74rBari3QNKflL8Jh7HBSq7ZQJjSnr7xbLTBA5OUQLfsJb9u0KvBopvYQJ7Fhj+dlbHBOE6T
QLOsNj8l+6jBMXm1QI/Iyj/qx6vBuObHQEwyC0GjWsHBCL+0QPjL8EA/O8XBT5HaQH3XCkGvIrfB
wtbHQBB9zUCgbbXB+uLYQIJ5U0DKmpbBfg2LQBisWUBGD5jBW23eQPBcokDnEKXBY3a1QP1BfUBe
9rLB7SDcQPtoZECVpKLB8im0QNJzRUD21KjBPMOgQC9zJEFnYKvBus+sQJ/7TEBP54XBuadoQFqp
+UA0287BqujRQGEkJkHg8KnBZxa1QHD3zEAGOb/B0UjaQDY98UDXTrHB6NrHQAoZqEAca6/Bj1+w
QHwvUECtvZHB1KuMQDJJW0DBl6LBjdRFQL4sYUDZTJPBMfT5QB/uUUACT5HBGo+hQDpe8EDZIM/B
lg3qQC2rHUGW67LBpufGQIOGHUFUIsfBrKS4QHo2DcDgr7PBnJz0QND0M7/j1bjBtAJ1QJh/pr/Q
mKnBeMXyQI+J2T872LPBlTpwQP7ejD+Fo6TBgHDOQEPKtEDruJ7BSPH/QOLFrEDxvqXB69nJQBaf
X0DxGrnBFgiVQA4+g0DwLrbBub34QF+AREC73KXBEK2QQDElK0EiTaTBUgiXQOdzLUFEibLBK7GX
QEmME0FkUKzBgdqKQAuuSkC8moPBuTO9QKSDE0Bg5YLBO8C7QN8wg0ANcILB4rJOQHK5+EBvCNfB
K8tHQFiq4UAK5snBfIReQAvXDEFNbcvBEFTaQG4cN0Hu7ajB6fzaQNA0HUEOtaLBp5NkQA3fa0AX
nqbB6pcRQIV5Z0DR2pfBd3JAQJJCYEBRVIvB4kG2QORjlb81cbHB/jDdQNnF+76CzK/BjlGPQEgM
8b6CfbDBt0zdQFbRXz8gE63Br0KPQIVVZT9Iw63B/zi2QCJ5yj9CvqvBqKbGQOZWC0GHSsHBnpbZ
QJP0CkFXErfBszuzQHMV8UAlKsXBzlrHQG2uzUAbbbXB++rYQJlKVUBjipbBKR+LQHITWUBaMZjB
eqDcQEC8o0AA2qTBjri2QE1DfEDhBrPBP1rcQDxdZ0DehaLBLTu1QMRnRUC72ajBNZqRQOUFp0A4
59TBYEmsQBWATkCU8YXBhQPQQJBrKUHGJazBCrJ8QMCJ0UB75dDBbavZQH5r8UDJULHBJBy0QEo9
zUBfHb/BJxfIQFo1qEBpe6/BXUKwQKz2UECVxZHBvyiNQL2lWUBuuaLBF51FQD7dYECIh5PB1dr5
QPXNU0BsMpHBMC3sQC8XHUFn6rLB+RufQEjc8UBQDM/BBCvGQCuSHUHSJsfBx0C2QJb1DcBMbrPB
Zhn7QJvtgr8vobDBENhiQAEwfL9w2rHB4lz7QEPWsT+S/KvBGohiQPm+tj+RM63BdUrKQGIrtUDK
u57Bbp/9QPz2r0B4EaXBsdnLQAD1XkBiCbnB1HOWQKD6gUCdaLbB1bf5QOUKSkDcs6XBIJpvQOai
j0ADMNbBy6GiQO+LrEDgetzBax+oQJ6OmkCW5s7B90SKQE8yS0A7uIPB3g29QDjTFUAf1YLBZpq6
QMBThECkgoLB8hfhQFGXN0GcJanBkeazQPeILkHhyLDBEJPFQAKHH0FxWqXBSXpPQIyW3UBb7tbB
i3VaQDuZy0ARWsnB62plQElJaECg1qbBwawRQH+YZkAFJpjBxLA/QMq4YEBTkIvB

>  <OMEGA_E>  (3) 
VImAPsB3gT4UMJY+wArePiC17T4=

>  <OMEGA_NBR>  (3) 
      7772

$$$$
26899
     RDKit          3D

 50 53  0  0  1  0  0  0  0  0999 V2000
    6.6220   -1.0551  -22.0978 C   0  0  0  0  0  0  0  0  0  0  0  0
    5.6480   -1.8155  -21.4296 C   0  0  0  0  0  0  0  0  0  0  0  0
    4.5770    0.2291  -20.6596 C   0  0  0  0  0  0  0  0  0  0  0  0
    5.5530    1.0166  -21.3215 C   0  0  0  0  0  0  0  0  0  0  0  0
    6.5832    0.3508  -22.0532 C   0  0  0  0  0  0  0  0  0  0  0  0
    5.5070    7.3314  -25.4384 C   0  0  0  0  0  0  0  0  0  0  0  0
    4.6263   -1.1707  -20.7136 C   0  0  0  0  0  0  0  0  0  0  0  0
    6.0927    7.6731  -24.2008 C   0  0  0  0  0  0  0  0  0  0  0  0
    4.9778    6.0385  -25.6032 C   0  0  0  0  0  0  0  0  0  0  0  0
    5.6965    5.5077  -23.4428 C   0  0  0  0  0  0  0  0  0  0  0  0
    6.7982    3.1931  -19.1675 C   0  0  0  0  0  0  0  0  0  0  0  0
    4.3731    3.2148  -19.0804 C   0  0  0  0  0  0  0  0  0  0  0  0
    6.6850    4.6426  -21.2598 C   0  0  0  0  0  0  0  0  0  0  0  0
    5.3387    3.1605  -22.6392 C   0  0  0  0  0  0  0  0  0  0  0  0
    6.7403    3.2194  -20.6985 C   0  0  2  0  0  0  0  0  0  0  0  0
    5.4646    2.5531  -21.2550 C   0  0  2  0  0  0  0  0  0  0  0  0
    6.6004    9.0743  -23.9478 C   0  0  0  0  0  0  0  0  0  0  0  0
    5.6620    3.2107  -16.9382 C   0  0  0  0  0  0  0  0  0  0  0  0
    3.5709    4.4727  -26.7675 C   0  0  0  0  0  0  0  0  0  0  0  0
    6.1731    6.7527  -23.2202 N   0  0  0  0  0  0  0  0  0  0  0  0
    5.0861    5.1531  -24.5950 N   0  0  0  0  0  0  0  0  0  0  0  0
    4.2974    3.0269  -20.4547 N   0  0  0  0  0  0  0  0  0  0  0  0
    5.8408    4.5375  -22.4780 N   0  0  0  0  0  0  0  0  0  0  0  0
    5.6132    3.1600  -18.4169 N   0  0  0  0  0  0  0  0  0  0  0  0
    3.2607    3.4482  -18.4303 N   0  0  0  0  0  0  0  0  0  0  0  0
    7.8942    3.2854  -18.6260 O   0  0  0  0  0  0  0  0  0  0  0  0
    4.3351    5.7066  -26.7847 O   0  0  0  0  0  0  0  0  0  0  0  0
    7.5443    1.0271  -22.7277 F   0  0  0  0  0  0  0  0  0  0  0  0
    5.4224    8.2365  -26.4399 F   0  0  0  0  0  0  0  0  0  0  0  0
    3.4089   -2.1039  -19.8872 Cl  0  0  0  0  0  0  0  0  0  0  0  0
    7.4057   -1.5529  -22.6494 H   0  0  0  0  0  0  0  0  0  0  0  0
    5.6849   -2.8942  -21.4663 H   0  0  0  0  0  0  0  0  0  0  0  0
    3.7857    0.7140  -20.1071 H   0  0  0  0  0  0  0  0  0  0  0  0
    6.2297    5.3292  -20.5309 H   0  0  0  0  0  0  0  0  0  0  0  0
    7.6940    4.9973  -21.5169 H   0  0  0  0  0  0  0  0  0  0  0  0
    5.9499    2.6051  -23.3658 H   0  0  0  0  0  0  0  0  0  0  0  0
    4.2895    3.1642  -22.9694 H   0  0  0  0  0  0  0  0  0  0  0  0
    7.6229    2.7030  -21.1040 H   0  0  0  0  0  0  0  0  0  0  0  0
    6.9912    9.1436  -22.9219 H   0  0  0  0  0  0  0  0  0  0  0  0
    7.4033    9.3079  -24.6625 H   0  0  0  0  0  0  0  0  0  0  0  0
    5.7761    9.7914  -24.0752 H   0  0  0  0  0  0  0  0  0  0  0  0
    4.6390    3.1741  -16.5355 H   0  0  0  0  0  0  0  0  0  0  0  0
    6.2354    2.3512  -16.5607 H   0  0  0  0  0  0  0  0  0  0  0  0
    6.1483    4.1444  -16.6193 H   0  0  0  0  0  0  0  0  0  0  0  0
    3.1085    4.3135  -27.7528 H   0  0  0  0  0  0  0  0  0  0  0  0
    4.2397    3.6306  -26.5361 H   0  0  0  0  0  0  0  0  0  0  0  0
    2.7854    4.5388  -26.0003 H   0  0  0  0  0  0  0  0  0  0  0  0
    3.4337    3.2149  -20.9225 H   0  0  0  0  0  0  0  0  0  0  0  0
    3.2805    3.5922  -17.4410 H   0  0  0  0  0  0  0  0  0  0  0  0
    2.3913    3.4825  -18.9233 H   0  0  0  0  0  0  0  0  0  0  0  0
  1  2  2  0
  1  5  1  0
  2  7  1  0
  3  4  1  0
  3  7  2  0
  4  5  2  0
 16  4  1  6
  5 28  1  0
  6  8  2  0
  6  9  1  0
  6 29  1  0
  7 30  1  0
  8 17  1  0
  8 20  1  0
  9 21  2  0
  9 27  1  0
 10 20  2  0
 10 21  1  0
 10 23  1  0
 11 15  1  0
 11 24  1  0
 11 26  2  0
 12 22  1  0
 12 24  1  0
 12 25  2  0
 13 15  1  0
 13 23  1  0
 14 16  1  0
 14 23  1  0
 15 16  1  0
 16 22  1  0
 18 24  1  0
 19 27  1  0
  1 31  1  0
  2 32  1  0
  3 33  1  0
 13 34  1  0
 13 35  1  0
 14 36  1  0
 14 37  1  0
 15 38  1  6
 17 39  1  0
 17 40  1  0
 17 41  1  0
 18 42  1  0
 18 43  1  0
 18 44  1  0
 19 45  1  0
 19 46  1  0
 19 47  1  0
 22 48  1  0
 25 49  1  0
 25 50  1  0
M  CHG  1  25   1
M  END
>  <OMEGA_C>  (4) 
GefTQMEOh79EyLDBgLy0QGFi6L+6b6vBYnaSQC6kaj7pRqXBDbKxQPEfgj9ykqrBNKnSQI6Xsz7u
bLDBNDmwQHia6kDOgcvBZQqUQHbZlb9dtaXBevfCQMGJ9UA9m8HB6UmfQFc7wUBO08zBp0m2QK8+
sEDbirvBJYvZQLxbTEAaV5nBcvCLQES/TUCTpJjBcuvVQGCQlEAGFKrB5NaqQJxFSkAJHbXBgLDX
QLsKTkB3lqXBYd6uQKBmI0BLCqrBgjbTQG0wEUENlb/BJi+1QKZ7TUBfgYfBK4pkQLogj0DwI9bB
HYrFQNIV2ED0wrnBGsGiQOnlpECbwsTB6IOJQE64QUBOo6PBPOi6QGYzkUDx0rPBKJ+zQMs9SkDD
VZPBPq9QQIKvXEBVcZPBqJ38QLxDUkAdApXBdrmKQB6ctkAoR9bBJGvxQGp4gz9a0rXBXIStQMvI
A0HxhNPBDSxaQJSlBsD9GJ/B4vvsQEfFxr8KMrXBeeq1QFM7OcASu6vBWUlyQADHNj9O26DBrlnH
QBOJqkBDP6TBVDX2QH7pn0CkIqzBtmW+QA+6JkAt7brBgUOJQL6BSkBuwbfBce7zQHb+LED31KjB
KrjfQDxMEkEGYLfBEOjsQB7tFEG0TMXBjNW4QK+pHEH6mcDBqHKUQI8kS0DGSITBdojHQKV5FkBW
fITBob7EQOaehEA+9ITBPPFGQD8IikDKBd7BWauHQIZbaEDzSdTBo0QyQLQ9kUCoANDBw8FbQOLA
TUAuYafB2PNRQGLmZUATh4vBQQsZQE7hXkDjYpfB+RXTQK4kd78TVbLBf7CxQJlS3r+JCa7BmPyQ
QPQZjD57vKbBY4myQM8NiT/e6qrBpsTTQIDJ2z6n3rDBGKirQFya5UAubczBOqCQQAKSjr+TSajB
TqycQIxIu0AMwczBiNDAQCYY9EB7JMPB2vy3QHZDsEC/l7vBnWDZQApPTUBazZjBWsOLQIgRTECt
dJjBhjHXQO6ClkDakanBlIasQOYmTkCJpLTBkK/YQHr2UEAdF6XB7DSwQHp0JkB5wanB19uBQE7f
qkDB9NXBaqGzQHg6RUAaK4fBjKvjQCTzFUEXNrnBwB+jQEjDoUALXMTBDtDGQILR2EDpzLrBv1eK
QDRzQ0AmeqPBUN+7QANCk0CwUrPBNQOzQN7DRkB8AJPBDIlPQNgQWkDRYpPBuN77QBjTVEBAOpTB
8LnNQEI3D0FGzcLBQin0QFuCjz8yfrXBISelQOoeAEFRy9TBoNZMQN2QA8BqMKPBGmbsQHQRub8R
ybbBgG+xQO+yM8CXJ6/BT8RuQMHGPT/JTKLBP9zIQNiGrEBhtqPBt4T3QDKsoUCmp6vBxofAQEt8
K0CTcbrBdw2LQI2xTUBXXbfBay71QBQ4MEAkPqjBTA1uQOYgikBPMtTBKshLQPzKv0D3DNfBTCiV
QN3EqkDIUN3Bx7KSQAnhP0AzIoTBV3rGQCQFDkCzaITByi/CQJBSgECSKYTBWULsQMf2JkFt47nB
L5TOQM2mE0GgQrLBZnIAQShcDEHwLLjBQEheQEgRUUDlVKfBEINPQBZHYUDcb4vBAZUYQAuLXUCl
dpfBKtSGQCyhl79qB6rBuaStQEFH77/gfqvBs6LTQFklhD7+/qvBkfesQI9OeD8QK6rBmhSGQG7K
Yz6Kf6nBS2KnQDX77UDYqsrBnvXTQIu/kr/Bj6zBOKqvQORb+EDj4b/BoyOlQPt4wkAbms3BR4ey
QKd5r0AGzLvBB3TcQB+ZTEDG7pnBDOSOQPcaUEAU4JfBxwHTQJz/k0CShqrBI6KnQJNXRkAiHLXB
gMTWQDPkTEAoHqbBAqusQJxOIUBk0anBkVixQBFIE0F4QLzBpV29QKouX0DTnIfBfaOdQOFZikD4
r9rBVpS1QBjc2ECfqbjBJCyqQM0FpEDjA8bBPHmJQBndQUAAzaLBC1S4QISaj0DNQ7TBLDe4QBEQ
UEAoQ5PBhhtZQHr9XkAlHZLBvGkAQVtYUkCeTJbBAf6dQNS/t0CyN9jBMOA+QKj7Uj8zeKjBC8Kh
QNqRBkGbEtLBaRYCQRXF/r/hp67Bx7JSQJfW3r+XTanBGweuQA+2PMCLzavBjjXxQJO7TT8a96zB
22bDQBEjqUBwq6TBqcPyQL3aoEB8i6zBnmq6QHgfIUA/67rB7sqFQFabRkAWiLfB1CPyQJ11LEAQ
4qnBc5+3QMDjE0ElmbPBSBbLQDuqG0FHjMDBGIySQGUTG0F0+b3B57mdQLHEX0C2wYPBePrQQO3P
K0DhH4TBFznNQK+WjkDWUYbBK7iXQPbbhUABSuPBEMK8QCOEeEDhkNjBLCyEQAgQdUBtE9bBWdJZ
QDDlTUBOFKbBoI1eQFqlakDzRorBhVwfQJerXkASkJXB

>  <OMEGA_E>  (4) 
AKcOPRDMhD6IL58+

>  <OMEGA_NBR>  (4) 
      2832

$$$$
220575
     RDKit          3D

 50 53  0  0  1  0  0  0  0  0999 V2000
    5.6341   -1.8142  -21.4647 C   0  0  0  0  0  0  0  0  0  0  0  0
    6.6086   -1.0519  -22.1298 C   0  0  0  0  0  0  0  0  0  0  0  0
    4.5765    0.2279  -20.6685 C   0  0  0  0  0  0  0  0  0  0  0  0
    5.5550    1.0174  -21.3255 C   0  0  0  0  0  0  0  0  0  0  0  0
    4.6179   -1.1723  -20.7378 C   0  0  0  0  0  0  0  0  0  0  0  0
    6.5769    0.3535  -22.0710 C   0  0  0  0  0  0  0  0  0  0  0  0
    5.4828    7.3376  -25.4235 C   0  0  0  0  0  0  0  0  0  0  0  0
    6.0925    7.6686  -24.1943 C   0  0  0  0  0  0  0  0  0  0  0  0
    4.9671    6.0396  -25.5967 C   0  0  0  0  0  0  0  0  0  0  0  0
    5.7089    5.4979  -23.4465 C   0  0  0  0  0  0  0  0  0  0  0  0
    6.8173    3.1999  -19.1765 C   0  0  0  0  0  0  0  0  0  0  0  0
    4.3910    3.2144  -19.1259 C   0  0  0  0  0  0  0  0  0  0  0  0
    6.7152    4.6320  -21.2738 C   0  0  0  0  0  0  0  0  0  0  0  0
    5.3292    3.1604  -22.6257 C   0  0  0  0  0  0  0  0  0  0  0  0
    6.7652    3.2125  -20.7030 C   0  0  2  0  0  0  0  0  0  0  0  0
    5.4777    2.5548  -21.2415 C   0  0  2  0  0  0  0  0  0  0  0  0
    6.5889    9.0717  -23.9291 C   0  0  0  0  0  0  0  0  0  0  0  0
    5.6487    3.2149  -16.9658 C   0  0  0  0  0  0  0  0  0  0  0  0
    3.5912    4.4544  -26.7741 C   0  0  0  0  0  0  0  0  0  0  0  0
    6.1863    6.7417  -23.2219 N   0  0  0  0  0  0  0  0  0  0  0  0
    5.0951    5.1456  -24.5978 N   0  0  0  0  0  0  0  0  0  0  0  0
    5.8577    4.5283  -22.4825 N   0  0  0  0  0  0  0  0  0  0  0  0
    5.6233    3.1658  -18.4443 N   0  0  0  0  0  0  0  0  0  0  0  0
    4.3165    3.0288  -20.4236 N   0  0  0  0  0  0  0  0  0  0  0  0
    3.2057    3.4464  -18.4412 N   0  0  0  0  0  0  0  0  0  0  0  0
    7.9063    3.3123  -18.6249 O   0  0  0  0  0  0  0  0  0  0  0  0
    4.3179    5.7111  -26.7763 O   0  0  0  0  0  0  0  0  0  0  0  0
    3.6728   -1.9003  -20.1038 F   0  0  0  0  0  0  0  0  0  0  0  0
    7.5348    1.0317  -22.7487 F   0  0  0  0  0  0  0  0  0  0  0  0
    5.3653    8.2565  -26.4092 F   0  0  0  0  0  0  0  0  0  0  0  0
    5.6660   -2.8927  -21.5122 H   0  0  0  0  0  0  0  0  0  0  0  0
    7.3875   -1.5480  -22.6899 H   0  0  0  0  0  0  0  0  0  0  0  0
    3.7899    0.7110  -20.1079 H   0  0  0  0  0  0  0  0  0  0  0  0
    6.2735    5.3269  -20.5445 H   0  0  0  0  0  0  0  0  0  0  0  0
    7.7244    4.9763  -21.5437 H   0  0  0  0  0  0  0  0  0  0  0  0
    5.9134    2.5922  -23.3645 H   0  0  0  0  0  0  0  0  0  0  0  0
    4.2726    3.1807  -22.9309 H   0  0  0  0  0  0  0  0  0  0  0  0
    7.6416    2.6841  -21.1065 H   0  0  0  0  0  0  0  0  0  0  0  0
    6.9833    9.1340  -22.9041 H   0  0  0  0  0  0  0  0  0  0  0  0
    7.3868    9.3196  -24.6446 H   0  0  0  0  0  0  0  0  0  0  0  0
    5.7578    9.7828  -24.0459 H   0  0  0  0  0  0  0  0  0  0  0  0
    4.6195    3.1776  -16.5794 H   0  0  0  0  0  0  0  0  0  0  0  0
    6.2164    2.3552  -16.5802 H   0  0  0  0  0  0  0  0  0  0  0  0
    6.1296    4.1484  -16.6382 H   0  0  0  0  0  0  0  0  0  0  0  0
    3.1202    4.3009  -27.7563 H   0  0  0  0  0  0  0  0  0  0  0  0
    4.2880    3.6284  -26.5687 H   0  0  0  0  0  0  0  0  0  0  0  0
    2.8147    4.4813  -25.9954 H   0  0  0  0  0  0  0  0  0  0  0  0
    3.4482    3.2116  -20.8848 H   0  0  0  0  0  0  0  0  0  0  0  0
    2.3376    3.4674  -18.9373 H   0  0  0  0  0  0  0  0  0  0  0  0
    3.2200    3.5925  -17.4521 H   0  0  0  0  0  0  0  0  0  0  0  0
  1  2  2  0
  1  5  1  0
  2  6  1  0
  3  4  1  0
  3  5  2  0
  4  6  2  0
 16  4  1  6
  5 28  1  0
  6 29  1  0
  7  8  2  0
  7  9  1  0
  7 30  1  0
  8 17  1  0
  8 20  1  0
  9 21  2  0
  9 27  1  0
 10 20  2  0
 10 21  1  0
 10 22  1  0
 11 15  1  0
 11 23  1  0
 11 26  2  0
 12 23  1  0
 12 24  2  0
 12 25  1  0
 13 15  1  0
 13 22  1  0
 14 16  1  0
 14 22  1  0
 15 16  1  0
 16 24  1  0
 18 23  1  0
 19 27  1  0
  1 31  1  0
  2 32  1  0
  3 33  1  0
 13 34  1  0
 13 35  1  0
 14 36  1  0
 14 37  1  0
 15 38  1  6
 17 39  1  0
 17 40  1  0
 17 41  1  0
 18 42  1  0
 18 43  1  0
 18 44  1  0
 19 45  1  0
 19 46  1  0
 19 47  1  0
 24 48  1  0
 25 49  1  0
 25 50  1  0
M  CHG  1  24   1
M  END
>  <OMEGA_C>  (5) 
WUq0QDg46L+zt6vB7nnTQNWlhr/ACbHB2XKSQGRaaT4LWaXBYsKxQPQ4gj+fmqrBI8aTQP8Mlr/x
5qXBPHbSQGP+tD53kbDBv3KvQI/N6kBrY8vBvfXCQABl9UAFjsHBZfKeQJ9EwUAExszBIq+2QLvu
r0BVkrvBMyfaQJnLTEBmaZnBeIOMQMO4TUDvAZnByuLWQPY4lEDBMKrBzYiqQOBDSkBjAbXBz3zY
QCmaTUDRn6XBIkmvQLaBI0CM7qnBd9jSQMIlEUHIbr/BYcK0QAfBTUDeuYfBUtZlQGSKjkBmMdbB
T/bFQBO810CKxrnB9wqjQCSppEBEyMTBUXK7QHXnkEAW3LPBV/KzQB+dSkD5jZPBmSCKQLDXQUCc
Y6PB9ylNQNaRXECph5PBoAD9QCf9U0C+/5TBDSyKQErBtkDONdbBtw5rQLY887981KDBNR3xQDIP
hD9t/bXBj7CrQLAaBEH8RdPBF1C1QO8hOcAJGazBI2bsQFgjxr/4hLXB6Y1yQDQHNj8Q3aDBjcDI
QEt2qkAaW6TBfy73QLM9n0CZWazBxjq9QPblJUBo6rrBJbmIQEuRS0CRcrfBE4j0QO7IK0AR2qjB
VnffQA8lEkGjO7fB+GDsQBQdFUEOKMXB8j+4QD2GHEEAXsDB2dKTQNddS0CaooTBbuzGQE67FkA3
pITBkyXEQAPAhEAKG4XB97BHQCuhiUDNDN7BjzeJQOY3aEC+jNTB2yQ0QM5mj0CZ9s/Bl69cQDSK
TUAsFKfBmpsVQDfpXUB9f5fBkBROQCXsZUDcnYvBU7m4QMen579TEazBdh+WQIxwoL/ZcKbBNyXS
QAth2D5mXLDBxvivQPYfgT+siarBwHvWQLgqeL8NH7HBliKRQHoKEj5Ft6XBaHGuQPH36kDXMMvB
PCTBQGui9UC9QsHBZPieQKocwUAsuczBduS2QNVrr0CfkbvBywnaQCHPSkCUhZnB0m2MQEXAT0DO
9pjB3HHXQGgCk0BQUqrBvneqQJHeSEBWDbXBgunXQP84S0CHuKXB7N2tQAg2I0Bm4KnBmiHRQGo/
EUH9G7/BRVy1QEaMTUBpxIfBU+tnQP30jUASR9bBrTPFQHl+10C1nrnB5I6jQMY8pED/0MTB7qy7
QE8okECc6rPBJgG0QMgFSkD0lpPBPqCJQLBzRUAMX6PBg4tNQDuyXkBlX5PBVQT9QN6SUkBcMJXB
ze+KQEBatkCVPdbBg2L3QDCPv7+turbBPWNcQOz4GD84dqDBTr+qQBM+BEF5DdPBq2u8QFh2OMAg
gazBAzl+QOWl87+/oaLBHDnpQL65hz/ZRrTBsxTKQOe5qUANfaTBPfX3QFUfnUCGjazB8aC9QLmT
I0CrxrrBpvCIQHGDSkBxubfBV1DzQF6rJ0BRAKnBicbeQLULEkHUAbfBFubpQAdsFUH3AMXBNFm2
QFyYHEExwb/BMoyUQIZOTEDilYTBbjnHQE0RFkCFs4TBW1TFQDByhEABOYXBzOhKQEbOiEAQMd7B
XlSKQBltZ0ANg9TBXmE1QB2/jkCRJ9DBeqRcQKYOVUARD6fBTr8VQKpIYUARR5fBtRlPQFnfZkDJ
cIvBr7SxQBKU3b86FK7B6mXTQF4zd79lTbLBMmWRQMwLkT5/vabB9jSzQBOciT9y3arBKr+QQJhN
jb+MUKjB23DUQDwf2z68yLDBEyesQFjo5EB0jMzByfGdQDpXukCO68zBIkG/QAAv9EAOFMPBCFe3
QKNFsEB8hrvBpyfaQCSpTUAh35jB0oGMQAA3TkD455jBDvrXQPmwlkCap6nBgiytQKj8TUDtjrTB
BcjZQCZRUUBWH6XBVCaxQBrJJkASp6nBy9WEQEZBqUBpWNbB7vWyQNS+SUA7aYfBUpDjQF4iFkEm
obnBtnOjQFVAoUAWZMTBoxXFQDwx2UBerbrBJVe7QAKDk0BDMrPBzF2zQIp4SUC/PpPBjjyLQJAF
REB/T6PBGCpMQFzkXEC4opPBrqH8QOZKUEAQNZTB54bJQKaVD0HXkcLB2AtgQFty6r8MUqTBzjn1
QGVajj93TrXBTNCmQGYY/0BdDtXBOSSxQJI/M8A3Q6/BaKrsQG2cub9ivrbB3pxvQD9WQT/eU6LB
147KQM3lrEAxtaPBXRb4QICZoUA9A6zBhMPBQNRXLEBCU7rB08iLQADES0CXVLfBbT32QOZ5MECo
R6jBc1R0QHFtiEAdn9TBO5RRQInBvUCIw9fBpEqZQHQqqUC5gd3BZ7uRQHUaRkAXi4TBPAnFQCxH
EkB4a4TB6tLBQLyHgkDid4TBZovpQOdzJ0G3GbrBHcrSQJVwEkHhHbLBMx0BQdSADUHt2LnB27pf
QM5BUECJKafBPHUVQKlfX0CcxpfBG4hLQLn6ZEA9s4vBgVa2QOyo37+85K3BBvmTQKEBmr8EG6jB
JFnTQPh19z7OfLDBoQSxQChRhz/8oarBI7rVQLB7Zr/JM7LBm5GQQAi5Pz6jlKbBYsipQMks50A0
AszB6ACcQIJ6vEDEsszBh0m/QPO+9ECbssLBGpG4QFGSr0Dlv7vBjdDZQPTQS0DbC5nB3yeMQMq4
TkDC1JjBgwLYQAcrlUBZ1anB7S+sQGIUTEBduLTBNb7YQGaOTkCRSqXBHiivQDgrJkDIoqnBh5SB
QCGorECqCNbBmoGzQDocRkBGeYfBMHXiQMDQFUHIhbjB3KKjQKzLoUAEk8TBd4HGQIle2EChprrB
em69QKPCkUDurrPBQ0mzQHjQR0DQTZPBnGKKQMqVR0DvRqPBst1LQEIXW0DPYZPBFWv8QL7AUUBN
fZTBW6DLQBCbD0EFEcLBoQf2QCC/tL/BHLjBSrFaQF65Ij/9aKHBliyiQE54AUHRFtTBXZq4QBQ0
NMC2Bq/BF9N3QBvi7b9+yqTBThLsQE3gjz9grbPBi2vJQHt2q0AtFaTBfJL4QNcDoECCyavBL2W/
QCaTJkCYabrBwbWKQEHfTUAkbrfBhoT0QPPnK0C9hqjB+wRwQJhDi0CFnNTBjalJQJCwwED93tbB
UK6UQL6ErkAxad3BgmiSQFH1QkAcgYTBmlLFQCehDUBTsITBn/bCQPg8gEBzbYTBMHrqQFnuJkG4
87jBtD3OQFLcEkHNeLHBrQcAQRZiDEHv3bfBl0JfQM8JWUDGFafB9LsUQPJDXkD0bJfBY/FLQATT
YEALaovB

>  <OMEGA_E>  (5) 
4HE4PbDoiT2ANIQ+7OWNPg==

>  <OMEGA_NBR>  (5) 
      6514

$$$$
25935
     RDKit          3D

 50 53  0  0  1  0  0  0  0  0999 V2000
    4.5652    0.2282  -20.6591 C   0  0  0  0  0  0  0  0  0  0  0  0
    4.5996   -1.1722  -20.7197 C   0  0  0  0  0  0  0  0  0  0  0  0
    6.5901   -1.0683  -22.1161 C   0  0  0  0  0  0  0  0  0  0  0  0
    5.5450    1.0086  -21.3279 C   0  0  0  0  0  0  0  0  0  0  0  0
    5.6108   -1.8200  -21.4457 C   0  0  0  0  0  0  0  0  0  0  0  0
    6.5655    0.3365  -22.0671 C   0  0  0  0  0  0  0  0  0  0  0  0
    5.4866    7.3425  -25.4177 C   0  0  0  0  0  0  0  0  0  0  0  0
    6.1090    7.6670  -24.1933 C   0  0  0  0  0  0  0  0  0  0  0  0
    4.9585    6.0496  -25.5882 C   0  0  0  0  0  0  0  0  0  0  0  0
    5.7193    5.4967  -23.4477 C   0  0  0  0  0  0  0  0  0  0  0  0
    6.7921    3.1979  -19.1667 C   0  0  0  0  0  0  0  0  0  0  0  0
    4.3666    3.2257  -19.1034 C   0  0  0  0  0  0  0  0  0  0  0  0
    6.7173    4.6212  -21.2743 C   0  0  0  0  0  0  0  0  0  0  0  0
    5.3548    3.1512  -22.6491 C   0  0  0  0  0  0  0  0  0  0  0  0
    6.7493    3.2026  -20.6990 C   0  0  2  0  0  0  0  0  0  0  0  0
    5.4710    2.5450  -21.2634 C   0  0  2  0  0  0  0  0  0  0  0  0
    6.6142    9.0674  -23.9300 C   0  0  0  0  0  0  0  0  0  0  0  0
    5.6407    3.2451  -16.9495 C   0  0  0  0  0  0  0  0  0  0  0  0
    3.5584    4.4780  -26.7558 C   0  0  0  0  0  0  0  0  0  0  0  0
    6.2045    6.7376  -23.2231 N   0  0  0  0  0  0  0  0  0  0  0  0
    5.0924    5.1517  -24.5942 N   0  0  0  0  0  0  0  0  0  0  0  0
    4.3017    3.0269  -20.4755 N   0  0  0  0  0  0  0  0  0  0  0  0
    5.8660    4.5232  -22.4876 N   0  0  0  0  0  0  0  0  0  0  0  0
    5.6006    3.1715  -18.4274 N   0  0  0  0  0  0  0  0  0  0  0  0
    3.2486    3.4740  -18.4694 N   0  0  0  0  0  0  0  0  0  0  0  0
    7.8780    3.3391  -18.6151 O   0  0  0  0  0  0  0  0  0  0  0  0
    4.2898    5.7318  -26.7597 O   0  0  0  0  0  0  0  0  0  0  0  0
    5.6377   -3.1686  -21.5038 F   0  0  0  0  0  0  0  0  0  0  0  0
    7.5299    1.0056  -22.7449 F   0  0  0  0  0  0  0  0  0  0  0  0
    5.3669    8.2636  -26.4009 F   0  0  0  0  0  0  0  0  0  0  0  0
    3.7842    0.7190  -20.0973 H   0  0  0  0  0  0  0  0  0  0  0  0
    3.8471   -1.7530  -20.2070 H   0  0  0  0  0  0  0  0  0  0  0  0
    7.3664   -1.5725  -22.6725 H   0  0  0  0  0  0  0  0  0  0  0  0
    6.2787    5.3229  -20.5496 H   0  0  0  0  0  0  0  0  0  0  0  0
    7.7317    4.9542  -21.5393 H   0  0  0  0  0  0  0  0  0  0  0  0
    5.9647    2.5903  -23.3725 H   0  0  0  0  0  0  0  0  0  0  0  0
    4.3070    3.1622  -22.9835 H   0  0  0  0  0  0  0  0  0  0  0  0
    7.6303    2.6717  -21.0888 H   0  0  0  0  0  0  0  0  0  0  0  0
    7.0159    9.1267  -22.9076 H   0  0  0  0  0  0  0  0  0  0  0  0
    7.4084    9.3121  -24.6506 H   0  0  0  0  0  0  0  0  0  0  0  0
    5.7858    9.7826  -24.0403 H   0  0  0  0  0  0  0  0  0  0  0  0
    4.6156    3.2108  -16.5521 H   0  0  0  0  0  0  0  0  0  0  0  0
    6.2152    2.3938  -16.5555 H   0  0  0  0  0  0  0  0  0  0  0  0
    6.1216    4.1855  -16.6423 H   0  0  0  0  0  0  0  0  0  0  0  0
    3.0717    4.3337  -27.7317 H   0  0  0  0  0  0  0  0  0  0  0  0
    4.2550    3.6478  -26.5673 H   0  0  0  0  0  0  0  0  0  0  0  0
    2.7941    4.5020  -25.9650 H   0  0  0  0  0  0  0  0  0  0  0  0
    3.4419    3.2131  -20.9509 H   0  0  0  0  0  0  0  0  0  0  0  0
    3.2579    3.6306  -17.4818 H   0  0  0  0  0  0  0  0  0  0  0  0
    2.3851    3.5072  -18.9727 H   0  0  0  0  0  0  0  0  0  0  0  0
  1  2  2  0
  1  4  1  0
  2  5  1  0
  3  5  2  0
  3  6  1  0
  4  6  2  0
 16  4  1  6
  5 28  1  0
  6 29  1  0
  7  8  2  0
  7  9  1  0
  7 30  1  0
  8 17  1  0
  8 20  1  0
  9 21  2  0
  9 27  1  0
 10 20  2  0
 10 21  1  0
 10 23  1  0
 11 15  1  0
 11 24  1  0
 11 26  2  0
 12 22  1  0
 12 24  1  0
 12 25  2  0
 13 15  1  0
 13 23  1  0
 14 16  1  0
 14 23  1  0
 15 16  1  0
 16 22  1  0
 18 24  1  0
 19 27  1  0
  1 31  1  0
  2 32  1  0
  3 33  1  0
 13 34  1  0
 13 35  1  0
 14 36  1  0
 14 37  1  0
 15 38  1  6
 17 39  1  0
 17 40  1  0
 17 41  1  0
 18 42  1  0
 18 43  1  0
 18 44  1  0
 19 45  1  0
 19 46  1  0
 19 47  1  0
 22 48  1  0
 25 49  1  0
 25 50  1  0
M  CHG  1  25   1
M  END
>  <OMEGA_C>  (6) 
xRWSQHSiaT7vRaXB2i+TQBoMlr/iwaXB/+HSQGK9iL/g7bDBkHCxQD0bgT+Mn6rB3YuzQPT26L/e
kKvBLBjSQJhIrD5UibDB4JGvQKz16kBwV8vBVH3DQDBY9UDci8HBOqyeQJqWwUCxtMzB3AS3QNDk
r0DWlLvB1ljZQEiqTEBQVZnBV7uLQFVyTkCq05jBWfTWQO3gk0DVMarB5lqrQEStSUBIMbXBXPrX
QCv4TECKl6XBBhKvQBLiIkB0G6rBKKfTQAMUEUGOcL/BuoC0QAGwT0B6mIfBN7xjQJ5Lj0DTC9bB
GovGQJea10DdyLnB3vSiQNzapEDswMTBqaeJQG+4QUDSzaPBnLa7QL69kECJ5rPBvTezQDD5SkBg
a5PBdehPQHdWXkBNwZPBYRj8QD2zVUC565TBskWJQJ5qt0DVE9bBPWi0QNXJSsDBB6zB1/TwQF22
gD979bXB0b2rQKE3BEHxNNPBIzFyQOcPOD9Jx6DBojZ2QDhi4L/hp6HBdrnrQMJGyb9RYbXB7erI
QN9UqkCJZaTB4Wn3QN2InkCAUKzBL9++QK7HJUD6+rrBrNKJQIxhSkAl3rfBgiv0QDv9KkDYtajB
7YHgQMgGEkHdQrfBQRHtQIP+FEF0NMXB7SS5QKyFHEGNUsDBqbKTQBB+TUC4aoTBy+LGQI0zGUCt
cYTBQuTDQNTvhUBZI4XBAZdEQNytikB02t3BHSmIQAh2aUDZidTB5dEyQAgQkEBkuM/BQUhcQAak
TUCFm6fB2YFQQGhbaECl2ovBjaUYQDh1YEAfyJfB4rvSQNZ21z5/WbDBTQrXQOGheL/BKrHBDMCW
QJNLob+4c6bBlImwQCdtgD8mfqrBJx+5QHLc579aL6zBjQqSQDXxCD49kaXBlCOvQAC36kASQMvB
EoPCQEwv9UDtY8HBJvWeQKgWwUAotszBjKO2QA11r0CFh7vBhFPZQBbbS0AlWJnBobyLQDJFUEBe
pZjB/BPXQCo1k0B1Q6rB3x+rQK1/SEAEHLXBsWzXQOvGS0BYmKXBVeOtQGXNIkD07qnBEWTSQPEI
EUE3Ob/B0i21QMRKT0A6gofB0etkQDW/jkD3HNbBP7nFQLJN10BAqrnBTTajQJ1MpEBaxcTBEDCJ
QOt3REBmpKPB2RO7QPNYkECr0rPB+mizQBdYS0ByVZPBdklQQIJbX0BEdJPBX178QFX5UkBFBpXB
tl2KQP+WtkA2LNbBRFa9QN66ScBz6KzBl51fQDLqFD8T/5/BBlOrQKoiBEExGdPBStDpQMjMhz9o
PbTBTVjxQGmosr/Zn7XBO2p/QIjc9L+Gr6LBD/fJQK4dqkARcaTBrJj3QP4YnUBJjazBBlW/QAle
JEBFubrBO96JQC+ASEA+/rfBSiPzQBaTKEDyxKjBRzTfQC/xEUEwCrfBqcbrQJQWFUEa+cTB5723
QGxnHEF6FcDBMXqUQJU5TkBaQYTByR/HQJHjF0BYc4TBDUPFQDtZhUA1CIXBlCxHQJTHiUDg/d3B
RUWIQIMMaEC4W9TBftMyQIg+kEAI8c/BFeVbQDcAU0BAbafBgmhRQAW0Z0AShovBVsoYQDCJYkA9
a5fB4qCQQFgHjz6gl6bBsciPQKcIjr9yGajBhCzSQBzTe78gOrLBXn6yQFkniD+N06rBbIGwQC/J
3r+l5q3BZobTQFgx0T53vrDBqMerQF485UAAbszBlw+dQGjXukB5wczBIc2/QEI09EDyCsPBmd+3
QGwzsEByhrvBD47ZQFwhTUBUxJjBhuuLQPb2TECwlpjB1CjYQDMklkBqn6nBJrqtQCw9TUB9srTB
50fZQD5LUEB8EKXBT8ewQD4aJkDKxKnB4gqDQP4JqkBBDtbBdyezQMjZRUCANofB3A7jQC0uFkHj
WLnB4hCjQIiVoUChSsTBPf3FQBIE2UDar7rBW9qKQPAwRECcm6PBXHS8QPn4kkC7UbPB9/ayQH5C
R0ASDJPBOIxPQEBUW0DVmpPB8uv7QDYYVECAHpTBIgTLQA9/D0FWnMLBgIivQBr7RMBMWK/BonP0
QNvPij9aSLXBTiGmQLqF/0CG59TBkHNuQJ4TQj/aKKLB6NhrQBrv2L/HyqTBfivrQCC9vL8puLbB
Y0jKQNl3rEA5xaPBDIr4QI3foEA3y6vBemfCQDLiKkDkYLrBLH2MQGbqS0DblrfBOsT1QCQRL0B+
JKjBS5VwQF5EiUAuTNTBzw1OQAHAvkCwT9fBwuKWQIjjqUD0Ut3BSBiSQHIOQUA6QITB/K7FQPhg
DkDpZoTBNtbBQAqJgEBNL4TBDwLqQEllJ0Hl67nBbjvQQAUOE0HgE7LBU6MAQUcvDUFf+bjBnsxf
QJdvUkAGiafBmPVOQEiMYkD9p4vBeuwYQLQUX0BCv5fBVJnUQJp5BD/wSbDBhcDWQEqcW7+NXLLB
FqmSQBDclb+XRanBS2CxQPA0ij+nrqrBO+i1QGX22b8Fy67BWsSPQKAJVz6fSafB5EyqQIpW5UAr
VMzBTdCdQCZBukCR58zByM+9QJRq9EDj48LB22i4QACzr0DkpbvB21XZQI/eTEATw5jBK6yLQH8E
T0DBUJjBWVDXQKI5lkB7lanB+bOsQItFTUAckbTBM0bYQMN4UEAtDaXB6iqvQH81J0CdjqnBHvOD
QA4xqUDyNNbBzLuzQMPdRUDmEofBu0DhQMOGFkFxaLnBfQ2lQJaXoEAeksTBPwXFQID12EDepbrB
nwuKQGmfR0CoWKPBJum7QGDqkkBgUbPB0f2yQP9QSECF55LB6mhPQMENXECwMpPB5SP8QCNhUEBs
QpTBOLXGQFbZD0FKOsLBtxK4QDveQcBZuLDBFN5XQEDaJj+gVqLBZ/SiQAkaAEE9m9TBXSXuQFCg
lD+u/7LB6KPxQOsRor9XsrbBRBhzQEkN6r9zhqbBgT3JQEiJrEDfwaPB/L73QL/9oEDXsavBu1vB
QJHOKUBGJbrBmY2LQDVmTEAwhrfBEVT0QG+eLkCERKjBB9V0QLnzh0Dnj9TBuFxOQK0AvUBrS9fB
U3KXQEA5qkBxh93BjMWSQHJfQkBeBITBDrzFQHFLDUDSZITBFkLDQBoOgEA4A4TBn/vlQPPzJ0Fo
wbnBs5TRQKhFEkEj0rHBkzoAQRJyDkEb6rnBiqNeQDp1WEDLNafB6mpPQEeFYUAsOovB3HQYQEqL
YECMQpfB

>  <OMEGA_E>  (6) 
gDEmPMDMCT2gtnA+gPWGPg==

>  <OMEGA_NBR>  (6) 
     10191

$$$$
220577
     RDKit          3D

 50 53  0  0  1  0  0  0  0  0999 V2000
    5.6971   -1.8424  -21.5084 C   0  0  0  0  0  0  0  0  0  0  0  0
    4.6354   -1.2445  -20.8173 C   0  0  0  0  0  0  0  0  0  0  0  0
    6.6623   -1.0411  -22.1314 C   0  0  0  0  0  0  0  0  0  0  0  0
    5.5277    0.9964  -21.3260 C   0  0  0  0  0  0  0  0  0  0  0  0
    4.5317    0.1548  -20.7296 C   0  0  0  0  0  0  0  0  0  0  0  0
    6.5852    0.3601  -22.0549 C   0  0  0  0  0  0  0  0  0  0  0  0
    5.4549    7.3364  -25.4151 C   0  0  0  0  0  0  0  0  0  0  0  0
    6.0494    7.6762  -24.1803 C   0  0  0  0  0  0  0  0  0  0  0  0
    4.9567    6.0320  -25.5906 C   0  0  0  0  0  0  0  0  0  0  0  0
    5.7151    5.4920  -23.4459 C   0  0  0  0  0  0  0  0  0  0  0  0
    6.8162    3.1933  -19.1701 C   0  0  0  0  0  0  0  0  0  0  0  0
    4.3946    3.2437  -19.1231 C   0  0  0  0  0  0  0  0  0  0  0  0
    6.7271    4.6205  -21.2740 C   0  0  0  0  0  0  0  0  0  0  0  0
    5.3286    3.1545  -22.6235 C   0  0  0  0  0  0  0  0  0  0  0  0
    6.7626    3.2015  -20.6971 C   0  0  2  0  0  0  0  0  0  0  0  0
    5.4637    2.5516  -21.2350 C   0  0  2  0  0  0  0  0  0  0  0  0
    6.5847    9.0689  -23.9344 C   0  0  0  0  0  0  0  0  0  0  0  0
    5.6515    3.2104  -16.9601 C   0  0  0  0  0  0  0  0  0  0  0  0
    3.5861    4.4429  -26.7684 C   0  0  0  0  0  0  0  0  0  0  0  0
    6.1761    6.7418  -23.2180 N   0  0  0  0  0  0  0  0  0  0  0  0
    5.0958    5.1383  -24.5937 N   0  0  0  0  0  0  0  0  0  0  0  0
    5.8769    4.5173  -22.4881 N   0  0  0  0  0  0  0  0  0  0  0  0
    5.6234    3.1690  -18.4387 N   0  0  0  0  0  0  0  0  0  0  0  0
    4.3246    3.0829  -20.4244 N   0  0  0  0  0  0  0  0  0  0  0  0
    3.2051    3.4580  -18.4400 N   0  0  0  0  0  0  0  0  0  0  0  0
    7.9056    3.2984  -18.6177 O   0  0  0  0  0  0  0  0  0  0  0  0
    4.3298    5.6897  -26.7781 O   0  0  0  0  0  0  0  0  0  0  0  0
    3.4428    0.6336  -20.0853 F   0  0  0  0  0  0  0  0  0  0  0  0
    7.5381    1.0609  -22.7162 F   0  0  0  0  0  0  0  0  0  0  0  0
    5.3459    8.2483  -26.4084 F   0  0  0  0  0  0  0  0  0  0  0  0
    5.7713   -2.9186  -21.5605 H   0  0  0  0  0  0  0  0  0  0  0  0
    3.8878   -1.8656  -20.3465 H   0  0  0  0  0  0  0  0  0  0  0  0
    7.4725   -1.5039  -22.6752 H   0  0  0  0  0  0  0  0  0  0  0  0
    6.2855    5.3216  -20.5505 H   0  0  0  0  0  0  0  0  0  0  0  0
    7.7406    4.9564  -21.5384 H   0  0  0  0  0  0  0  0  0  0  0  0
    5.9064    2.5739  -23.3576 H   0  0  0  0  0  0  0  0  0  0  0  0
    4.2732    3.1887  -22.9317 H   0  0  0  0  0  0  0  0  0  0  0  0
    7.6329    2.6625  -21.0996 H   0  0  0  0  0  0  0  0  0  0  0  0
    7.0325    9.1183  -22.9308 H   0  0  0  0  0  0  0  0  0  0  0  0
    7.3492    9.3063  -24.6889 H   0  0  0  0  0  0  0  0  0  0  0  0
    5.7620    9.7956  -24.0049 H   0  0  0  0  0  0  0  0  0  0  0  0
    4.6225    3.1828  -16.5723 H   0  0  0  0  0  0  0  0  0  0  0  0
    6.2100    2.3425  -16.5796 H   0  0  0  0  0  0  0  0  0  0  0  0
    6.1433    4.1369  -16.6287 H   0  0  0  0  0  0  0  0  0  0  0  0
    3.1351    4.2767  -27.7579 H   0  0  0  0  0  0  0  0  0  0  0  0
    4.2668    3.6119  -26.5316 H   0  0  0  0  0  0  0  0  0  0  0  0
    2.7928    4.4951  -26.0081 H   0  0  0  0  0  0  0  0  0  0  0  0
    3.4750    3.3256  -20.8927 H   0  0  0  0  0  0  0  0  0  0  0  0
    2.3393    3.4851  -18.9398 H   0  0  0  0  0  0  0  0  0  0  0  0
    3.2140    3.5852  -17.4482 H   0  0  0  0  0  0  0  0  0  0  0  0
  1  2  2  0
  1  3  1  0
  2  5  1  0
  3  6  2  0
  4  5  2  0
  4  6  1  0
 16  4  1  6
  5 28  1  0
  6 29  1  0
  7  8  2  0
  7  9  1  0
  7 30  1  0
  8 17  1  0
  8 20  1  0
  9 21  2  0
  9 27  1  0
 10 20  2  0
 10 21  1  0
 10 22  1  0
 11 15  1  0
 11 23  1  0
 11 26  2  0
 12 23  1  0
 12 24  2  0
 12 25  1  0
 13 15  1  0
 13 22  1  0
 14 16  1  0
 14 22  1  0
 15 16  1  0
 16 24  1  0
 18 23  1  0
 19 27  1  0
  1 31  1  0
  2 32  1  0
  3 33  1  0
 13 34  1  0
 13 35  1  0
 14 36  1  0
 14 37  1  0
 15 38  1  6
 17 39  1  0
 17 40  1  0
 17 41  1  0
 18 42  1  0
 18 43  1  0
 18 44  1  0
 19 45  1  0
 19 46  1  0
 19 47  1  0
 24 48  1  0
 25 49  1  0
 25 50  1  0
M  CHG  1  24   1
M  END
>  <OMEGA_C>  (7) 
9062QNLU678aEazBy1SUQJdKn7/XiabBRzHVQDBEhb8aDbHBmOKwQCgRfz+am6rBtwORQAqJHj5L
1qXBv7nSQORauD5xcLDB4o6uQKjD6kAcUsvB6ZTBQJ6j9UA1ccHB6ZyeQEQGwUB+uczBCuK2QBq+
r0BCkbvBuB7aQC5fTEBtXJnBh6CMQFGYT0Ap/JjBGUTXQAHbk0AZMarBtYOqQPDjSUDb/LTB1mbY
QBHmTECqk6XB2NauQE5NI0BL4anBK7bSQEYaEUGeeb/BPdm0QLJ3TUAxrofB+YFlQCcsjkC8JdbB
cqLFQNi810BgvrnBLRGjQDNtpEDVv8TBSw+8QIuNkECI57PBgfKzQH7QSkBegpPBhmOKQAFORUBG
ZaPByR9NQORPXUAhhZPB2Pr8QL0ZU0AK8ZTBco2KQBkStkB4OdbBKVdcQHIxIj+lrqDBTTjxQPvL
hz+/urXBzhGrQPj4A0FTRNPBtK64QJvKOsAAfKzBEtF4QA7M7r+MxaLB6R7vQCmBwL/FZrXBxiLJ
QOtKqkB1Z6TB17L3QNSankC4TqzBGwG9QAa7JEB03LrBDb6IQIQTTEAhdLfBUkD0QNJmKkATzKjB
2wnhQKfkEUFacrfBlizrQH3mFEHVgsXB5mG4QLu6HEHwCcDBkeuTQOKyS0AHlITBerjGQCzrFUAL
o4TBSZbEQDBhhEB6B4XBr6RIQMLaiEAXEN7BXomIQCopZ0DLQNTBpb0yQAHYj0ClENDByGZeQJ/W
VEAuJKfB5rcVQFYMX0C4hJfBKrJNQLl0ZUDclYvBxXq3QJkS7r8HmqvBgx/WQJnVh7+TtLDBQEWV
QDEpob+IL6bB5UWxQIIaez9Ei6rBrUvTQOV+rj79R7DBF46RQEIEED77r6XBCHSvQMDC6kANUsvB
ye/CQGwz9UD6ecHBy56eQFFdwUCmtczB6oi2QGGdr0B4jbvBIvbZQKCETEApZZnBoXaMQAEBUEAt
HpnBNUHXQP6Uk0BSRarBduKqQJnFSEAaEbXBaW/YQB+CTEAdnKXBlAavQENrIkAo7qnBfHfTQAj1
EEHDYr/BNl+0QEptUEDawofBqu9jQJosj0AKHNbB2NfFQLVp10Dct7nBPqCiQDKepEB6vsTBpZy7
QOhSkECM57PB/a6zQI30S0C6lZPB4GGKQN1gRECrgqPB3JtMQJRvXkCXuZPBOsv8QMmOUkBY8pTB
AreJQFAXt0DOI9bBe7fxQPzohD9rn7XBzRJdQNPOHj/DnKDBsA+sQHkVBEGHN9PBRDi6QHfpO8By
16vBaiXwQHhiw7/YALXB5fJ6QC5p8L8rWaLBr3vJQKsoqkCNdqTB+qL3QA8pnkCKfKzBUQG+QD1O
JEC04brBGzqJQE+/SUDqo7fBzGb0QDAWKkB0x6jBzm7gQDndEUGWN7fBs97sQADGFEG6K8XBhR65
QMN/HEFTQMDB6mKTQIE3T0BgsYTB4SbGQA1QGUB0kITB4hnEQNcJhkAoPIXBsKRFQNhqikCy9t3B
nfCHQFXzaEAydtTBOUoyQJ5ekECg4M/BiEJeQDXaUkAGS6fBZFkVQH2qX0D8wZfBAuVMQPiZZ0C5
zovBiY2yQDSL47/4Tq7B5FmQQHZNl7/72ajBxt7TQM5ke7+OQ7LBVIyxQIsThT/I36rBnh+PQACJ
VT4PPKfBH6zTQJxY0T6nprDBdtWpQNnd5UDFL8zBRlqcQK8Uu0AbsczBHg++QEGT9EAMzsLBp+e4
QG2er0DCq7vBGxraQAa7TEBS1pjBupyMQCRWTkDD3ZjBIJrYQEGVlUBTrKnBkOqsQPqjTED5oLTB
+J/ZQO5ST0C6GKXBb22wQO7KJUC0o6nBkuuBQFBpqkA979XBa/+yQHpRRkC3YofBOIriQAtTFkEu
YrnBjNijQKszoUDRasTB/9fFQKPK2ECbp7rBiIu+QOLekUB3nrPB9GCzQFq7R0CONpPBN3yLQFxT
R0AdUKPBJj9MQKCmW0D1kZPBFG78QOhyU0CyKpTB3VDHQDbiD0ElHcLB0CVXQO7aMT/0bqLB3C30
QHEbjj8qILXBq+CiQCNfAEE9fNTBRjqzQFZCNsBudq/Bs0JtQBEv5r8k2qXBde7tQP11uL/rlrbB
T3rJQIG/q0BL+qPBdyT5QNDFoEDDhqvB5JK/QOQzJ0DxcLrBmkOLQM4jT0DOMLfBYMn1QIZXLUBQ
O6jBMn5wQLMyiUDUTtTBZ3dKQBpwvkBm59bBrA6VQA98q0DEUN3BfcaRQMtBQkCshYTBYBXFQElw
DkBVhYTB1NzBQLaagEAgUITBmofnQGq8J0ExsLnBME3TQMwFEkF/v7HBjMkAQVogDkE+DLrBr95h
QMMQWUBwMKfBrrAVQEGRX0BTuZfBJl5LQJ1SYUA2movB4Ia0QFqF4b8SVq7BzmnUQDK8cL+Gq7LB
6LCSQBqdmL8QkajBy3GxQD4phz9MBavBmznTQDjR5j7hG7HBZXqQQBhNSj4l+6bB/GCrQNAR5UBG
f8zBJVKdQMpwukDu18zBV9S/QDIX9EAhK8PBHw64QOolsEBAlrvBzOXZQMmvTEAD4pjBd26MQDWq
TUC5sZjB4inYQKD/lUCRsqnBdEOrQP3xTkC4drTBR/7YQHn1T0DTJaXBBJ2vQG2qJkDem6nBi/mC
QPx2qUCmEdbBWm+zQMfGP0CSYYfBL0/fQDi3FkHKDrnBZcujQEQxoUAkZsTBd0TGQID12EAcz7rB
CG+7QNRyk0AaOLPBVmuzQEcDRkAMLpPBR8aKQKveRkBEIqPB6HdMQB2hWkAFQZPBKV/8QMcuU0CI
RpTBphnLQBVzD0GfyMLBQcHyQDI7lj8WzrXBSE9bQNhsJz+psKHBkX+kQMyS/0DA39TBlgS2QPU/
NcB7cK/B4iDuQBuXsL/mP7fBtwd0QFcP6r9oTKXB40fLQE2GrEBuwKPBYX74QNEtoEBJEqzB5XG+
QMXMK0BcZLrBEoyJQOmeT0CD/bbBB/j0QBTKLUC3WqjBMPNwQKqkiEAwRtTB75dNQB8GvkBJQNfB
q36WQHJkqUBRZN3BkEuSQIMWO0AjeYTB5mDFQCKCBkC66oTBmafCQIsXeUBq+IPBG6vmQMHfJ0Ea
u7nBhI/JQCgZFEFqQ7LBphr9QGO1DUGAw7fBk7xfQMrbV0Bw6KbBVmwVQN95XkCLTpfB4H9MQGYe
YECRSIvB

>  <OMEGA_E>  (7) 
oMszPWC3ND0g54U++PGFPg==

>  <OMEGA_NBR>  (7) 
     13873

$$$$
220580
     RDKit          3D

 49 52  0  0  1  0  0  0  0  0999 V2000
    5.7012   -1.7499  -21.6112 C   0  0  0  0  0  0  0  0  0  0  0  0
    4.6478   -1.1614  -20.8871 C   0  0  0  0  0  0  0  0  0  0  0  0
    6.6785   -0.9411  -22.2180 C   0  0  0  0  0  0  0  0  0  0  0  0
    4.5713    0.2359  -20.7604 C   0  0  0  0  0  0  0  0  0  0  0  0
    6.6099    0.4552  -22.0894 C   0  0  0  0  0  0  0  0  0  0  0  0
    5.5609    1.0598  -21.3506 C   0  0  0  0  0  0  0  0  0  0  0  0
    5.3956    7.2456  -25.4694 C   0  0  0  0  0  0  0  0  0  0  0  0
    6.0545    7.6328  -24.2770 C   0  0  0  0  0  0  0  0  0  0  0  0
    4.9145    5.9237  -25.5746 C   0  0  0  0  0  0  0  0  0  0  0  0
    5.7169    5.4927  -23.4320 C   0  0  0  0  0  0  0  0  0  0  0  0
    6.8105    3.1992  -19.1667 C   0  0  0  0  0  0  0  0  0  0  0  0
    4.3795    3.2415  -19.1450 C   0  0  0  0  0  0  0  0  0  0  0  0
    6.7640    4.6439  -21.2688 C   0  0  0  0  0  0  0  0  0  0  0  0
    5.3877    3.1773  -22.6116 C   0  0  0  0  0  0  0  0  0  0  0  0
    6.7818    3.2196  -20.6926 C   0  0  2  0  0  0  0  0  0  0  0  0
    5.4892    2.5820  -21.2356 C   0  0  2  0  0  0  0  0  0  0  0  0
    6.5428    9.0517  -24.0780 C   0  0  0  0  0  0  0  0  0  0  0  0
    4.1390    5.4353  -26.7802 C   0  0  0  0  0  0  0  0  0  0  0  0
    5.6101    3.1964  -16.9731 C   0  0  0  0  0  0  0  0  0  0  0  0
    6.2005    6.7439  -23.2740 N   0  0  0  0  0  0  0  0  0  0  0  0
    5.0787    5.0852  -24.5503 N   0  0  0  0  0  0  0  0  0  0  0  0
    5.8439    4.5625  -22.4320 N   0  0  0  0  0  0  0  0  0  0  0  0
    5.6044    3.1698  -18.4512 N   0  0  0  0  0  0  0  0  0  0  0  0
    4.3169    3.0564  -20.4416 N   0  0  0  0  0  0  0  0  0  0  0  0
    3.1902    3.4877  -18.4724 N   0  0  0  0  0  0  0  0  0  0  0  0
    7.8939    3.2769  -18.5987 O   0  0  0  0  0  0  0  0  0  0  0  0
    5.2245    8.1223  -26.4845 F   0  0  0  0  0  0  0  0  0  0  0  0
    5.7592   -2.8246  -21.7011 H   0  0  0  0  0  0  0  0  0  0  0  0
    3.8959   -1.7856  -20.4274 H   0  0  0  0  0  0  0  0  0  0  0  0
    7.4806   -1.3935  -22.7822 H   0  0  0  0  0  0  0  0  0  0  0  0
    3.7557    0.6830  -20.2114 H   0  0  0  0  0  0  0  0  0  0  0  0
    7.3619    1.0738  -22.5566 H   0  0  0  0  0  0  0  0  0  0  0  0
    6.3868    5.3600  -20.5239 H   0  0  0  0  0  0  0  0  0  0  0  0
    7.7717    4.9460  -21.5904 H   0  0  0  0  0  0  0  0  0  0  0  0
    6.0365    2.6403  -23.3192 H   0  0  0  0  0  0  0  0  0  0  0  0
    4.3493    3.1511  -22.9738 H   0  0  0  0  0  0  0  0  0  0  0  0
    7.6526    2.6748  -21.0863 H   0  0  0  0  0  0  0  0  0  0  0  0
    6.9754    9.1533  -23.0717 H   0  0  0  0  0  0  0  0  0  0  0  0
    7.3094    9.2846  -24.8317 H   0  0  0  0  0  0  0  0  0  0  0  0
    5.6986    9.7485  -24.1861 H   0  0  0  0  0  0  0  0  0  0  0  0
    3.8118    4.3988  -26.6110 H   0  0  0  0  0  0  0  0  0  0  0  0
    3.2590    6.0770  -26.9345 H   0  0  0  0  0  0  0  0  0  0  0  0
    4.7830    5.4756  -27.6711 H   0  0  0  0  0  0  0  0  0  0  0  0
    4.5753    3.1668  -16.6013 H   0  0  0  0  0  0  0  0  0  0  0  0
    6.1613    2.3236  -16.5929 H   0  0  0  0  0  0  0  0  0  0  0  0
    6.0985    4.1185  -16.6250 H   0  0  0  0  0  0  0  0  0  0  0  0
    3.4550    3.2390  -20.9147 H   0  0  0  0  0  0  0  0  0  0  0  0
    2.3275    3.5187  -18.9771 H   0  0  0  0  0  0  0  0  0  0  0  0
    3.1963    3.6340  -17.4831 H   0  0  0  0  0  0  0  0  0  0  0  0
  1  2  2  0
  1  3  1  0
  2  4  1  0
  3  5  2  0
  4  6  2  0
  5  6  1  0
 16  6  1  6
  7  8  2  0
  7  9  1  0
  7 27  1  0
  8 17  1  0
  8 20  1  0
  9 18  1  0
  9 21  2  0
 10 20  2  0
 10 21  1  0
 10 22  1  0
 11 15  1  0
 11 23  1  0
 11 26  2  0
 12 23  1  0
 12 24  2  0
 12 25  1  0
 13 15  1  0
 13 22  1  0
 14 16  1  0
 14 22  1  0
 15 16  1  0
 16 24  1  0
 19 23  1  0
  1 28  1  0
  2 29  1  0
  3 30  1  0
  4 31  1  0
  5 32  1  0
 13 33  1  0
 13 34  1  0
 14 35  1  0
 14 36  1  0
 15 37  1  6
 17 38  1  0
 17 39  1  0
 17 40  1  0
 18 41  1  0
 18 42  1  0
 18 43  1  0
 19 44  1  0
 19 45  1  0
 19 46  1  0
 24 47  1  0
 25 48  1  0
 25 49  1  0
M  CHG  1  24   1
M  END
>  <OMEGA_C>  (8) 
mnC2QLr937/U46zB3bqUQH+nlL/MGKfBArbVQM7scL+FvrHBM0iSQICccT48FabBsoTTQG4Q6T4S
t7DB0/KxQISnhz/7zarBpKisQOrb50BRwcvBMb7BQB5A9EBDN8LBSEOdQA6PvUDMmMzBjPC2QNvD
r0CzdLvBxO/ZQFW/TEBuVZnBjSSMQDF0T0DoKJnBxnLYQNmalECFJqrB6GesQFVZS0CS5LTBxQTZ
QGENTkCEiqXBHqevQEpAJUCb4qnB/l7RQJbTEEGpn8DB6nKEQPLtrUDRPdbBLIazQEKRTEDmyIfB
JmrGQLLN10AuMbrBboSiQBu6okDvZsTB/AC7QDEAkkDVdLPBC1ezQFrdSkD5m5PBuCOKQKGbQ0Bx
iKPBiixMQJE2X0Box5PB7pr8QDS4UUAoypTB8y6nQMD0AUFG4NPBmEu4QKfGNMDQm63B+VV5QPeN
5L9Na6PBQGHvQKBcsr8JQrbB311wQG/aLj/6sKHBaZTrQL9ziT/0c7TBnmDMQHaFq0D/MKTBX7H4
QElFnkAkuazBsirBQP75KECojbrBxS2LQKyrSUA+yrfBTeL0QDUwK0C7sKjB1DbfQA90EkHhkrjB
dubpQKCNFEFip8bB4Vq2QLj5G0EkfcHBBPRzQCLDjEBa49TBjJNQQIJ2wkDnedfBBg6ZQNg3r0Bo
Xt3BzmiSQN6sSkBvz4TBIinFQOO1FEBTvoTBrCbDQNTKg0D+/4TBJx5dQFhMT0A9UafBvPUUQBYz
YUAX0ZfBWZBMQBCUaEB93YvBjg+0QDvY379j2KzBuZLTQBJHdb/fy7HB8E6TQOAjkr//1qbB0YTS
QFe44D6nrrDBYumRQGkbgz5pxaXBI66xQJAMiD9wpqrBujWsQOj350A8xMvBlMzBQMRG9EBcS8LB
rWucQCzOvUCZiszBe3W3QEawr0DCibvBvxnaQOe9TUAQQ5nBLDiMQJkWT0DdKJnBXA/ZQG2UlEAB
LKrBtvusQBcSS0CR6LTBx2PZQAsoTkAtfKXBVQCwQOmeJUAn16nBP4bRQDrWEEEdwMDB/heCQEq2
rkAs/dXBHYyzQB5nUEAlvYfBWO/GQKDA10DyTLrBXTaiQOzaokAxY8TB9Vu8QIGpkUDLnbPBM2mz
QGNJTEDfj5PBVZWKQC3qRECEj6PBcGlLQEvxWkA+1JPByrH8QMs4U0B/sJTB+3qmQL8EAkGi39PB
9wC1QH22NMB6p63BKJDsQLBktr+Zc7bBD1t2QEY/4L+qCqPBNubqQP5yhT+McrTBzxBxQB+xNz/c
NqHBR3bMQDycq0AsT6TBgHn5QHFFnkDamazBRGDBQCB/J0BXibrBxraLQOFPSkADyLfBYj31QNji
KkBOkqjBodrfQJ9yEkHLwLjBgK/pQDKTFEH73sbBwHW2QOP8G0H5gcHBLE1uQK+/jUAij9TBeGVM
QF/Mw0An/9bBEM+VQJWir0CIRt3B0m6SQBV/TkCqw4TBHm/FQCqEGUCihITBY+PCQA0hhkDzI4XB
9bteQLqUUkDsZ6fBF3EUQPp2W0D07JfBEuRKQNf1YkBy5IvBk1e1QBrF3r/+eq3BAp2TQIbYlL9X
n6fBzerUQHdjbL8BHrLBVmaRQIRQbT42WKbBt+HSQECc8D6j2rDBa0ixQBYpiD8H4qrBVTuuQA5m
50A36cvBfx+eQOpYvUAosszB5h3DQOHH80C2WMLB2fy2QFe3r0DpdrvBZ/HZQD3NTUCJU5nBDR+M
QH3QTUDL7ZjBGHzYQB1plEDsOarBuCqrQJQ+TECGw7TBwprYQB78TUCUh6XBpP6uQFpuJUCdzKnB
xnyEQHcvrkDfQNbBK6nSQCqYEEEJu8DBS1K0QN3kTECvrIfBGpqiQL63okCzbMTB5SnHQFyB10CS
RLrBgx+6QM9RkkATWbPB252zQJOvSkBSf5PByryJQHH/QkDlT6PBTlZMQDi6W0Dya5PBiaH8QKK5
VkCh4pTB9W2pQKqnAUHpFtTBlfm2QGUFNMByaq7BErV2QCyN5b8FGaTBKLPuQIQCr7/qpLbBtqRu
QNuYKz8H5KHB+hjrQH0qjD9UdbTBgX3NQJO5q0DJO6TB9ar4QJJRnUBrAq3B/W+/QB7eKUCqiLrB
N7+JQGseS0DwhbfBHUH0QAZoKkA5rKjBWqpxQA1/jUBAyNTBGyVSQPivw0CvgdfBNe+YQBterkCW
at3BPOTfQFlJEkGynrjB2abrQNJBFEGtpsbBlby3QEq/G0Gvv8HBPV6TQGrdSUCzmoTBPKDGQEjZ
FUARpoTBtYHDQHVOhEDU+ITBUQFcQJD4TkDfAqfBvcAUQJU0XUAAYpfBmkBNQBpFZEB7fovBMfSz
QKjC3r8v3q3BOKDUQMlub78fJ7LBmj2SQJSuk79fEKjBl63TQGYN6T5fmrDBQf6QQNwcdD6TjKbB
V+WxQDiMhz9dw6rBXAqtQH1P50Cl4svBptGcQPpKvUD7lMzBGnjCQJ3F80A5Z8LBuo63QAZ0r0Cv
h7vBRgHaQB7HTUApK5nBsS6MQCAiTkCJ/pjBtH3YQAK5lEBPC6rBuHasQB8rS0Dsx7TB2SLZQFxh
TkD6YqXB0NWvQEI+JUDevanB0ciCQG0JrkCDENbB6J3SQFKIEEHW8cDBg5CzQDGCTkDwnofB3Cqi
QDGUokCFW8TBOF/HQCpr10CeXLrBBBy8QGuikUB/irPBD2mzQPzZSkAFcZPBYlCKQNxFQ0BmYqPB
wPlLQEqWXEDLnJPB1IH8QItXVkCGoJTB/SWoQI6AAUFsG9TBR7y0QOnZM8BnCK/BLGzuQAhosb+g
obbBbn9yQJI74792w6TBAOHsQBX0iD914rPBYL1tQKgpLz+bKKLBdH7LQHWQq0CXMKTBG+H4QE3C
nkAjaKzBRYHAQNh6J0DnebrBlBCLQG/QSkA0j7fBFBT1QGaNK0DSf6jBQDxvQL0sjUD9mNTBWxNO
QC87w0B3LtfBsMmWQPuhrkDOTd3B2wLhQBkxEkEC9bjBc9HqQHESFEG2FcfBN8G3QNPLG0EUvMHB
oXuSQDNoS0Cio4TB8ujFQFgWGEAvcITBVG3CQIFghUBc/YTBI6BdQH+HT0BHLafBStIUQHxnXkAR
qpfBMB5MQMYtZUBWr4vB

>  <OMEGA_E>  (8) 
YGIePiDdIj54kSQ+wK8oPg==

>  <OMEGA_NBR>  (8) 
     17503

$$$$
220576
     RDKit          3D

 50 53  0  0  1  0  0  0  0  0999 V2000
    4.6162   -1.1847  -20.6928 C   0  0  0  0  0  0  0  0  0  0  0  0
    5.6252   -1.8310  -21.4245 C   0  0  0  0  0  0  0  0  0  0  0  0
    4.5698    0.2175  -20.6430 C   0  0  0  0  0  0  0  0  0  0  0  0
    6.5851   -1.0740  -22.1169 C   0  0  0  0  0  0  0  0  0  0  0  0
    5.5371    1.0028  -21.3258 C   0  0  0  0  0  0  0  0  0  0  0  0
    6.5488    0.3319  -22.0786 C   0  0  0  0  0  0  0  0  0  0  0  0
    5.4929    7.3419  -25.4133 C   0  0  0  0  0  0  0  0  0  0  0  0
    6.0949    7.6675  -24.1787 C   0  0  0  0  0  0  0  0  0  0  0  0
    4.9679    6.0486  -25.5901 C   0  0  0  0  0  0  0  0  0  0  0  0
    5.7122    5.4910  -23.4465 C   0  0  0  0  0  0  0  0  0  0  0  0
    6.8186    3.1949  -19.1882 C   0  0  0  0  0  0  0  0  0  0  0  0
    4.3917    3.2120  -19.1337 C   0  0  0  0  0  0  0  0  0  0  0  0
    6.7352    4.6070  -21.2937 C   0  0  0  0  0  0  0  0  0  0  0  0
    5.3225    3.1507  -22.6334 C   0  0  0  0  0  0  0  0  0  0  0  0
    6.7653    3.1909  -20.7141 C   0  0  2  0  0  0  0  0  0  0  0  0
    5.4702    2.5423  -21.2489 C   0  0  2  0  0  0  0  0  0  0  0  0
    6.6066    9.0641  -23.9084 C   0  0  0  0  0  0  0  0  0  0  0  0
    5.6597    3.2686  -16.9776 C   0  0  0  0  0  0  0  0  0  0  0  0
    3.5336    4.5067  -26.7507 C   0  0  0  0  0  0  0  0  0  0  0  0
    6.1934    6.7322  -23.2148 N   0  0  0  0  0  0  0  0  0  0  0  0
    5.0903    5.1494  -24.5958 N   0  0  0  0  0  0  0  0  0  0  0  0
    5.8616    4.5150  -22.4897 N   0  0  0  0  0  0  0  0  0  0  0  0
    5.6262    3.1716  -18.4539 N   0  0  0  0  0  0  0  0  0  0  0  0
    4.3140    3.0226  -20.4304 N   0  0  0  0  0  0  0  0  0  0  0  0
    3.2064    3.4457  -18.4497 N   0  0  0  0  0  0  0  0  0  0  0  0
    7.9049    3.3458  -18.6402 O   0  0  0  0  0  0  0  0  0  0  0  0
    4.3153    5.7292  -26.7693 O   0  0  0  0  0  0  0  0  0  0  0  0
    7.4958    1.0038  -22.7782 F   0  0  0  0  0  0  0  0  0  0  0  0
    5.3615    8.5261  -26.6916 Cl  0  0  0  0  0  0  0  0  0  0  0  0
    3.8742   -1.7675  -20.1673 H   0  0  0  0  0  0  0  0  0  0  0  0
    5.6636   -2.9099  -21.4549 H   0  0  0  0  0  0  0  0  0  0  0  0
    3.7889    0.7055  -20.0786 H   0  0  0  0  0  0  0  0  0  0  0  0
    7.3565   -1.5751  -22.6828 H   0  0  0  0  0  0  0  0  0  0  0  0
    6.3168    5.3148  -20.5630 H   0  0  0  0  0  0  0  0  0  0  0  0
    7.7476    4.9296  -21.5786 H   0  0  0  0  0  0  0  0  0  0  0  0
    5.9007    2.5791  -23.3742 H   0  0  0  0  0  0  0  0  0  0  0  0
    4.2653    3.1792  -22.9360 H   0  0  0  0  0  0  0  0  0  0  0  0
    7.6359    2.6489  -21.1121 H   0  0  0  0  0  0  0  0  0  0  0  0
    7.0144    9.1147  -22.8881 H   0  0  0  0  0  0  0  0  0  0  0  0
    7.3974    9.3111  -24.6320 H   0  0  0  0  0  0  0  0  0  0  0  0
    5.7801    9.7831  -24.0089 H   0  0  0  0  0  0  0  0  0  0  0  0
    4.6332    3.2331  -16.5840 H   0  0  0  0  0  0  0  0  0  0  0  0
    6.2386    2.4277  -16.5681 H   0  0  0  0  0  0  0  0  0  0  0  0
    6.1326    4.2172  -16.6833 H   0  0  0  0  0  0  0  0  0  0  0  0
    3.0642    4.3562  -27.7341 H   0  0  0  0  0  0  0  0  0  0  0  0
    4.1912    3.6545  -26.5242 H   0  0  0  0  0  0  0  0  0  0  0  0
    2.7529    4.5826  -25.9796 H   0  0  0  0  0  0  0  0  0  0  0  0
    3.4454    3.2071  -20.8902 H   0  0  0  0  0  0  0  0  0  0  0  0
    2.3383    3.4648  -18.9457 H   0  0  0  0  0  0  0  0  0  0  0  0
    3.2207    3.5950  -17.4610 H   0  0  0  0  0  0  0  0  0  0  0  0
  1  2  2  0
  1  3  1  0
  2  4  1  0
  3  5  2  0
  4  6  2  0
  5  6  1  0
 16  5  1  6
  6 28  1  0
  7  8  2  0
  7  9  1  0
  7 29  1  0
  8 17  1  0
  8 20  1  0
  9 21  2  0
  9 27  1  0
 10 20  2  0
 10 21  1  0
 10 22  1  0
 11 15  1  0
 11 23  1  0
 11 26  2  0
 12 23  1  0
 12 24  2  0
 12 25  1  0
 13 15  1  0
 13 22  1  0
 14 16  1  0
 14 22  1  0
 15 16  1  0
 16 24  1  0
 18 23  1  0
 19 27  1  0
  1 30  1  0
  2 31  1  0
  3 32  1  0
  4 33  1  0
 13 34  1  0
 13 35  1  0
 14 36  1  0
 14 37  1  0
 15 38  1  6
 17 39  1  0
 17 40  1  0
 17 41  1  0
 18 42  1  0
 18 43  1  0
 18 44  1  0
 19 45  1  0
 19 46  1  0
 19 47  1  0
 24 48  1  0
 25 49  1  0
 25 50  1  0
M  CHG  1  24   1
M  END
>  <OMEGA_C>  (9) 
sreTQCSll7/miqXB9AG0QMtd6r9IZavBhDuSQHbDXj7fJKXBKbnSQC96ib9777DBBjCxQC9bgD89
m6rBG5DRQCL0qT4KobDBzcWvQAvx6kCHTsvBsQnDQNVb9UDibcHBv/ieQNCNwUCVuMzBNMq2QDu2
r0BokrvBTTLaQPl5TEB/gZnByIiMQAiRTUDPEZnBAYfXQFpsk0CMWarB3lGqQNWlSUAoEbXBkH3Y
QAs4TEB1tqXBoAuvQKm1IkDY/anBBWnTQKQGEUFxRL/BfRy1QCoxUUA40ofBHCdiQB03kECFAdbB
JDDGQHJu10D1t7nBt+OiQAzIpEBGxMTBE5K7QJV6kEDb6rPBMAq0QBn7SkCIoZPBPQyKQLtxQUB3
caPBUTVNQM6GXEDymJPBovT8QFciVkALH5XBTxeKQExVt0B0J9bBvN3vQIt7gD+nObbBsZGrQNJq
CEF3iNXBQfJ3QHU94r+YVqHBFDy1QGk7OsCzo6vByH1yQFibND/loKDBjWjrQDedyb94drXBhiPK
QA4TqkAcgaTBBez3QO6+nUDgoKzB1NK8QEAPJUBY/rrBkX2IQD53S0D5fLfB5Vj0QICHKUCL5ajB
RHbgQPjVEUHMGrfBvLfsQHj6FEFEDsXBqPa4QGqHHEErEsDBN0OUQObrTkDxq4TB86LHQOVfG0Bq
i4TBRD7EQCbzhkBrd4XBhBtEQJlli0Bh393BoR6GQPbjaUCBMdTBUS8wQGqkkkAy1s/BBIFcQOZA
TUA4H6fBJqYVQOm+XUDBkJfBZyBOQDkVZkAesIvBaWrXQGD3d7+0Q7HBbx+5QE3+57+odqzBcU3T
QBMB2T7FUrDBn5aWQISCob88xqbBn+ywQIaigD9fg6rBRAKSQGJjCD7eyaXBVreuQK6d6kDzO8vB
w3vBQGNe9UD1UMHBTOeeQCXdwEDhs8zB9m62QLRxr0BEf7vB+f3ZQGlJS0C/cZnBPWOMQDLAUEAR
BJnBm2bXQDpKk0CORKrBYg2rQEOHSEAFBLXBSivYQC/ES0CwpaXBj2auQAICI0Ay1qnB+jbRQIcl
EUGPI7/Bsdu0QKRfT0DLv4fBb9RnQMq7jUCPRdbBwfvEQIl210DHmrnBaiajQDclpEDzvsTB0VO7
QKxLkEAF0bPBdc+zQAdQS0AckpPBQdCJQInZREByZqPBvUNNQDfYYEDsg5PBO/b8QDSxUECTDZXB
N8CKQGwttkDPNNbBusteQMACFT+sXaDBWx2qQLQ3CEEeeNXBreDxQCr2sb9ErrXBeVm8QOSZOMAJ
JK3Bwa/qQKheiD8kFbTBU5l+QPs59b8EHqPBXCPKQFn+qUDIaqTBas/3QEGAnUCJkKzBVdC+QLgR
JEAcsrrBjZ+JQIPXSECExbfBdcnzQF+pKEC946jBLiveQO4JEkH497bBNXbqQA9IFUFy6cTB7nS2
QPl2HEFk9L/B0/STQHS9TkBjn4TBe3HGQDfKF0DQnITBR/fEQEpOhUB+OIXBUJ9KQKywiEDBLd7B
wWSKQN8NZ0DvjtTBCHc1QMZSjkD4H9DBiMtcQFbvUkCrIafBdqcVQOIHY0Axd5fBZX5OQLQ/akCJ
movBdZeOQNIQjr8r06/BaTuxQADg7b+94avB0RuPQII5lz4RH6/BIUfUQNjemb+8MqfBVk+yQNeh
ej/ZeKrBjR3VQJbGTj5uaKbBXvGuQMVQ7kAsAcvBynqcQEGUxUDNoszBxNzFQCPF9UCkeMHBU1a3
QF9zr0C1HbzB1B/aQKBKU0CpepnBXxmMQC+fTEA2/JjBVJ7TQBWqlUC2SqrB2xqrQGksR0DFLbXB
+PXXQFyYUUC5uaXBNuyvQHuQIUAz2qnBdHSDQHqtu0CxtNbBoL20QGP/YkCA4ofBhZDvQKAtEUHk
rbXBfxWhQN/bpkDxJsXBk3HJQOD/1UDHNrrBXgm8QOHnj0B1cbTBV9mzQO7GUkBtlJPBZ8aJQO7g
OUCUQKPBeYpLQHItWkBzi5PBDBz9QLAOXEB6J5XB41/YQA+8DkFcr7/B5bz3QFYkPz9/oqHBeJ6p
QPtvC0EjldTBGBtnQCNzzr/DZbPBE+iwQGfnO8Cgc6zBkaJoQAKWXD9FKrLBstfuQDPh479tLKTB
6onBQJtUqkAmyaTBx1HzQB/Co0DFx6vB3729QG2RIUB5+rrBt0KJQBPfR0CPmLfBxOz0QKbrMkCL
76jB8shvQAV0mkCoZtbBO/9PQPWR0UA0UNfBpUmYQPvSv0AUud3B1/yTQF0HYEC4roTBg53IQAIv
MkDw8YPByErCQJ5nkUANW4bB8rj8QFZ4IUGEKrXBs6nZQB5qDkEf7q7B/u0EQYV+BUHzXbXBw0Za
QHD9O0AI0KbBttATQIKLVUCrb5fBFEJMQJuJaEDNv4vB

>  <OMEGA_E>  (9) 
4CgPPUCQaj0oFrw+

>  <OMEGA_NBR>  (9) 
     20338

$$$$
220578
     RDKit          3D

 50 53  0  0  1  0  0  0  0  0999 V2000
    6.5661    0.3962  -22.0692 C   0  0  0  0  0  0  0  0  0  0  0  0
    4.5967    0.2204  -20.6335 C   0  0  0  0  0  0  0  0  0  0  0  0
    6.6523   -1.0037  -22.1228 C   0  0  0  0  0  0  0  0  0  0  0  0
    4.6915   -1.1794  -20.6840 C   0  0  0  0  0  0  0  0  0  0  0  0
    5.5415    1.0250  -21.3180 C   0  0  0  0  0  0  0  0  0  0  0  0
    5.7210   -1.7904  -21.4222 C   0  0  0  0  0  0  0  0  0  0  0  0
    5.4594    7.3436  -25.3973 C   0  0  0  0  0  0  0  0  0  0  0  0
    6.0879    7.6660  -24.1757 C   0  0  0  0  0  0  0  0  0  0  0  0
    4.9513    6.0440  -25.5762 C   0  0  0  0  0  0  0  0  0  0  0  0
    5.7215    5.4877  -23.4402 C   0  0  0  0  0  0  0  0  0  0  0  0
    6.8137    3.1760  -19.1846 C   0  0  0  0  0  0  0  0  0  0  0  0
    4.3839    3.2311  -19.1527 C   0  0  0  0  0  0  0  0  0  0  0  0
    6.7586    4.5998  -21.2925 C   0  0  0  0  0  0  0  0  0  0  0  0
    5.3758    3.1384  -22.6423 C   0  0  0  0  0  0  0  0  0  0  0  0
    6.7736    3.1811  -20.7123 C   0  0  2  0  0  0  0  0  0  0  0  0
    5.4752    2.5512  -21.2490 C   0  0  2  0  0  0  0  0  0  0  0  0
    6.5887    9.0675  -23.9099 C   0  0  0  0  0  0  0  0  0  0  0  0
    5.6324    3.2288  -16.9841 C   0  0  0  0  0  0  0  0  0  0  0  0
    3.5618    4.4688  -26.7497 C   0  0  0  0  0  0  0  0  0  0  0  0
    6.2006    6.7307  -23.2130 N   0  0  0  0  0  0  0  0  0  0  0  0
    5.0970    5.1418  -24.5876 N   0  0  0  0  0  0  0  0  0  0  0  0
    5.8662    4.5165  -22.4771 N   0  0  0  0  0  0  0  0  0  0  0  0
    5.6126    3.1607  -18.4620 N   0  0  0  0  0  0  0  0  0  0  0  0
    4.3136    3.0448  -20.4504 N   0  0  0  0  0  0  0  0  0  0  0  0
    3.1980    3.4837  -18.4769 N   0  0  0  0  0  0  0  0  0  0  0  0
    7.8971    3.2983  -18.6238 O   0  0  0  0  0  0  0  0  0  0  0  0
    4.2915    5.7231  -26.7515 O   0  0  0  0  0  0  0  0  0  0  0  0
    5.8177   -3.1365  -21.4542 F   0  0  0  0  0  0  0  0  0  0  0  0
    5.3171    8.2719  -26.3708 F   0  0  0  0  0  0  0  0  0  0  0  0
    7.2854    0.9986  -22.6041 H   0  0  0  0  0  0  0  0  0  0  0  0
    3.8008    0.6858  -20.0710 H   0  0  0  0  0  0  0  0  0  0  0  0
    7.4327   -1.4758  -22.7012 H   0  0  0  0  0  0  0  0  0  0  0  0
    3.9728   -1.7880  -20.1553 H   0  0  0  0  0  0  0  0  0  0  0  0
    6.3609    5.3148  -20.5573 H   0  0  0  0  0  0  0  0  0  0  0  0
    7.7717    4.9067  -21.5915 H   0  0  0  0  0  0  0  0  0  0  0  0
    6.0068    2.5798  -23.3492 H   0  0  0  0  0  0  0  0  0  0  0  0
    4.3345    3.1327  -22.9968 H   0  0  0  0  0  0  0  0  0  0  0  0
    7.6399    2.6300  -21.1072 H   0  0  0  0  0  0  0  0  0  0  0  0
    7.0032    9.1226  -22.8924 H   0  0  0  0  0  0  0  0  0  0  0  0
    7.3723    9.3212  -24.6391 H   0  0  0  0  0  0  0  0  0  0  0  0
    5.7551    9.7789  -24.0051 H   0  0  0  0  0  0  0  0  0  0  0  0
    4.6014    3.2048  -16.6015 H   0  0  0  0  0  0  0  0  0  0  0  0
    6.1914    2.3695  -16.5851 H   0  0  0  0  0  0  0  0  0  0  0  0
    6.1196    4.1625  -16.6666 H   0  0  0  0  0  0  0  0  0  0  0  0
    3.0822    4.3215  -27.7286 H   0  0  0  0  0  0  0  0  0  0  0  0
    4.2581    3.6399  -26.5543 H   0  0  0  0  0  0  0  0  0  0  0  0
    2.7919    4.4938  -25.9644 H   0  0  0  0  0  0  0  0  0  0  0  0
    3.4527    3.2401  -20.9203 H   0  0  0  0  0  0  0  0  0  0  0  0
    2.3339    3.5181  -18.9790 H   0  0  0  0  0  0  0  0  0  0  0  0
    3.2078    3.6312  -17.4879 H   0  0  0  0  0  0  0  0  0  0  0  0
  1  3  2  0
  1  5  1  0
  2  4  1  0
  2  5  2  0
  3  6  1  0
  4  6  2  0
 16  5  1  6
  6 28  1  0
  7  8  2  0
  7  9  1  0
  7 29  1  0
  8 17  1  0
  8 20  1  0
  9 21  2  0
  9 27  1  0
 10 20  2  0
 10 21  1  0
 10 22  1  0
 11 15  1  0
 11 23  1  0
 11 26  2  0
 12 23  1  0
 12 24  2  0
 12 25  1  0
 13 15  1  0
 13 22  1  0
 14 16  1  0
 14 22  1  0
 15 16  1  0
 16 24  1  0
 18 23  1  0
 19 27  1  0
  1 30  1  0
  2 31  1  0
  3 32  1  0
  4 33  1  0
 13 34  1  0
 13 35  1  0
 14 36  1  0
 14 37  1  0
 15 38  1  6
 17 39  1  0
 17 40  1  0
 17 41  1  0
 18 42  1  0
 18 43  1  0
 18 44  1  0
 19 45  1  0
 19 46  1  0
 19 47  1  0
 24 48  1  0
 25 49  1  0
 25 50  1  0
M  CHG  1  24   1
M  END
>  <OMEGA_C>  (10) 
Ox3SQHzZyj7AjbDB0ReTQFmnYT5hEaXBst/UQOh3gL95+7DBeiCWQGb3lr/leKXBGFSxQCQzgz80
i6rBYhK3QCws5b+hYKvBQ7OuQBL/6kDELcvB5c/CQPZP9UDKZ8HB5HCeQJ5owUAZnMzBtxa3QFib
r0B5hbvB+AnaQCtDS0AiepnB0kiMQGrKTkCnOJnBqkbYQFExk0AHV6rBSgasQEbcSEB/I7XBWMHY
QCmXS0DbsqXBMDWvQB9HI0AB/qnBw9bSQKEUEUF0R7/Bzzy0QOGjTkBn34fBfPRjQBYAj0Bb/9XB
B2vGQCVi10BMtLnByRqjQD2JpEBns8TBhLe7QDqHkEAw0bPBTZqzQFpJSkAxspPBzwiKQGPeQkB8
mqPBIqxMQED0XkCl0JPBvLT8QMkWU0CD/ZTBRVSJQIYjt0AYA9bBoSq6QNi7SMAooqvBiyWqQLJZ
BEFN99LB4CHpQIehfz9D1bTBgkBzQLqNLz9RkaDBjtjtQN7lvL8AnLXB7EF+QKfc5L8WPqHBGYzL
QL0SqkBUdaTB77H4QAAEnUBqu6zB9DfAQKwbJUA0y7rB7rOKQN19SEB3+bfBsnn0QGdSKECO26jB
4BngQBb2EUG2I7fBrunrQKkjFUHKHMXBuim4QEx2HEFpCsDBXT6TQDscTUDxz4TBLiDGQPGlF0A+
roTBvdPDQD0zhUBJVYXB/UJFQA5KikA61N3BPUKIQDX0aEAtb9TBsK4yQNHMj0Aet8/BbflcQDde
T0DPXKfB514VQPMnYUAT1ZfBC0xNQINlaEAo54vBkbWRQEzAYD52TaXB9snRQNjJzj75Z7DBBzSU
QKoOl7+V96XBCivUQIDbfr/lCbHBFauwQAmkgz/ie6rBrWa1QLa15L8a0KvBpoWvQIfJ6kByVMvB
OkHDQI4j9UBjg8HBNf6eQMVKwUAvwMzB7uG2QFORr0B5lrvBWSPaQHBWTECWepnBcF6MQGtpTUAu
8ZjBpI7XQMJgk0BTV6rBbr+qQLJBSUDzBbXByznYQJEaTECpr6XBX4iuQMGKI0DD3qnB9ZHTQMPy
EEHrZr/Bk0O1QLWMUECmv4fBGmhlQLb3jkClNdbB2mbGQNZK10BKx7nBixijQI2DpEA3y8TBQUC7
QDyMkEAt2bPBegm0QEaQSkBij5PBPqmJQCeWQkCcVqPBZyNNQIhjW0CsX5PBi/j8QN8XVkBbIpXB
/0uKQDP3tkCmNNbBcKq3QOp/SMBjbazBS6KrQDkvBEHRK9PBfTdwQK9yLj/D06DBB17pQC0wgT8s
drTBjS95QLRW5b+z+6HBcZjtQC1iu79wiLXBOpHKQEU0qkBke6TBAPj3QCpinUAisazBGSu+QL26
JEACxbrBzDGJQMHlSUChrrfB0tXzQOXVKEC756jBFJ3gQIXXEUGfPbfBOd/sQAXdFEHDMsXBQhi5
QEltHEHBO8DBEnaUQAwTTkBakoTBe+THQNq/GkAfgYTBtlzEQHSjhkBtY4XBUm9HQH4tikDnFN7B
nL6IQB2xaECritTBsoYzQD4NkEBnAdDBnfBbQLCST0AeAafBnFkVQE3pXEAfSpfBRnlOQAHvY0B1
covBJNGPQIDyjj684abBCcPTQCxw6T7Pc7DBDVKPQMk3jb+k1KjB5PPSQFbIbL8odLLBSB+yQEqr
iT8rq6rBWbqwQKYP2r+lpK7Bxm2qQDSq5UADJMzBtI6cQCb8ukD4rczBE0q+QCA79EC+ssLBZ0u4
QBBir0ALlbvBkUraQHN9TUBK4ZjBXoaMQLnoTUDw7JjBMobZQLxFlUCJ2KnBAjSuQBubS0DEpLTB
2RHaQBELT0C3JKXBReSwQJlDJkCOlqnBg9GBQETGqkCn69XBP/2yQDHLR0DAcIfBjVziQPoEFkEK
ErnBQImjQBoFoUAJYsTBnV7FQOJy2EDnhrrBFmm9QGQAkkAecrPBi26zQImFSECERZPB30KLQH9c
RUDwWaPBQj1MQKcWXEDdoJPBlYb8QO8oVUCpMJTBcszHQGasD0Fl88HB5dKvQAf5QcAvmrDBPfGj
QLRVAEG0b9TBFOZrQGHNPD+YeqLBVDHuQJqHhj9pVrPBu3pqQMB72r+D3KXB/pHsQOi6sb+O6bbB
mz/MQDQirEAXCaTBT/v5QD9cn0BbIqzBA8bCQDviJ0BiN7rB1wGNQNWVSkBXkbfBthn2QHY4LED7
NKjBGvhuQFvFiUDlR9TBiRJLQMdbv0BB59bBrv2UQHpqq0CDTN3BUMKRQN2nQ0CalYTBWSnFQB43
EEDUhITBz7rBQCp8gUClaoTBWJ/nQLxpJ0GhWLnBk2fSQErFEUEQhbHBOaoAQUm2DUFDkbnBRpNg
QK0cVECbPafBkJIVQF90X0BbxJfBOZZLQDrvYkC5rIvBbwrTQIr6Bj9O5bDB+NOQQDCwkD4mrabB
9yLUQOKyW791m7LBIkWSQNBzjb/vVKjBunixQJiMjj+u3qrB1tWzQCFI1r/0Sq7BNhysQMya5EBN
rszBG8adQDsTukC+78zB3ZvAQJ7N80CVYMPB1uW3QKNcsEBgmbvBqO/ZQHgaTUDA9ZjBkiGMQP4a
TEBLp5jBkE3YQKZhlkA4wqnBArqrQDS7T0A6crTBzujYQGarUEAvN6XBR3mvQFJkKEB8kKnBtrmD
QEzjqECLL9bBs9yzQK6uREC7XIfBI8nhQCdUFkF6d7nBNeCjQFQhoUAga8TBp3jGQH4K2UA97LrB
mam6QOIllEA4HbPBW3qzQJruRkDkMJPBGCiKQGRmRUAxFqPBZvRLQGrGV0CzJ5PBAY38QDjqUkDJ
Z5TBVQDNQAsmD0HcIsPBBd20QLp3QMBy8q/BGZ6lQErE/kB8JNXBcvLrQMKFkz/kMLTB14dtQAWy
Nz/LMaLBV7ztQO0Jpr+YOrfBTSJzQApZ3r/vBaXBvEPMQFUVrUCRvqPB9In4QL0hoEB0UazBCfS/
QE5eLUAqOrrB9EmKQNWlTkBBMbfBCrD0QKYXLkD8dajBehdyQI4piEAiWdTB71NPQGyAvUAGetfB
EoWXQOSBqEA9dt3BTNmSQCHEP0AUX4TBVWbGQKT2DEDZoYTBo6LCQD+lf0CmSITB6w/qQNRdJ0Gf
O7rB0AfMQDMkFEG5orLBjhr/QOzxDEE6KbjBAaRdQN0rVEAn0KbB7KgUQFvHWkBtKpfBVkhMQGot
XUAJL4vB

>  <OMEGA_E>  (10) 
AEr+PCC9Cj3kdIE+MLOBPg==

>  <OMEGA_NBR>  (10) 
     24020

$$$$
220584
     RDKit          3D

 50 53  0  0  1  0  0  0  0  0999 V2000
    4.5695    0.2360  -20.6695 C   0  0  0  0  0  0  0  0  0  0  0  0
    6.6004   -1.0486  -22.1278 C   0  0  0  0  0  0  0  0  0  0  0  0
    5.5484    1.0212  -21.3300 C   0  0  0  0  0  0  0  0  0  0  0  0
    4.6102   -1.1630  -20.7313 C   0  0  0  0  0  0  0  0  0  0  0  0
    6.5683    0.3556  -22.0758 C   0  0  0  0  0  0  0  0  0  0  0  0
    5.6274   -1.8071  -21.4566 C   0  0  0  0  0  0  0  0  0  0  0  0
    5.4837    7.3389  -25.4223 C   0  0  0  0  0  0  0  0  0  0  0  0
    6.0866    7.6718  -24.1898 C   0  0  0  0  0  0  0  0  0  0  0  0
    4.9673    6.0413  -25.5956 C   0  0  0  0  0  0  0  0  0  0  0  0
    5.7138    5.4977  -23.4476 C   0  0  0  0  0  0  0  0  0  0  0  0
    6.8186    3.1969  -19.1789 C   0  0  0  0  0  0  0  0  0  0  0  0
    4.3925    3.2113  -19.1271 C   0  0  0  0  0  0  0  0  0  0  0  0
    6.7235    4.6268  -21.2780 C   0  0  0  0  0  0  0  0  0  0  0  0
    5.3282    3.1625  -22.6281 C   0  0  0  0  0  0  0  0  0  0  0  0
    6.7666    3.2077  -20.7058 C   0  0  2  0  0  0  0  0  0  0  0  0
    5.4763    2.5564  -21.2447 C   0  0  2  0  0  0  0  0  0  0  0  0
    6.6062    9.0683  -23.9326 C   0  0  0  0  0  0  0  0  0  0  0  0
    5.6535    3.2561  -16.9690 C   0  0  0  0  0  0  0  0  0  0  0  0
    3.5645    4.4725  -26.7625 C   0  0  0  0  0  0  0  0  0  0  0  0
    6.1895    6.7417  -23.2214 N   0  0  0  0  0  0  0  0  0  0  0  0
    5.0959    5.1471  -24.5973 N   0  0  0  0  0  0  0  0  0  0  0  0
    5.8645    4.5267  -22.4859 N   0  0  0  0  0  0  0  0  0  0  0  0
    5.6253    3.1649  -18.4458 N   0  0  0  0  0  0  0  0  0  0  0  0
    4.3172    3.0317  -20.4255 N   0  0  0  0  0  0  0  0  0  0  0  0
    3.2073    3.4409  -18.4415 N   0  0  0  0  0  0  0  0  0  0  0  0
    7.9063    3.3237  -18.6277 O   0  0  0  0  0  0  0  0  0  0  0  0
    4.3216    5.7111  -26.7766 O   0  0  0  0  0  0  0  0  0  0  0  0
    3.6650   -1.8840  -20.0874 F   0  0  0  0  0  0  0  0  0  0  0  0
    7.5251    1.0306  -22.7583 F   0  0  0  0  0  0  0  0  0  0  0  0
    5.6706   -3.1563  -21.5148 F   0  0  0  0  0  0  0  0  0  0  0  0
    5.3763    8.2540  -26.4125 F   0  0  0  0  0  0  0  0  0  0  0  0
    3.7828    0.7225  -20.1120 H   0  0  0  0  0  0  0  0  0  0  0  0
    7.3780   -1.5473  -22.6873 H   0  0  0  0  0  0  0  0  0  0  0  0
    6.2861    5.3248  -20.5489 H   0  0  0  0  0  0  0  0  0  0  0  0
    7.7343    4.9655  -21.5491 H   0  0  0  0  0  0  0  0  0  0  0  0
    5.9077    2.5910  -23.3682 H   0  0  0  0  0  0  0  0  0  0  0  0
    4.2711    3.1888  -22.9312 H   0  0  0  0  0  0  0  0  0  0  0  0
    7.6406    2.6748  -21.1085 H   0  0  0  0  0  0  0  0  0  0  0  0
    7.0231    9.1236  -22.9162 H   0  0  0  0  0  0  0  0  0  0  0  0
    7.3917    9.3077  -24.6645 H   0  0  0  0  0  0  0  0  0  0  0  0
    5.7817    9.7899  -24.0304 H   0  0  0  0  0  0  0  0  0  0  0  0
    4.6258    3.2140  -16.5788 H   0  0  0  0  0  0  0  0  0  0  0  0
    6.2351    2.4164  -16.5609 H   0  0  0  0  0  0  0  0  0  0  0  0
    6.1207    4.2057  -16.6692 H   0  0  0  0  0  0  0  0  0  0  0  0
    3.0991    4.3154  -27.7467 H   0  0  0  0  0  0  0  0  0  0  0  0
    4.2390    3.6332  -26.5378 H   0  0  0  0  0  0  0  0  0  0  0  0
    2.7817    4.5303  -25.9919 H   0  0  0  0  0  0  0  0  0  0  0  0
    3.4499    3.2202  -20.8861 H   0  0  0  0  0  0  0  0  0  0  0  0
    2.3393    3.4647  -18.9375 H   0  0  0  0  0  0  0  0  0  0  0  0
    3.2216    3.5826  -17.4517 H   0  0  0  0  0  0  0  0  0  0  0  0
  1  3  2  0
  1  4  1  0
  2  5  2  0
  2  6  1  0
  3  5  1  0
 16  3  1  6
  4  6  2  0
  4 28  1  0
  5 29  1  0
  6 30  1  0
  7  8  2  0
  7  9  1  0
  7 31  1  0
  8 17  1  0
  8 20  1  0
  9 21  2  0
  9 27  1  0
 10 20  2  0
 10 21  1  0
 10 22  1  0
 11 15  1  0
 11 23  1  0
 11 26  2  0
 12 23  1  0
 12 24  2  0
 12 25  1  0
 13 15  1  0
 13 22  1  0
 14 16  1  0
 14 22  1  0
 15 16  1  0
 16 24  1  0
 18 23  1  0
 19 27  1  0
  1 32  1  0
  2 33  1  0
 13 34  1  0
 13 35  1  0
 14 36  1  0
 14 37  1  0
 15 38  1  6
 17 39  1  0
 17 40  1  0
 17 41  1  0
 18 42  1  0
 18 43  1  0
 18 44  1  0
 19 45  1  0
 19 46  1  0
 19 47  1  0
 24 48  1  0
 25 49  1  0
 25 50  1  0
M  CHG  1  24   1
M  END
>  <OMEGA_C>  (11) 
kjmSQLmgcT40W6XBgzbTQK43hr+5BbHBtIyxQGq3gj+/o6rBI4eTQNXdlL+82aXBsC/SQC0Utj5F
m7DBsxO0QBtQ578Mp6vBSnqvQIXY6kDLYMvBxsXCQLd/9UChhMHB7/OeQEZSwUC+w8zBDde2QBLt
r0DElLvBSzLaQMaZTEBTbpnBe4+MQJyFTUA4BJnBDSfXQMMOlEBAOarBy4CqQHtmSkBrBrXBLojY
QHlLTUB+paXBjT2vQOCbI0Ax9anByGXTQNUXEUH5db/BHOm0QNBjUEBvwIfBwyBkQOMej0CNGdbB
BBDGQBy810CGxbnBOhGjQCe1pEBcx8TBxqm7QFXakEAJ47PBlwK0QCOOSkDskJPBzyaKQP8GQkCE
Z6PBhkRNQOY3XEA7iJPBwgD9QC+4VECbBZXBoUqKQDrBtkCUNtbB8Y9qQGkm8b8Xs6DBk83wQJzp
gz/5ELbBrXW1QAwASsBFHqzBSgqsQI4QBEHLTNPBGxpyQAr0OD9j5aDBdBjsQDoOxr+Qf7XBAyjJ
QLFkqkAqZKTBsn/3QKzlnkB7ZKzBrQu9QLTTJUAI8rrB66yIQGwVTED/crfBu3/0QIEvK0Ak3qjB
CL3gQFL6EUFRVLfBuojsQGrsFEHeUMXBvQO5QHmjHEExPsDBxgaUQMOxTUBwoYTBP4bHQMWlGkC8
fITBtdzDQGeVhkB/WoXBk1dGQIkXikBA+d3BC6aHQK2FaEBWTdTByAYyQN33kEBZ78/Br8pcQJEX
TkDLFqfBbrcVQA29XUAUgJfBiy5OQLdIZUAYnYvB+TPSQKoY2z5nR7DBaqOWQOsmn793I6bBoxyw
QJr+gT/ab6rBY5/WQMu9dr8f/LDBJJSRQAnYGj46eqXBKQi5QJGQ5r950qvBA3iuQDYT60AUN8vB
ZL7BQNaJ9UAcWMHBXuWeQMlBwUAxv8zBJOO2QPl6r0Acm7vBYvTZQGUxS0AqiJnBnVCMQJUSUEBc
+pjBhCfXQCBRk0AUT6rB0nmqQE3+SEB4D7XBCtPXQIrVS0CFuaXBN9mtQGGfI0Aq3qnBalbRQDo/
EUERJL/BABi1QBYRTkDxx4fBckpqQCGCjUC+dtbB4oHFQCN110DnrrnBtoOjQMtTpEDY2cTBDoq7
QKBLkECA7rPBT+SzQPe6SkCBmpPBpo6JQNLxRUB0Y6PBqCpNQBSpXUBTXZPB+gL9QDp6UUDNM5XB
BLKKQE6qtkCeQNbBiVz3QIvAvr/lq7bBWp1dQEHlGj83J6DBLzK9QCY6ScBVZ6zBqU2qQLphBEFo
BdPBPCfpQB9FiD+KQLTBsq1/QPIs8r8wPKLBz47JQGntqUDPe6TB0qL3QAWlnUDYgazBUMC9QNe4
I0Axw7rBafiIQHldSkCgwLfBsEXzQDeCKED4BKnBQ3jeQL4YEkG//LbB/GrqQO57FUHR8MTBkne2
QAOEHEH15L/BBTyUQLsfTUC4oITB7cTGQKhaFkBttoTB7y7FQCyahEB+NYXBhMRMQPqeiEDRW97B
wIOMQB/PZ0CI79TBeGw4QLXPjEAuQdDBx5tcQE62VUDVFqfBmkcVQGxzX0CtQZfBuLNOQBWoZUD3
bYvBqseRQEg4nT6nVqbBLU7TQMrsdb/K8LHBHIKzQHpviz/onarBE++QQGtmir9Hy6fBhIvUQEiO
3T5ShbDBDquxQIrE27/Ol63BwuaoQFbH5UChTszB3WSbQGj+ukBet8zBpXq9QB699EBVAMPBpJu4
QB4JsEC9u7vB3SbaQMTPTkBmyJjBCGSMQJbnT0Da/5jBo2zYQHj2lkBroanB5vStQLaWTUBUoLTB
bizaQGwxUkBUC6XB4J+xQMK7J0ADnanBkXaAQKQ3qkDo3NXBQ4ixQB45R0AXa4fBdcTgQBu7FkGH
hbnBl0SjQMxRoUDvasTBvIXFQPI42UAV0brBQ6u+QDqckkAVorPBnBKzQBDCTUDKO5PB7J2LQHQE
RkCPaKPBHANLQIAqW0AL0JPBVpP8QD7rTEDyFpTBQMXGQPL4D0F8bMLBbm1gQKou5r+Vp6PB/jf1
QIgPjj8bKbXBTMiwQPWEQ8BJEK/BBX6hQPA/AEFinNTB2NdwQESbST/S5qHBkl3sQP31ub+sZrbB
2rfIQAffrEC7+KPB6cr4QELEokDzbqvBXCHBQMydKEBDYbrBrFmMQEiaTkC5PbfBkbH2QNAuMUCO
I6jBE4ttQIUQiUDRKtTBgZRHQD9PvkBmxdbB5z+TQGwXq0A2Td3BlP+PQM98R0BDvoTB2vrAQJJX
C0B93oTBcnzCQB78fUC33YPBAOHlQIMfKEGO87nBKW/QQL69EkFh/LHBndb/QJ17DkFq1LnBXCVh
QBg7U0BrWqfBw44UQOiDW0AFBJjB2HRJQGbtYkDF34vBh1HTQORM/j6n1bDBWPSWQFIsm7/IbafB
2LmxQAOjhz9PpqrB8GHWQFhdY7+EZLLBTCKTQLA/ND7Q86XB/kq4QKlV37/Coa3B5SaqQOv45kAy
G8zBOxOcQBtdvECvs8zB56+/QP2x9EBw0MLBwNW3QGEIsEAlpLvBfp7ZQIYxS0DIDZnBwfqLQChR
UEDX8JjBRPDXQOtplUBlzKnBYGOsQESTTEBiurTB5cfYQHDHTkA9TaXBVlmvQPBIJkAWrKnBkCqD
QLPeq0BwONbByvayQMYBRkCgh4fBUNTWQE5xF0HEwrfBSf6iQPUTokBMdsTBEGnGQHWn2EDzqrrB
4qa8QC9PkkCLjLPBVfOyQJhiSEDQW5PBBUyKQCpbR0BjXqPBm4JLQDKlXkDNkJPBRj78QHhbTUBI
dJTBYLvMQIV2D0EbS8LBtjD2QAvWsb/RibjB/DRjQJQSGz/hC6DB1ge7QJsxRcAXEa/B64+iQIBH
AUH9OdTB4e3qQPXWkj/kZrTBOQCAQEYl8L+fwKPBw9fJQPKrq0Bj9qPBoGn4QDsmoEDg4KvBxzjA
QOw/KEDgZ7rBZAKLQIcYTUBshbfBuKX0QFNyLEBTiqjBycVzQBNjikBwz9TBOodMQJZ0v0B5V9fB
ZDqXQEjHrUCAb93BR8uRQIL9Q0BnmITBdy3EQFeuDEAjx4TBNvHCQLWUf0C2aoTBV7/gQJ5KKEHC
U7jB8Ge6QD0xFkGGm7LBPAjxQITsDUGFULTBTrxeQEQqV0BHNqfBkIsUQHHNYUAKpZfBdGxLQFfO
ZUCpnYvB

>  <OMEGA_E>  (11) 
wIsOPcAnbz0YgIE+hFCIPg==

>  <OMEGA_NBR>  (11) 
     27702

$$$$
220589
     RDKit          3D

 49 52  0  0  1  0  0  0  0  0999 V2000
    4.5346    0.2512  -20.7628 C   0  0  0  0  0  0  0  0  0  0  0  0
    6.5743    0.4415  -22.0961 C   0  0  0  0  0  0  0  0  0  0  0  0
    4.5904   -1.1451  -20.8879 C   0  0  0  0  0  0  0  0  0  0  0  0
    6.6215   -0.9545  -22.2246 C   0  0  0  0  0  0  0  0  0  0  0  0
    5.5365    1.0595  -21.3538 C   0  0  0  0  0  0  0  0  0  0  0  0
    5.6348   -1.7471  -21.6123 C   0  0  0  0  0  0  0  0  0  0  0  0
    5.4373    7.2401  -25.4710 C   0  0  0  0  0  0  0  0  0  0  0  0
    6.0964    7.6205  -24.2768 C   0  0  0  0  0  0  0  0  0  0  0  0
    4.9229    5.9301  -25.5688 C   0  0  0  0  0  0  0  0  0  0  0  0
    5.7168    5.4909  -23.4250 C   0  0  0  0  0  0  0  0  0  0  0  0
    6.8153    3.2043  -19.1698 C   0  0  0  0  0  0  0  0  0  0  0  0
    4.3836    3.2140  -19.1415 C   0  0  0  0  0  0  0  0  0  0  0  0
    6.7887    4.6251  -21.2856 C   0  0  0  0  0  0  0  0  0  0  0  0
    5.3883    3.1753  -22.6135 C   0  0  0  0  0  0  0  0  0  0  0  0
    6.7863    3.2056  -20.6965 C   0  0  2  0  0  0  0  0  0  0  0  0
    5.4863    2.5801  -21.2382 C   0  0  2  0  0  0  0  0  0  0  0  0
    6.5968    9.0345  -24.0753 C   0  0  0  0  0  0  0  0  0  0  0  0
    4.1277    5.4577  -26.7675 C   0  0  0  0  0  0  0  0  0  0  0  0
    5.6215    3.1869  -16.9740 C   0  0  0  0  0  0  0  0  0  0  0  0
    6.2235    6.7330  -23.2708 N   0  0  0  0  0  0  0  0  0  0  0  0
    5.0643    5.0942  -24.5389 N   0  0  0  0  0  0  0  0  0  0  0  0
    5.8404    4.5593  -22.4266 N   0  0  0  0  0  0  0  0  0  0  0  0
    5.6113    3.1494  -18.4518 N   0  0  0  0  0  0  0  0  0  0  0  0
    4.3215    3.0641  -20.4422 N   0  0  0  0  0  0  0  0  0  0  0  0
    3.1924    3.4296  -18.4622 N   0  0  0  0  0  0  0  0  0  0  0  0
    7.8908    3.3669  -18.6045 O   0  0  0  0  0  0  0  0  0  0  0  0
    5.6890   -3.0911  -21.7207 F   0  0  0  0  0  0  0  0  0  0  0  0
    5.2952    8.1134  -26.4934 F   0  0  0  0  0  0  0  0  0  0  0  0
    3.7257    0.7110  -20.2145 H   0  0  0  0  0  0  0  0  0  0  0  0
    7.3335    1.0494  -22.5656 H   0  0  0  0  0  0  0  0  0  0  0  0
    3.8302   -1.7586  -20.4272 H   0  0  0  0  0  0  0  0  0  0  0  0
    7.4139   -1.4193  -22.7925 H   0  0  0  0  0  0  0  0  0  0  0  0
    6.4467    5.3562  -20.5382 H   0  0  0  0  0  0  0  0  0  0  0  0
    7.7957    4.8996  -21.6329 H   0  0  0  0  0  0  0  0  0  0  0  0
    6.0413    2.6413  -23.3195 H   0  0  0  0  0  0  0  0  0  0  0  0
    4.3515    3.1475  -22.9800 H   0  0  0  0  0  0  0  0  0  0  0  0
    7.6508    2.6461  -21.0831 H   0  0  0  0  0  0  0  0  0  0  0  0
    7.0201    9.1337  -23.0649 H   0  0  0  0  0  0  0  0  0  0  0  0
    7.3734    9.2583  -24.8216 H   0  0  0  0  0  0  0  0  0  0  0  0
    5.7608    9.7395  -24.1934 H   0  0  0  0  0  0  0  0  0  0  0  0
    3.7684    4.4334  -26.5893 H   0  0  0  0  0  0  0  0  0  0  0  0
    3.2679    6.1258  -26.9234 H   0  0  0  0  0  0  0  0  0  0  0  0
    4.7691    5.4708  -27.6611 H   0  0  0  0  0  0  0  0  0  0  0  0
    4.5890    3.1339  -16.5982 H   0  0  0  0  0  0  0  0  0  0  0  0
    6.1958    2.3311  -16.5896 H   0  0  0  0  0  0  0  0  0  0  0  0
    6.0875    4.1236  -16.6343 H   0  0  0  0  0  0  0  0  0  0  0  0
    3.4674    3.2808  -20.9151 H   0  0  0  0  0  0  0  0  0  0  0  0
    2.3292    3.4659  -18.9657 H   0  0  0  0  0  0  0  0  0  0  0  0
    3.1975    3.5488  -17.4693 H   0  0  0  0  0  0  0  0  0  0  0  0
  1  3  2  0
  1  5  1  0
  2  4  1  0
  2  5  2  0
  3  6  1  0
  4  6  2  0
 16  5  1  6
  6 27  1  0
  7  8  2  0
  7  9  1  0
  7 28  1  0
  8 17  1  0
  8 20  1  0
  9 18  1  0
  9 21  2  0
 10 20  2  0
 10 21  1  0
 10 22  1  0
 11 15  1  0
 11 23  1  0
 11 26  2  0
 12 23  1  0
 12 24  2  0
 12 25  1  0
 13 15  1  0
 13 22  1  0
 14 16  1  0
 14 22  1  0
 15 16  1  0
 16 24  1  0
 19 23  1  0
  1 29  1  0
  2 30  1  0
  3 31  1  0
  4 32  1  0
 13 33  1  0
 13 34  1  0
 14 35  1  0
 14 36  1  0
 15 37  1  6
 17 38  1  0
 17 39  1  0
 17 40  1  0
 18 41  1  0
 18 42  1  0
 18 43  1  0
 19 44  1  0
 19 45  1  0
 19 46  1  0
 24 47  1  0
 25 48  1  0
 25 49  1  0
M  CHG  1  24   1
M  END
>  <OMEGA_C>  (12) 
YBuRQIKjgD4/GqbBv2DSQJoG4j7OxLDBceSSQE6Tkr9sGqfBaOPTQDpZdL/5y7HBIyuxQHCchz+n
1KrBhVC0QB6i378M5qzBSf6tQAqv50CLxMvBzxXDQGnb80D2NsLBrIidQGfDvUDdjMzB4O+2QCu1
r0BcZrvBzRbaQD0TTUCpW5nBi0aMQNuxTUDDIZnBCD3ZQPIAlEDPSKrBw2ysQOM4S0B36LTBGCnZ
QN0oTUB9kqXBjY+vQHogJUDe56nBTxnTQByNEEFJmsDBRBaEQD6lrkDbI9bBJeOzQLv1S0DLyofB
wSbHQL1010CBKrrBzg6iQE4Do0CcT8TBRuS6QCXmkUDAabPBjo+zQGWQSUBBnZPBnEmKQHgaRECn
iaPBtFBMQD1/W0CTspPB1YH8QNN7V0Ac1pTBQAy2QDfVRcAXxK3BMHKpQG7QAUFy8tPBPXFuQJcF
Nj9Rt6HBo6vqQN1Thj9shrTBIyJ1QLQY4b/6aqPBZD7tQGCstb8DV7bBi0vOQNJlq0AmTqTBJnb5
QG3JnEA9EK3BD1LBQIcLKUBXjrrBmz+LQPZvSUAf17fBYNP0QBtZKUBJqqjBbKTgQHgjEkHchLjB
xfLrQN0hFEGZksbBXli4QPLUG0ERjMHBdS1xQHjejUDNttTBRSVRQKAGxEAkY9fBD5yYQO8Qr0Dy
Sd3BPNmSQAiRSEAvyYTBVUTGQJwwFUCXt4TBGM3CQDT0g0AOE4XBKupdQPz4UUAXUqfBeBEVQJzQ
XUC/uZfBU6RMQFIfY0AwwYvBf+KQQKfKhD5tRqbBGvjSQC/16D7CnbDB+GSSQI5Rkb+QdKfBtjzU
QHJtcL/Hz7HBLXGxQNfliD+sw6rBJBC0QLXp3b9oL63B1UOuQIk650BV7svBiVudQFh0vUBim8zB
Up3DQPKE80A3bMLBz9u2QD3Ar0DMb7vBuRTaQIR8TkDSSJnB6zaMQIgRTkBeDJnBiB/ZQKh9lECF
QarBSoWsQCWcS0AB1rTBNC7ZQFJATkDVfqXBFLCvQLbEJUA50anBs+iDQIgqrkC9L9bBCsDTQExh
EEGh4MDB3+SzQAwOT0C6tYfB8qKhQK/6okADTMTBIYzHQL5a10CmUbrB/by6QEcukkC6YbPBb42z
QHmSS0BQiJPBpU6KQBN4REABdaPBbNZLQJZiWUCsmJPB2aD8QJsoV0C8xJTB73i1QCTdRMANPq7B
mfKpQAp1AUF7LNTB2ahtQDVdNz+s7qHBlrHrQGA9iD9ALbTB1lNzQCAF4L9T9aPBft7tQMJZs7+J
RrbBUCTOQGnzq0AeTKTBz1D5QEFPnUDQDK3BDInBQNqAKUCDdrrBZl2LQD5mSUA5x7fBkuv0QAGO
KkA+kajBoFpwQGuEjUCtstTBixpRQCGvw0D+f9fB+oOYQOIzrkApUt3BJzzhQA4OEkHEyrjByavs
QDfYE0GU2MbBbRK5QASwG0Gl38HBeduSQFX/S0BTsoTBskDGQLmJGEDHjoTBgtbCQGKchUBWFIXB
lPFdQNQiUkDIP6fBO38UQIL9WUAwnZfBKQRMQCfuYED2povB5qHTQE5S7T5lWrDBljSRQLILiz6V
JabBQXbUQG2sbb/btrHBjlKSQHyWj79ceafB3QOyQOI1ij+Ui6rBatazQCgz3L80Q63BSjWsQHuA
50AX48vB7vHBQMXt80DJccLBcjecQJ1ivUC0l8zBdpq3QCh/r0C/m7vBcxraQPyeT0BaLZnBBiWM
QFF2UEC2D5nBGOTYQO4flUBTIqrBHAitQGNHS0AZ0LTBjmPZQI+MT0CQYqXBhR6wQDSAJkBZtqnB
GgXSQLKeEEEn+sDBjTiCQOP/rUD3EtbBJ0izQLvVT0Cno4fBVTPHQFyG10B3b7rBrRiiQPiNokCu
acTBiYS8QCW8kUB4obPBS2azQIWMUkCCe5PB65GKQHZ4RUCtc6PBzuhKQFHbWEB2tJPBV9b8QPNU
UkBJopTBI5m0QL3RQ8CCk67BMdqmQOWnAUG5ENTBo8fsQCAAiT/MwLPBDoluQI+HOj/pwqHBvBru
QMIEsr8NLLbBvdByQOMg3r+WC6TBbO7LQFY0rEBJVaTBnE/5QIz/nkApg6zBa1DBQLo6J0Aka7rB
grqLQGeASkA5qbfBgU71QO5cLEC5cqjBJangQIc9EkH+A7nBaQHqQFM8FEGzKMfBLRO3QJfaG0Fn
scHBvhRvQLnyjECzpdTBllJMQL/UwkCWINfB4hWWQLgOr0CGVd3BEx+SQOHKUkDotYTB2EDCQML5
E0Aq6YTBKWXFQAdcg0B8f4TBWYxeQOBIUkDITqfBB94TQLBoVkB+xpfBuTZKQOZZYUC0xovBXCrT
QFqb5j7/tbDBfRWRQLhBcj7VZKbB20/UQIbKcL8rH7LB/3GSQLzpk7/TzKfBhJyxQAQIhz9bzarB
EvuzQJQW378DqK3BoX6uQMJE50BM1svBnU2dQOOevUCRiszBHtnDQCxY80DfT8LB08y2QF+Cr0Dt
Y7vB0wPaQAb6TUDcQpnB5TKMQLj0TUBpCZnBRAXZQLYVlEASPKrBeUasQFD7SkAHz7TB9hnZQGt9
TUBceKXB76KvQETQJEC3y6nB3/aDQDmarkCmKtbBE0zUQP86EEGYu8DBT9GzQK5BTkDesofBcWqh
QCb/okALQMTBvK/HQMMF10CSPbrBOKq6QDrRkUAvXLPBPH6zQF3PSkAlhJPBTjKKQMj/QkACbKPB
jilMQChnXECfn5PBV2f8QGwVWUB2wJTBMBK1QDs1RcDjA6/BKWaqQCCEAUEsEtTBMQXsQFhhiD9s
JrTB2FhuQIxLLz+u8KHB7vntQJ12sr/voLbBrGhzQCZt479SYaTBbAjOQKWKq0CnRqTBKjf5QOPn
nEDOBq3BtxnBQG7XKED1ebrB4QuLQPkISUCzs7fBfN/0QE3WKUAxiKjBDT1wQJL0jUCLu9TB/V9R
QBs5xECketfBS6+YQEC7rkDFR93B/+ThQOvLEUFap7jB+THtQHepE0FJtsbBZMG5QNahG0H4r8HB
YsiSQCf9SkAGsITBiUHGQH7XF0BOjITB26rCQL9AhUB/EIXBf1JdQK1HT0CYMqfBLeQUQDclXkCj
ppfBiIZMQN4QZUCBsovB

>  <OMEGA_E>  (12) 
QEUUPmBBGj7QlBw+0DQdPg==

>  <OMEGA_NBR>  (12) 
     31332

$$$$
220591
     RDKit          3D

 51 54  0  0  1  0  0  0  0  0999 V2000
    4.5502    0.2588  -20.6950 C   0  0  0  0  0  0  0  0  0  0  0  0
    4.5659   -1.1397  -20.8000 C   0  0  0  0  0  0  0  0  0  0  0  0
    6.5846   -1.0217  -22.1539 C   0  0  0  0  0  0  0  0  0  0  0  0
    5.5544    1.0453  -21.3191 C   0  0  0  0  0  0  0  0  0  0  0  0
    5.5816   -1.7795  -21.5274 C   0  0  0  0  0  0  0  0  0  0  0  0
    6.5776    0.3809  -22.0624 C   0  0  0  0  0  0  0  0  0  0  0  0
    5.3772    7.3307  -25.4297 C   0  0  0  0  0  0  0  0  0  0  0  0
    5.9235    7.7089  -24.1956 C   0  0  0  0  0  0  0  0  0  0  0  0
    4.9669    6.0059  -25.6114 C   0  0  0  0  0  0  0  0  0  0  0  0
    5.7934    5.4928  -23.4803 C   0  0  0  0  0  0  0  0  0  0  0  0
    6.8158    3.1929  -19.1467 C   0  0  0  0  0  0  0  0  0  0  0  0
    4.3892    3.2205  -19.1147 C   0  0  0  0  0  0  0  0  0  0  0  0
    6.7261    4.6571  -21.2392 C   0  0  0  0  0  0  0  0  0  0  0  0
    5.3540    3.1868  -22.6129 C   0  0  0  0  0  0  0  0  0  0  0  0
    6.7768    3.2307  -20.6760 C   0  0  2  0  0  0  0  0  0  0  0  0
    5.4907    2.5823  -21.2265 C   0  0  2  0  0  0  0  0  0  0  0  0
    5.6278    3.1922  -16.9444 C   0  0  0  0  0  0  0  0  0  0  0  0
    7.2112    9.4389  -23.2070 C   0  0  0  0  0  0  0  0  0  0  0  0
    3.5237    4.4406  -26.7146 C   0  0  0  0  0  0  0  0  0  0  0  0
    6.1536    6.7758  -23.2415 N   0  0  0  0  0  0  0  0  0  0  0  0
    5.1843    5.1105  -24.6285 N   0  0  0  0  0  0  0  0  0  0  0  0
    5.9625    4.5267  -22.5096 N   0  0  0  0  0  0  0  0  0  0  0  0
    5.6152    3.1537  -18.4238 N   0  0  0  0  0  0  0  0  0  0  0  0
    4.3269    3.0612  -20.4163 N   0  0  0  0  0  0  0  0  0  0  0  0
    3.1981    3.4414  -18.4362 N   0  0  0  0  0  0  0  0  0  0  0  0
    7.9026    3.2580  -18.5831 O   0  0  0  0  0  0  0  0  0  0  0  0
    6.0449    9.0547  -23.9436 O   0  0  0  0  0  0  0  0  0  0  0  0
    4.2745    5.6762  -26.7618 O   0  0  0  0  0  0  0  0  0  0  0  0
    5.5872   -3.1253  -21.6340 F   0  0  0  0  0  0  0  0  0  0  0  0
    7.5529    1.0571  -22.7175 F   0  0  0  0  0  0  0  0  0  0  0  0
    5.1766    8.2517  -26.3997 F   0  0  0  0  0  0  0  0  0  0  0  0
    3.7653    0.7432  -20.1331 H   0  0  0  0  0  0  0  0  0  0  0  0
    3.7954   -1.7252  -20.3204 H   0  0  0  0  0  0  0  0  0  0  0  0
    7.3658   -1.5196  -22.7091 H   0  0  0  0  0  0  0  0  0  0  0  0
    6.2091    5.3327  -20.5419 H   0  0  0  0  0  0  0  0  0  0  0  0
    7.7407    5.0357  -21.4321 H   0  0  0  0  0  0  0  0  0  0  0  0
    5.8890    2.5760  -23.3550 H   0  0  0  0  0  0  0  0  0  0  0  0
    4.2943    3.2648  -22.8975 H   0  0  0  0  0  0  0  0  0  0  0  0
    7.6545    2.7056  -21.0811 H   0  0  0  0  0  0  0  0  0  0  0  0
    4.5953    3.1522  -16.5672 H   0  0  0  0  0  0  0  0  0  0  0  0
    6.1921    2.3297  -16.5600 H   0  0  0  0  0  0  0  0  0  0  0  0
    6.1058    4.1234  -16.6061 H   0  0  0  0  0  0  0  0  0  0  0  0
    7.2107   10.5291  -23.0609 H   0  0  0  0  0  0  0  0  0  0  0  0
    7.2077    8.9379  -22.2277 H   0  0  0  0  0  0  0  0  0  0  0  0
    8.1115    9.1444  -23.7663 H   0  0  0  0  0  0  0  0  0  0  0  0
    3.0171    4.2818  -27.6780 H   0  0  0  0  0  0  0  0  0  0  0  0
    4.2088    3.6027  -26.5182 H   0  0  0  0  0  0  0  0  0  0  0  0
    2.7744    4.4975  -25.9114 H   0  0  0  0  0  0  0  0  0  0  0  0
    3.4681    3.2681  -20.8849 H   0  0  0  0  0  0  0  0  0  0  0  0
    2.3346    3.4745  -18.9395 H   0  0  0  0  0  0  0  0  0  0  0  0
    3.2037    3.5675  -17.4442 H   0  0  0  0  0  0  0  0  0  0  0  0
  1  2  2  0
  1  4  1  0
  2  5  1  0
  3  5  2  0
  3  6  1  0
  4  6  2  0
 16  4  1  6
  5 29  1  0
  6 30  1  0
  7  8  2  0
  7  9  1  0
  7 31  1  0
  8 20  1  0
  8 27  1  0
  9 21  2  0
  9 28  1  0
 10 20  2  0
 10 21  1  0
 10 22  1  0
 11 15  1  0
 11 23  1  0
 11 26  2  0
 12 23  1  0
 12 24  2  0
 12 25  1  0
 13 15  1  0
 13 22  1  0
 14 16  1  0
 14 22  1  0
 15 16  1  0
 16 24  1  0
 17 23  1  0
 18 27  1  0
 19 28  1  0
  1 32  1  0
  2 33  1  0
  3 34  1  0
 13 35  1  0
 13 36  1  0
 14 37  1  0
 14 38  1  0
 15 39  1  6
 17 40  1  0
 17 41  1  0
 17 42  1  0
 18 43  1  0
 18 44  1  0
 18 45  1  0
 19 46  1  0
 19 47  1  0
 19 48  1  0
 24 49  1  0
 25 50  1  0
 25 51  1  0
M  CHG  1  24   1
M  END
>  <OMEGA_C>  (13) 
NJuRQFaEhD5hj6XB7xuSQFLjkb9TZqbBWLXSQGfHgr8XO7HBi72xQHjLhT90jarBlZyyQDDF478S
OKzBlHvSQGYEwz7Ef7DB9xGsQBiV6kAacMvB+4y9QDOv9kCwkMHB7PCeQA4wwEAc5MzBuGO5QODE
r0CV17vB5xraQPNXTEBfLJnBenSMQIIcTkDz6pjBYzzXQOIGlUDu6anBPlSrQPj0S0BF57TB09vY
QJ3DTkCLaKXBobOvQKtDJUDgz6nBPhe0QEJNTEAfjofBTcLmQKgFF0Hjp7nBw4RhQHoZjkCJt9XB
O+rEQPfS2ECG7rnByeWlQBGJo0A5B8XB98y+QNvakECTE7TB8a+zQHHVSUD3Y5PBWnaKQEzrQ0CB
VKPBY61MQGZAXEBBfZPBs+H8QECDUEA/qpTBCXDBQALgEEGRjL/B/siIQFejtUAwGNbBgsqyQH8F
SMBuEq3BebHxQHhNhz9dvbXBE6elQOkGBEGAMtPBp/pwQCk/Pj+OEKHBIOhyQNLT3L8ykKLBy7Tr
QLiCwr8jrLXB2bDGQGWlqkDXVaTBN7T3QDgkoUD5dKvBS3K8QMLcJEAa17rBQmuJQB/zUEAJLrfB
gvH0QNgoLUACpqjBqAyTQOK9SUCuiYTB6CXGQIsaFUD7eoTB+mLDQK3yg0A62YTBwL3mQGB3KEHQ
fLjBvqXmQKUBD0FN0rHBs8gBQaJPEkFOIb7BzBdBQG0EiUCEbN3Bhq6GQHeSZkBgJdTBC48xQLHr
j0B9Ss/Bi/VdQJQoUUA/FKfBS2oVQHVdXkAMhJfB0wlNQE1SZECijYvBI2OTQERjcD7MW6XBUZGV
QKkflb8MvaXBKbjVQCpig79Wt7DBi6iyQDo1hD+TkqrBksm2QPjJ5b/RXKvBHe7TQKBuwT6+ZrDB
PS6yQFEA6UCBBczBJz2dQDhrwUDLq8zBIoHJQALa8kB8v8LB2o+3QDhPsEBmpLvB2CTZQGizTUB1
KJnBFnmLQKdUTEB0I5nB0VXXQNTllEAFC6rBEqirQJtMS0D5/bTBjZTYQKXbTkCGaKXBec6vQAZ1
JEAp66nBnC+yQH2+TEAUqYfBVP9jQGYHjkA1CdbB13/XQNxLGUHTO7nB6Y6gQJq3pUBkcMTBzErL
QLKT1kDLlbrBcyW8QJGSkUCtzLPB2nWyQJTnSUD2fpPBdRGKQBwbQkDDjaPBgOJJQPxgWEDW0JPB
qZH7QMnCVEDSiZTBmiOGQC25t0AjztXBCDDgQJ04DEE4bsLBjuS4QNoqScCBpqvB93/yQKQGiD9f
zbXBDd+vQDqtAkFvLdTBUTpzQMAvNj9tDKHBw0x7QF8h4b+OsqHBwgbvQCYtwr+lGbXBURrJQNpM
q0A8Q6TBK8L3QAy6n0BqJKzBgN2+QBc7J0DX07rBfACKQJgXTECqkbfBxur0QIwSLUAweqjB5QKR
QK8DSUB0wYTB65fEQI5WFkAGf4TB0MLAQP5+hEB57oTBbmNBQEQCikALot3B5p+KQDYVakCaUdXB
qL02QElWi0AzVM/BmO3qQJ7zJ0ENoLnBrFy1QLOUHUHAG7nBiYvfQD9eEEHw67HBm2BdQNqgTkAy
Y6fBifISQJYHWUA665fBjVJJQLpnYEAW4YvBDNjTQIbL5j4P9q/BxwHXQAklcb8qCrHBQ6OUQFxY
mr+jG6fBZx+xQHzshT/0YarBIY63QJad4r8ti6zBTdCQQPzAQT59EqbBvZOsQPM26kBul8vBuYC/
QCNd9kAM4MHBnTeeQGMOwEDT0czBPV+4QJgVsECutrvBc+7ZQGGXTEA9IZnBTDCMQKIfUUAO85jB
ZB/YQNbGlEBlAarBI5asQI3XSkA757TBXM7YQKk9TkBYYKXB3EGvQH+1JUBmsqnBmISzQPjiSkD4
hofB5dHsQKKyFEFIYbnB5CtbQFx9j0CeStXBj4/FQErX2ECXD7rBm3qkQKHKo0BL1cTBsni9QINZ
kUCE2bPByG6zQOjuT0DjXpPBxIKKQGH0R0CrYqPByTdLQCmIWkDxj5PBC8D8QO0ZTEDjnJTBfcjJ
QHp1EEG+hcDBeMOIQNDZtEAeE9bBK7G6QMkoR8D3f63B5eJaQCvKJj/NC6HBJI2nQKODA0F2ktPB
QTrsQLRnij+SbrPB5pzxQHcbsL8WU7XBkPZ4QCiy7L9nsKPB46XJQL9Cq0BgSKTBhLX4QLV2n0Ax
/avB5DjAQO5UJUDHgLrBqDyLQL3sS0A2t7fBgZT0QBlUK0BCkajBhnOSQKKXTkDHi4TBz+/BQMHr
DUDPAIXBpT3GQCEzgEAvPoTBiEDyQD4PJkFi5LjB3iTlQC90DkEcYbHBJ/EEQaLRDEGfZrzBOFw8
QM2GiUDtD93BnweBQCwgZ0BnCtPBu8UpQLr4lEBaLM/BTGZfQEd7WECyO6fBUB8UQKgkWkDyoZfB
pcBKQACyYUDdnIvBvNvUQOol8j64SLDBRrfaQCqKab9lD7HBj1SZQE7Iob9J4KbBZ6CxQHGCgj+V
lKrBzjy9QM3f47+bO6zBhviSQF2n/j1KFqbBzm60QHSS6EDQjcvBheSdQJbGwUDNkszBNjnLQOp5
8EAjAsLBABi1QIHPrkBzcLvBnDXZQN8LUECoaJnBh3OLQAajUEAg9pjBwgfXQKU3k0BgharBdcep
QB6gSECy57TBhH7XQLAzTUAbmKXB7PCtQOBJI0CgxKnBIcGzQAepUkCstIfBPPdlQF7gj0DElNbB
zIrKQJNQHUFLzL7BWH2eQFGlpUBcYcTBRvPKQFSF00CKJLrBLRW4QAejkEBCiLPBkwSzQAzWU0Ac
jpPBHg2JQEk3Q0CrT6PBhmJKQGKXWkDvc5PB1j78QOluVkCqEZXB/reIQJ3SuEBEDtbB9GfjQOpM
CkHlmsDBJELDQPRZR8Dny6zBPBReQIetCz/WEqHBRsm0QPqZAkEaqtPBfH7rQMR8kT9lFbTBI9j1
QDO9p7+jXLXB+maCQOlJ+L/0VKPBd3bMQNgLq0B4m6TBCg33QMbRm0Djea3Btlu+QNRRJkD4nLrB
smWIQH49RkBDrrfB8TfzQBVWKUDYpKjBK9CSQIAcVkBkooTBzeDCQKocF0CJ7ITBeCHGQALxhEA3
woTBWutGQHFpjEB5bt7BUF2KQOzia0Dud9XBCUY1QJE0jkA9PdDByBjgQP8RK0H5v73B94C1QLMo
IEFetcXB9Py2QFxDG0GSjbfByqZaQGzgTkDBB6fBebcSQORpV0A+YZfBO/FKQEvwZED1jovB

>  <OMEGA_E>  (13) 
IO39PXDFFT5Aiho+8E0vPg==

>  <OMEGA_NBR>  (13) 
     35066

$$$$
220585
     RDKit          3D

 53 57  0  0  1  0  0  0  0  0999 V2000
    5.7116   -1.7826  -21.4648 C   0  0  0  0  0  0  0  0  0  0  0  0
    6.6522   -0.9882  -22.1448 C   0  0  0  0  0  0  0  0  0  0  0  0
    4.6731   -1.1761  -20.7347 C   0  0  0  0  0  0  0  0  0  0  0  0
    6.5632    0.4126  -22.0838 C   0  0  0  0  0  0  0  0  0  0  0  0
    4.5772    0.2248  -20.6738 C   0  0  0  0  0  0  0  0  0  0  0  0
    5.5306    1.0367  -21.3391 C   0  0  0  0  0  0  0  0  0  0  0  0
    5.4408    7.3033  -25.4497 C   0  0  0  0  0  0  0  0  0  0  0  0
    4.9293    5.9955  -25.5732 C   0  0  0  0  0  0  0  0  0  0  0  0
    6.0854    7.6612  -24.2430 C   0  0  0  0  0  0  0  0  0  0  0  0
    5.7269    5.5045  -23.4417 C   0  0  0  0  0  0  0  0  0  0  0  0
    6.8099    3.1855  -19.1986 C   0  0  0  0  0  0  0  0  0  0  0  0
    4.3777    3.2246  -19.1530 C   0  0  0  0  0  0  0  0  0  0  0  0
    2.8979    4.6657  -26.5489 C   0  0  0  0  0  0  0  0  0  0  0  0
    4.1622    4.0366  -27.1354 C   0  0  0  0  0  0  0  0  0  0  0  0
    6.7482    4.6215  -21.2887 C   0  0  0  0  0  0  0  0  0  0  0  0
    5.3637    3.1636  -22.6407 C   0  0  0  0  0  0  0  0  0  0  0  0
    4.1446    5.5407  -26.7894 C   0  0  0  0  0  0  0  0  0  0  0  0
    6.7633    3.1971  -20.7214 C   0  0  2  0  0  0  0  0  0  0  0  0
    5.4645    2.5652  -21.2563 C   0  0  2  0  0  0  0  0  0  0  0  0
    6.5874    9.0704  -24.0215 C   0  0  0  0  0  0  0  0  0  0  0  0
    5.6384    3.2819  -16.9949 C   0  0  0  0  0  0  0  0  0  0  0  0
    5.0853    5.1331  -24.5638 N   0  0  0  0  0  0  0  0  0  0  0  0
    6.2132    6.7517  -23.2541 N   0  0  0  0  0  0  0  0  0  0  0  0
    5.8570    4.5443  -22.4685 N   0  0  0  0  0  0  0  0  0  0  0  0
    5.6119    3.1765  -18.4701 N   0  0  0  0  0  0  0  0  0  0  0  0
    4.3031    3.0483  -20.4518 N   0  0  0  0  0  0  0  0  0  0  0  0
    3.1916    3.4477  -18.4668 N   0  0  0  0  0  0  0  0  0  0  0  0
    7.8980    3.3013  -18.6463 O   0  0  0  0  0  0  0  0  0  0  0  0
    5.3003    8.2002  -26.4526 F   0  0  0  0  0  0  0  0  0  0  0  0
    5.7867   -2.8593  -21.5031 H   0  0  0  0  0  0  0  0  0  0  0  0
    7.4428   -1.4549  -22.7137 H   0  0  0  0  0  0  0  0  0  0  0  0
    3.9478   -1.7885  -20.2197 H   0  0  0  0  0  0  0  0  0  0  0  0
    7.2869    1.0187  -22.6084 H   0  0  0  0  0  0  0  0  0  0  0  0
    3.7737    0.6849  -20.1179 H   0  0  0  0  0  0  0  0  0  0  0  0
    2.0060    4.7956  -27.1795 H   0  0  0  0  0  0  0  0  0  0  0  0
    2.5885    4.4212  -25.5220 H   0  0  0  0  0  0  0  0  0  0  0  0
    4.7612    3.3406  -26.5297 H   0  0  0  0  0  0  0  0  0  0  0  0
    4.1787    3.7150  -28.1872 H   0  0  0  0  0  0  0  0  0  0  0  0
    6.3508    5.3305  -20.5476 H   0  0  0  0  0  0  0  0  0  0  0  0
    7.7607    4.9315  -21.5866 H   0  0  0  0  0  0  0  0  0  0  0  0
    5.9926    2.6095  -23.3531 H   0  0  0  0  0  0  0  0  0  0  0  0
    4.3216    3.1615  -22.9928 H   0  0  0  0  0  0  0  0  0  0  0  0
    4.0969    6.2373  -27.6394 H   0  0  0  0  0  0  0  0  0  0  0  0
    7.6292    2.6502  -21.1227 H   0  0  0  0  0  0  0  0  0  0  0  0
    7.0149    9.1534  -23.0114 H   0  0  0  0  0  0  0  0  0  0  0  0
    7.3609    9.3054  -24.7674 H   0  0  0  0  0  0  0  0  0  0  0  0
    5.7514    9.7778  -24.1249 H   0  0  0  0  0  0  0  0  0  0  0  0
    4.6096    3.2574  -16.6065 H   0  0  0  0  0  0  0  0  0  0  0  0
    6.2080    2.4385  -16.5774 H   0  0  0  0  0  0  0  0  0  0  0  0
    6.1178    4.2281  -16.7036 H   0  0  0  0  0  0  0  0  0  0  0  0
    3.4401    3.2442  -20.9176 H   0  0  0  0  0  0  0  0  0  0  0  0
    2.3235    3.4696  -18.9628 H   0  0  0  0  0  0  0  0  0  0  0  0
    3.2053    3.5867  -17.4766 H   0  0  0  0  0  0  0  0  0  0  0  0
  1  2  2  0
  1  3  1  0
  2  4  1  0
  3  5  2  0
  4  6  2  0
  5  6  1  0
 19  6  1  6
  7  8  2  0
  7  9  1  0
  7 29  1  0
  8 17  1  0
  8 22  1  0
  9 20  1  0
  9 23  2  0
 10 22  2  0
 10 23  1  0
 10 24  1  0
 11 18  1  0
 11 25  1  0
 11 28  2  0
 12 25  1  0
 12 26  2  0
 12 27  1  0
 13 14  1  0
 13 17  1  0
 14 17  1  0
 15 18  1  0
 15 24  1  0
 16 19  1  0
 16 24  1  0
 18 19  1  0
 19 26  1  0
 21 25  1  0
  1 30  1  0
  2 31  1  0
  3 32  1  0
  4 33  1  0
  5 34  1  0
 13 35  1  0
 13 36  1  0
 14 37  1  0
 14 38  1  0
 15 39  1  0
 15 40  1  0
 16 41  1  0
 16 42  1  0
 17 43  1  0
 18 44  1  6
 20 45  1  0
 20 46  1  0
 20 47  1  0
 21 48  1  0
 21 49  1  0
 21 50  1  0
 26 51  1  0
 27 52  1  0
 27 53  1  0
M  CHG  1  26   1
M  END
>  <OMEGA_C>  (14) 
pcW2QEws5L/nt6vBGN/UQMv6fL+bKLHBAoqVQHSJlr+m4KXBdgXSQBw70z6sq7DBYniSQEAtZj79
Y6XBDvuwQOCzhD9otqrBuRquQLe06UDsmMvBKb2dQBfbv0DnlczBR7vCQJEo9UCj8cHBs0K3QNck
sECxiLvBg+rZQLHfS0DRlpnBFRaMQAxfTkBOOZnBxXY5QJ9NlUAgZNTBCjGFQPErgUA/FdnBnvHX
QDHjk0BWT6rBgaOrQM93SkAYILXB6KCEQLtNsUC1UNbBvWzYQG6dTEBaxaXBytyuQIsrJEDfDKrB
rcvSQFMgEUEDLMDBA260QCIKUkCV9YfBgLqiQJdCpECkgsTBM9LGQEQO2EB4CLrBemy7QANrkUBj
v7PB+JSzQHxLS0C4wpPB17KJQA8YQ0BMnaPBt0JMQNinXEACvJPBvbz8QHdIU0CNK5XB8JupQDc0
A0HpntPBPSy5QPX+NsBgBqzBCyvuQC46ur/AtbXB9ad8QJ3t5L/6waHBXi7pQM1lgj/z3bTBhYRx
QEdYLz9s8aDBqmEAQMd1mUCHb9nBtaklQIl6jUASLczB+VuYQKLMVUDnPNTB9LeFQB/DbUBdf+HB
FzrLQJ+TqkBqYaTBAFj4QOjOnUBmsazBR8O/QL4BJ0AU07rBo0qKQFdWSkBa8bfBJRqDQO6Xx0CM
Hd3BXCL0QGCcKUA1+6jBLnrgQCR0EkFQF7jBzYzrQOniFEGZI8bBNQu4QNpxHEHH/8DBqYGTQJl4
UEAd2oTBNqjGQAQRHEBynoTBoMTDQLdMh0D1oIXBJitcQDWgT0BHV6fBWbQUQKwNXkDCs5fBryNN
QOiLZUAQ0IvBu9u1QFpY47/cDqzBtoOUQE6elb98QqbBAa7UQD2Je78oP7HBKP2RQL9jbT7BlaXB
a13SQMLj1T6MkrDB3iSxQOdqhT+trarBv+2tQMdG6UBSpcvB032dQGVvv0BVjczBga/CQCr29EAV
BsLBGpS3QBgAsEAZi7vBRPDZQPaNTEANgZnBnxiMQLuETkBWM5nBzTA2QAQUlkDC+9PBOMOCQHWK
gECitdjBg07YQHn4k0BVSKrBtQGsQBdnSkCbFbXBPJyDQLLdsECIJtbBqqnYQKf2TEAssaXBIiCv
QOh+JEAi/qnB8JrRQCk1EUHPM8DBvRy0QAobT0Bk5IfBhsOiQH38o0DxdsTB0ebGQGwF2ECXE7rB
JyG8QL1FkUDwxrPBvIKzQBxKS0BetpPBEOOJQISpQ0A7maPBoRFMQJfmW0BsuJPBYbD8QMDKU0DN
C5XBvUWpQOriAkE6tdPBWMm3QHOVNsBchqzBpJl5QGTv4789UaLBch3uQCiMub9Rv7XBBWpwQJtW
MT//KqHB1hPqQG8Cgz9Dk7TBnq/5P2SmmkBD9djBctAiQLoWj0CqtMvBV5OVQHozVECD09PBBZeC
QM5Sa0AcFOHBIFvLQHHCqkCyaKTBlMf4QHfhnUADm6zBuva/QIxjJkAexLrBXKWKQO2rSkA+5LfB
xFaCQDu4xkC1Ct3BIWX0QHDDKUA426jBWareQNu1EkGsELjBSZfqQOw6FUHJEMbBQGm2QCk4HEFs
J8HBRhyTQDxoTUCn1oTBHgHGQG78F0BxvITBbK7DQMRhhUDGToXBI8xcQCqsUECHW6fBBpEUQK7/
XECNs5fBbL5MQPNwZEDbyovB7RKzQDzw378A6q3BFLHTQNRFdL/3VLLBHb+RQOrIk7+mBajBODbT
QBBS3j76wbDBw9aQQJhrcj6fh6bBTdKxQGCihT/gz6rBuvitQI1q6UD71MrBmwDBQB8380DkvsDB
MNCdQIyMv0CHYczB6Ty3QNQlrUCdi7vBQ1vaQHj/T0CXV5nB74eMQCAPUUAmOpnBbKjFQPZbJEF8
lcLBwJTyQFuwGkFzDcPB0/3ZQGihkkAGlarBCZ2sQDbDR0BQ9bTBc3HPQBpXD0Ftw7zBJq7ZQG5K
TECIi6XBMhKwQMjFI0AN16nBLMyEQHcls0BDS9bBH/KzQGBJVEDr1IfBMzvGQAxC1EBXkLnBCzei
QOB+okD0l8TB7Ka7QC53j0CKtLPBO7qzQC4FT0BbpJPBMqiKQLp2Q0ANkKPBtnZMQFJdYECF75PB
zr78QArxWkCR0pTBOq2qQGctA0Eqz9LBQ5ezQLh8NMBoC6/BSgztQDKitL/d7LbB6JNxQKKZ4r89
o6TB8W7sQHyRhT8pGLTBF+JtQMbXMD8OHKLBnOW/QJoSM0GK+b3B/DqxQHJSJEEfwMnB/nv+QEi5
E0H3kMrBT5MGQXF5IkFiyr7BzB/PQLDUqkBNzKTBL0T6QLTomkB6a63BHfrAQD4DJEBSk7rB30mL
QIF/RkCoybfBfyLSQGTFEEGzBLTBFln1QEJnJ0CibqjB88dyQNj/kUDfftXBO3pSQIC6yECuONfB
mpqZQLC3tUDrXN3BfNqSQOWbUkD21oTBpeHFQF3AHUAciYTB1kbDQK81iEDeVIXBDD9eQG6/TkAt
Y6fB1GQVQPiyYEDvApjBJFtMQCQOa0BMDIzB

>  <OMEGA_E>  (14) 
EH8dPmAQHj7g0Uc+

>  <OMEGA_NBR>  (14) 
     38023

$$$$
220583
     RDKit          3D

 53 56  0  0  1  0  0  0  0  0999 V2000
    5.6343   -1.7792  -21.4837 C   0  0  0  0  0  0  0  0  0  0  0  0
    6.6070   -0.9991  -22.1342 C   0  0  0  0  0  0  0  0  0  0  0  0
    4.6068   -1.1583  -20.7498 C   0  0  0  0  0  0  0  0  0  0  0  0
    6.5563    0.4015  -22.0454 C   0  0  0  0  0  0  0  0  0  0  0  0
    4.5485    0.2428  -20.6621 C   0  0  0  0  0  0  0  0  0  0  0  0
    5.5284    1.0391  -21.3052 C   0  0  0  0  0  0  0  0  0  0  0  0
    5.3869    7.3518  -25.3751 C   0  0  0  0  0  0  0  0  0  0  0  0
    5.8851    7.6927  -24.1002 C   0  0  0  0  0  0  0  0  0  0  0  0
    4.9777    6.0276  -25.6027 C   0  0  0  0  0  0  0  0  0  0  0  0
    5.7512    5.4625  -23.4695 C   0  0  0  0  0  0  0  0  0  0  0  0
    6.8282    3.1840  -19.1803 C   0  0  0  0  0  0  0  0  0  0  0  0
    4.3980    3.2431  -19.1322 C   0  0  0  0  0  0  0  0  0  0  0  0
    6.7563    4.6075  -21.2887 C   0  0  0  0  0  0  0  0  0  0  0  0
    5.3695    3.1371  -22.6365 C   0  0  0  0  0  0  0  0  0  0  0  0
    6.7792    3.1918  -20.7081 C   0  0  2  0  0  0  0  0  0  0  0  0
    5.4756    2.5657  -21.2357 C   0  0  2  0  0  0  0  0  0  0  0  0
    7.6588    9.4275  -24.0524 C   0  0  0  0  0  0  0  0  0  0  0  0
    5.6592    3.2095  -16.9704 C   0  0  0  0  0  0  0  0  0  0  0  0
    3.5643    4.4842  -26.7774 C   0  0  0  0  0  0  0  0  0  0  0  0
    6.1946    9.1237  -23.7388 C   0  0  0  0  0  0  0  0  0  0  0  0
    6.0938    6.7336  -23.1818 N   0  0  0  0  0  0  0  0  0  0  0  0
    5.1686    5.1068  -24.6374 N   0  0  0  0  0  0  0  0  0  0  0  0
    5.9313    4.4895  -22.5185 N   0  0  0  0  0  0  0  0  0  0  0  0
    5.6312    3.1704  -18.4495 N   0  0  0  0  0  0  0  0  0  0  0  0
    4.3226    3.0730  -20.4320 N   0  0  0  0  0  0  0  0  0  0  0  0
    3.2136    3.4781  -18.4469 N   0  0  0  0  0  0  0  0  0  0  0  0
    7.9189    3.2586  -18.6257 O   0  0  0  0  0  0  0  0  0  0  0  0
    4.3362    5.7109  -26.7873 O   0  0  0  0  0  0  0  0  0  0  0  0
    5.2495    8.2847  -26.3449 F   0  0  0  0  0  0  0  0  0  0  0  0
    5.6761   -2.8565  -21.5475 H   0  0  0  0  0  0  0  0  0  0  0  0
    7.3921   -1.4766  -22.7015 H   0  0  0  0  0  0  0  0  0  0  0  0
    3.8608   -1.7605  -20.2525 H   0  0  0  0  0  0  0  0  0  0  0  0
    7.3058    0.9976  -22.5446 H   0  0  0  0  0  0  0  0  0  0  0  0
    3.7541    0.7144  -20.1028 H   0  0  0  0  0  0  0  0  0  0  0  0
    6.2982    5.3119  -20.5788 H   0  0  0  0  0  0  0  0  0  0  0  0
    7.7744    4.9441  -21.5338 H   0  0  0  0  0  0  0  0  0  0  0  0
    5.9515    2.5339  -23.3489 H   0  0  0  0  0  0  0  0  0  0  0  0
    4.3197    3.1780  -22.9626 H   0  0  0  0  0  0  0  0  0  0  0  0
    7.6419    2.6402  -21.1099 H   0  0  0  0  0  0  0  0  0  0  0  0
    7.8820   10.4716  -23.7879 H   0  0  0  0  0  0  0  0  0  0  0  0
    8.3056    8.7554  -23.4694 H   0  0  0  0  0  0  0  0  0  0  0  0
    7.8432    9.2738  -25.1259 H   0  0  0  0  0  0  0  0  0  0  0  0
    4.6298    3.1916  -16.5831 H   0  0  0  0  0  0  0  0  0  0  0  0
    6.2088    2.3355  -16.5909 H   0  0  0  0  0  0  0  0  0  0  0  0
    6.1600    4.1305  -16.6375 H   0  0  0  0  0  0  0  0  0  0  0  0
    3.1016    4.3335  -27.7639 H   0  0  0  0  0  0  0  0  0  0  0  0
    4.2268    3.6360  -26.5499 H   0  0  0  0  0  0  0  0  0  0  0  0
    2.7786    4.5517  -26.0105 H   0  0  0  0  0  0  0  0  0  0  0  0
    5.5483    9.7963  -24.3218 H   0  0  0  0  0  0  0  0  0  0  0  0
    6.0107    9.2779  -22.6653 H   0  0  0  0  0  0  0  0  0  0  0  0
    3.4655    3.2900  -20.8993 H   0  0  0  0  0  0  0  0  0  0  0  0
    2.3467    3.5125  -18.9442 H   0  0  0  0  0  0  0  0  0  0  0  0
    3.2275    3.6129  -17.4562 H   0  0  0  0  0  0  0  0  0  0  0  0
  1  2  2  0
  1  3  1  0
  2  4  1  0
  3  5  2  0
  4  6  2  0
  5  6  1  0
 16  6  1  6
  7  8  2  0
  7  9  1  0
  7 29  1  0
  8 20  1  0
  8 21  1  0
  9 22  2  0
  9 28  1  0
 10 21  2  0
 10 22  1  0
 10 23  1  0
 11 15  1  0
 11 24  1  0
 11 27  2  0
 12 24  1  0
 12 25  2  0
 12 26  1  0
 13 15  1  0
 13 23  1  0
 14 16  1  0
 14 23  1  0
 15 16  1  0
 16 25  1  0
 17 20  1  0
 18 24  1  0
 19 28  1  0
  1 30  1  0
  2 31  1  0
  3 32  1  0
  4 33  1  0
  5 34  1  0
 13 35  1  0
 13 36  1  0
 14 37  1  0
 14 38  1  0
 15 39  1  6
 17 40  1  0
 17 41  1  0
 17 42  1  0
 18 43  1  0
 18 44  1  0
 18 45  1  0
 19 46  1  0
 19 47  1  0
 19 48  1  0
 20 49  1  0
 20 50  1  0
 25 51  1  0
 26 52  1  0
 26 53  1  0
M  CHG  1  25   1
M  END
>  <OMEGA_C>  (15) 
Z0y0QBG847+U3qvBSGzTQNrBf7/YErHBu2qTQK1DlL+U/6XBz8zRQEyQzT7oXLDB/oyRQCCfeD4U
TKXBmeiwQJQAhT8ccarBg2GsQJxB60AkAMvBG1O8QKAq9kBIzcDBW0mfQCfiwEBc0szBJQq4QADN
rkCMwbvBPIDaQFbGS0A9cZnBpLyMQI6OT0CnDpnBkTPYQH1wk0A6T6rBGNOrQOLGSECcF7XB7+7Y
QApGTEBCqqXB2TevQJA0JEDO4qnB0xT1QAvXFkFSa8DB0xe1QKZoTUBXw4fBRR1kQF9+j0AXONbB
FjrGQLz6EUED6b3BjgDDQKt510A9dLnBDWWlQLRqo0B0GcXBEs29QNipj0D9JbTBtjK0QMDnSkCi
mJPB21KKQGSrREC7dKPBJKxNQIKYXkBQk5PBn2f9QICMUEBZAZXBccKKQOy/tkBUTNbBsvunQFWO
BEFdwtLB6KK1QIvQNsBIYazBVYzsQJcBvb+5nLXBVBd3QKhW4b8LBaLBU8npQApifz9HW7TB7EJw
QGvlNj9y0qDBj4rJQPr6qUBloaTBG8j4QB42nkBDRazBgHK+QGUrIkB6yrrBWjuKQLJkS0BZs7fB
dIr0QPf4KEAp4ajBHDn8QOCLJ0GvTb7Bw+MEQToWDEE7wbvBrvv6QKVhFEHSAcnB/iaUQMVCTEAc
qoTBxa7GQA55FUA6uoTBEB/FQGIthECPGYXBN4BGQHCsikB5HN7B70GHQNS0aEBBZtTBqtQxQFWn
kUB2FdDB6IuxQMi9HEERk8LBwFfAQF1yFEF6UrXBictdQBiPUkCxMafBKjAWQD7MYECfjZfBF49O
QMw5Z0A3povB0SG1QBmz4r+IdavBMBqUQE6tk786naXBSrLTQI6yfL881LDBs5yRQFLdfT5RE6XB
MXTRQB240z6yR7DB/YiwQPAlhj+SWKrB5OWsQIB260BbFcvBfX68QMRA9kBp2MDBU8OfQL0bwUBp
88zBsmu3QBD4rkALyrvBVZXaQLIsTUCvh5nBxb+MQGg3UUB67pjBfurXQH+bk0AGcKrBCNmqQKdL
SUD+CLXBK4bYQOTjTEDWuqXBYaSuQI3LJED90qnBQov0QINAF0EZI8DBE6S1QPcRUEB9vofB0yhn
QHiEj0AomNbB7bLFQHwIEkGz1L3B98zCQL+F10Caf7nB+ialQLeko0D4LsXB4Gu8QBQUkEBJFrTB
RI+0QOdDUkBXmJPBAe+JQAwcRUDaTqPBDZJNQESKW0BmTpPBO879QKl1TkBnN5XBR+yLQEX/tkCP
hdbBsbOoQO26BEEX0dLBkgK3QI9ONsA70qvBITF5QCMi4b+zh6HBMN7sQGsdu7/dXrXBhhpwQOV2
Nz+AoaDBmf3oQG6agT8habTBETbKQJB6qkA/saTBzWz4QB3bnUA/oqzBgY+9QFEYI0AXwrrB7jKJ
QLlES0Bcm7fBL/TzQB8xKUCC+KjBLxj7QDL4J0EI7b3BhJ8EQSyQDEHgb7vBbwr7QEH6FEH4tcjB
v9eUQITMVEC1moTBCybEQB6bE0BnEYXB7r7IQFEWg0A7w4TByaFKQAu+ikDpjN7BN+mIQDsPaUCX
utTBpxI0QFBPkUBdjtDBEAixQFi9HEHNh8LBqjy/QENTFEG1QbXBGnpcQFv5UUCZ+qbBqYwVQGSa
WUC5KpfBiOhOQInpZEDuZIvBjfmzQFP25b9uJ6zB7VLRQKs4gb9L57HBRQCVQA1ll78uoKXB/9jP
QOzNxz5dFbHBQgyTQOiDXz4R4qTB0newQB/Xgj/xoarBpIOqQLn/60DgmcrBLFKeQMRtwUBUn8zB
IEC8QJP+9UAWjMDBUSq5QM9BrkAz4LvBqFPaQLL/S0CTnJnBqouMQJIZUEC5MJnBmY7YQOp5kkB6
f6rBgQOrQA6OSEBqM7XBBKfYQO28SkBvz6XByL6uQMIyI0C4A6rB+3xjQPmNiUC9ZtbBSSy1QHLe
U0BQ9IfB74fpQGjrGEGu2cDBNPCHQAWTtUDuANfBi1CmQNpQo0BVNsXBie/DQHjW1kAFabnBbqS+
QMnbjkDAXLTBYhW0QMyDTEAawJPBCuWJQDU+Q0CNjKPB24BNQEpnYEBOt5PBih79QMJ/VUC/PJXB
Pp3BQM/WD0F6eb3BH7ejQFR7BUF399HBijW1QHXkN8Duv6zBnfvoQJaXvb848rbBj1B9QB4i5b/k
K6HBms3mQNCWfT/iZrXBORB2QMgaLz9F6Z/BueTJQIdCqUBd4aTBblP5QNHhnEB+YqzBi128QG/A
IEA7BbvBWkGJQNW4TUC7m7fBHhr0QMuaJkDV9qjB2DlEQNmTgkA5F97BfbOJQBFnYUAKrtTBCC4z
QJL7iUBAANDBVUyUQEYlU0Bzz4TBBS7HQF2zHUCzloTB89zEQJAdiEDisIXBXJDrQFmcKUEPG77B
Kw0CQfCoD0F5Z73Bso7rQE1zGEHxocnBkGFfQKARzkByytjBQM2fQJfJtEA9eN3BhldcQMNbT0AD
P6fBz+QVQLX+YUDDq5fBD61OQLSNakCT0YvBbmi0QGF53b+bL63BhwyTQJJ0kb/YTqfBMGnUQNaT
bb9m0LHBz4yRQBTghD4MDKbBjhvTQLCP7z7/jrDBuraxQA0oij+joqrBqNauQBcY5kAXhMzBnjqd
QPfNvED2yMzBuWPEQOV/80ArPMPBLGm2QFH+sEB6b7vBr/TZQNI1TkC+JpnB0QiMQKInTkCI6JjB
XwXYQNjdlUCv+KnBNECsQDB9TUBHs7TBAuLYQFYHUECDYKXBYqWvQKzQJkAws6nBFqlEQAdbjkAd
MtTBTaOzQOItSEDUjYfB2DPcQIXnF0EZLbnBXfmIQHjtqkDx3dbBR8ehQM41o0AgSMTBLJ/HQOCu
2EBBt7rB/Fq6QPJyk0BARbPBrmizQBDGTkDdYJPBgziKQPqjRECTUaPBKAFLQOA/V0DWgJPBOcD8
QI45UkAjp5TBOFzXQCuqDUGhZsPBL2arQAtXAEGdA9XBxHG1QPFlM8BAJa7B6w91QHOW4L92waPB
NvztQNtCsb8eVbbBUotvQKnJNT+fj6HBx7vrQK45ij8UIrTBbf/LQBSirEB2+KPBGTD4QPesn0Ak
kqzBRznBQOe7K0C4XrrBmwqLQFgXS0AtmrfBuNT0QHmnLUB3kKjBxa4oQNrigUAgpdvBEKlZQCz5
ZkAyJ8/Bzl4UQFBDoUBB4M/Bs42SQBDASUA9joTBrN7CQHKrC0AJKYXBFazFQDg4fkBeKoTBe5fr
QPKVJ0ESQbrBQIq8QH8aGkHsfbXBay3wQIPbDUFP9LPBVoV8QLSgxUD+79vBzOegQPrZl0DvNtvB
DaBdQLTVUUClGqfBuNMTQEZgVkAXjpfBN6lKQNysXkCzjovB

>  <OMEGA_E>  (15) 
oB0VPlCiGj7wEJs+wHqhPg==

>  <OMEGA_NBR>  (15) 
     41861

$$$$
220592
     RDKit          3D

 50 53  0  0  1  0  0  0  0  0999 V2000
    6.6808   -1.0206  -22.1403 C   0  0  0  0  0  0  0  0  0  0  0  0
    5.5247    1.0047  -21.3428 C   0  0  0  0  0  0  0  0  0  0  0  0
    6.5812    0.3779  -22.0812 C   0  0  0  0  0  0  0  0  0  0  0  0
    5.7443   -1.8275  -21.4834 C   0  0  0  0  0  0  0  0  0  0  0  0
    4.5495    0.1583  -20.7246 C   0  0  0  0  0  0  0  0  0  0  0  0
    4.6831   -1.2390  -20.7796 C   0  0  0  0  0  0  0  0  0  0  0  0
    5.4716    7.3345  -25.4166 C   0  0  0  0  0  0  0  0  0  0  0  0
    6.0809    7.6677  -24.1875 C   0  0  0  0  0  0  0  0  0  0  0  0
    4.9690    6.0318  -25.5930 C   0  0  0  0  0  0  0  0  0  0  0  0
    5.7019    5.4974  -23.4386 C   0  0  0  0  0  0  0  0  0  0  0  0
    6.8133    3.1923  -19.1796 C   0  0  0  0  0  0  0  0  0  0  0  0
    4.3919    3.2443  -19.1220 C   0  0  0  0  0  0  0  0  0  0  0  0
    6.7348    4.6141  -21.2898 C   0  0  0  0  0  0  0  0  0  0  0  0
    5.3076    3.1668  -22.6221 C   0  0  0  0  0  0  0  0  0  0  0  0
    6.7559    3.1977  -20.7071 C   0  0  2  0  0  0  0  0  0  0  0  0
    5.4525    2.5556  -21.2416 C   0  0  2  0  0  0  0  0  0  0  0  0
    6.5702    9.0731  -23.9208 C   0  0  0  0  0  0  0  0  0  0  0  0
    5.6574    3.2245  -16.9643 C   0  0  0  0  0  0  0  0  0  0  0  0
    3.6227    4.4267  -26.7779 C   0  0  0  0  0  0  0  0  0  0  0  0
    6.1785    6.7413  -23.2151 N   0  0  0  0  0  0  0  0  0  0  0  0
    5.0989    5.1399  -24.5935 N   0  0  0  0  0  0  0  0  0  0  0  0
    5.8281    4.5355  -22.4652 N   0  0  0  0  0  0  0  0  0  0  0  0
    5.6234    3.1738  -18.4428 N   0  0  0  0  0  0  0  0  0  0  0  0
    4.3162    3.0810  -20.4225 N   0  0  0  0  0  0  0  0  0  0  0  0
    3.2048    3.4565  -18.4340 N   0  0  0  0  0  0  0  0  0  0  0  0
    7.9060    3.2816  -18.6310 O   0  0  0  0  0  0  0  0  0  0  0  0
    4.3296    5.6951  -26.7756 O   0  0  0  0  0  0  0  0  0  0  0  0
    7.5169    1.0841  -22.7613 F   0  0  0  0  0  0  0  0  0  0  0  0
    5.8583   -3.1725  -21.5434 F   0  0  0  0  0  0  0  0  0  0  0  0
    3.4562    0.6333  -20.0830 F   0  0  0  0  0  0  0  0  0  0  0  0
    3.7767   -2.0209  -20.1483 F   0  0  0  0  0  0  0  0  0  0  0  0
    5.3453    8.2543  -26.4001 F   0  0  0  0  0  0  0  0  0  0  0  0
    7.4858   -1.4778  -22.6966 H   0  0  0  0  0  0  0  0  0  0  0  0
    6.3473    5.3302  -20.5503 H   0  0  0  0  0  0  0  0  0  0  0  0
    7.7449    4.9188  -21.6010 H   0  0  0  0  0  0  0  0  0  0  0  0
    5.8988    2.6065  -23.3613 H   0  0  0  0  0  0  0  0  0  0  0  0
    4.2525    3.1835  -22.9330 H   0  0  0  0  0  0  0  0  0  0  0  0
    7.6209    2.6494  -21.1086 H   0  0  0  0  0  0  0  0  0  0  0  0
    6.9631    9.1368  -22.8954 H   0  0  0  0  0  0  0  0  0  0  0  0
    7.3676    9.3254  -24.6352 H   0  0  0  0  0  0  0  0  0  0  0  0
    5.7357    9.7802  -24.0381 H   0  0  0  0  0  0  0  0  0  0  0  0
    4.6298    3.2003  -16.5724 H   0  0  0  0  0  0  0  0  0  0  0  0
    6.2164    2.3583  -16.5807 H   0  0  0  0  0  0  0  0  0  0  0  0
    6.1514    4.1524  -16.6406 H   0  0  0  0  0  0  0  0  0  0  0  0
    3.1578    4.2673  -27.7620 H   0  0  0  0  0  0  0  0  0  0  0  0
    4.3318    3.6116  -26.5711 H   0  0  0  0  0  0  0  0  0  0  0  0
    2.8431    4.4402  -26.0021 H   0  0  0  0  0  0  0  0  0  0  0  0
    3.4622    3.3180  -20.8856 H   0  0  0  0  0  0  0  0  0  0  0  0
    2.3368    3.4802  -18.9300 H   0  0  0  0  0  0  0  0  0  0  0  0
    3.2177    3.5856  -17.4425 H   0  0  0  0  0  0  0  0  0  0  0  0
  1  3  2  0
  1  4  1  0
  2  3  1  0
  2  5  2  0
 16  2  1  6
  3 28  1  0
  4  6  2  0
  4 29  1  0
  5  6  1  0
  5 30  1  0
  6 31  1  0
  7  8  2  0
  7  9  1  0
  7 32  1  0
  8 17  1  0
  8 20  1  0
  9 21  2  0
  9 27  1  0
 10 20  2  0
 10 21  1  0
 10 22  1  0
 11 15  1  0
 11 23  1  0
 11 26  2  0
 12 23  1  0
 12 24  2  0
 12 25  1  0
 13 15  1  0
 13 22  1  0
 14 16  1  0
 14 22  1  0
 15 16  1  0
 16 24  1  0
 18 23  1  0
 19 27  1  0
  1 33  1  0
 13 34  1  0
 13 35  1  0
 14 36  1  0
 14 37  1  0
 15 38  1  6
 17 39  1  0
 17 40  1  0
 17 41  1  0
 18 42  1  0
 18 43  1  0
 18 44  1  0
 19 45  1  0
 19 46  1  0
 19 47  1  0
 24 48  1  0
 25 49  1  0
 25 50  1  0
M  CHG  1  24   1
M  END
>  <OMEGA_C>  (16) 
WcnVQDCkgr9RH7HBksqwQGGbgD/2varBk5nSQHd/wT5KprDBP9G3QFrr6b/u3avBQpWRQJ4dIj7y
y6XBLdyVQKWYnr+jPKbBLhevQNuz6kAoVcvB4JbCQPtd9UDxf8HB9QGfQCsEwUByvszB/nW2QOTq
r0BKgrvBcgbaQDxPTEDBb5nBw4qMQE6iT0DM+ZjBmYPXQImmk0CcUarBk9epQO+sSkAD+rTBpDDY
QGemTEAuqKXBLHuuQIiOI0DG7qnBtT7SQJUrEUHSXb/BBAm1QHhdTkDrtofB1tpnQNGnjUAuOdbB
H7bFQLm410CfuLnB2imjQD16pECAv8TBnX+6QCYjkUCpuLPB1fKzQDggS0D0ipPBeR6KQFwuRUBR
YaPBwBpNQCE3XUDVeJPBy/38QFYGUkBGDJXB7ouKQHM+tkBmNNbBUIrwQOnDij8lF7bBV3e7QG8J
S8DQWKzBqzFdQG0gIj/oqaDB8bVxQMtVAcCrL6HBfwyrQIARBEFQM9PBn4vvQDQnvb+ekrXBLB3L
QEGRqkD3ZqTBb9b3QLpmnUDizqzBT8O8QObQJkDx47rB0RSIQNm9S0CydrfBsN7zQCGQKUCA3qjB
itHeQEUwEkGwKbfByMPrQLU0FUHvFMXBwYq3QJp7HEEYTsDBgyeUQCLSTEBBlITB4uzGQCHuFkAw
pYTBgdjEQHfghEDpH4XBrBlKQI2NiECXGN7BGJ6KQFokZ0ClkdTBCfU1QPgVjkA2BNDB85NdQINZ
VECcFafB3I0VQNq7XkC6cJfBcu5NQIx6ZUAmiovBjeyVQKIJn7+R1KXBgHawQERSfz96m6rBtL2R
QEaDHT5UbKXBEUa3QOEt6798l6vBxsbRQH/kuj4eprDBGK7UQIWnhL+cI7HBw5OuQIUi60AdP8vB
TSzBQBvS9UDCTsHBHzafQM1BwUDiy8zB1qG2QHW3r0C5lrvBBxPaQNZyS0CBe5nBC56MQB/LT0Ba
8pjBW7/WQPalk0A9ParBQ4CpQBMfSkBAArXBUfHXQMVrTEA4sKXBTDKuQOc9I0A866nBAyLQQNh4
EUFtDb/BRjG1QGTiTEDqu4fBEsNpQBLWjUA7ddbBIdDEQIfO10CaoLnBN5yjQGtspEBG38TBf5G7
QOZ1kEAF87PBfBG0QDo1SkALj5PBCe+JQDYvRUB1WaPBPMRNQDsnXkAhXZPByxf9QDryUUAmI5XB
SjOLQHmVtkCYUtbBonJeQDxGID+vGqDBCYi6QPPGS8C46KvBd4LvQKk6iT+mLLbBMxf0QK2qzr9B
/bbBGZmqQKpeBEHRE9PBUFB+QCy07r/TpqHBKZPIQKXzqUABbaTBryn3QEp+nkBDV6zB6H27QDmw
JECZ87rBwJ6HQHgTTUDUXbfBEqLzQGvlKUAj/ajBysDcQI9mEkHC2bbB4HbpQNXXFUEowsTBNhC1
QEOXHEH46L/BiFGUQPZfS0AHmITBrwPHQBk1FUBwtYTBsxfFQP4HhECAGoXBWbBMQC3SiECxX97B
Q7KLQJzAZ0DtydTBiGI3QKbujUCaT9DBGxxdQPtmVEAoB6fBMPUVQBseYECfRZfBxjhPQPWHZkBJ
b4vBI12RQPE3lb+9kajBSBmyQGg4hz+mwKrB4QiQQFivYz5W+KbBpgmzQGyL4L8+Qa7BUgDUQCRx
3T5JprDBCefTQBJldL9BbrLBY9KpQKc85UCUUMzBbLOcQKpUukCGyczBFZe9QFVc9EBp6cLBJCa4
QD/Dr0DTm7vBGQ/aQBx6TUAbxZjB54qMQEzgT0Cg35jBFpbYQLEilkDSp6nBJy6tQF4fTUAPjrTB
A8bZQMZzUECmCaXB2LWwQIqoJkDSkanBSPSCQMguqUAWGtbBr6GyQKpeR0BsWYfBkHDgQMiNFkEW
VrnBN8CjQLTXoEDXaMTBtQDFQLn02EAQq7rBqj69QLKQkkC+arPBODezQOZMSUBcLZPB3pmLQMI1
SEBUT6PB0sRLQILMXEDyo5PB5nf8QOIaUEDMEpTBg7zGQDzMD0EvTMLBnFdZQGTFMz9KDaLBpB2z
QE61RcBJ6a/BMHP0QPLykT+RHLXBKE/zQO8dwr8UYrjBwdWiQN/i/0Dpp9TB00NwQD215L/9YKXB
Vl3KQG2CrEDa3aPBWfz4QNwAoUDfw6vBT9TAQK8YKUBXTbrBx6uLQBBiTUDPP7fBSQH2QCCfLkC7
KKjBUJZyQNH/h0DRbtTBFIdMQPkOvUBdPtfBbZaWQJEIqkAdZ93Bd1aRQEcaRECmhYTBKEjEQPfd
DkB8gYTBM9rBQCjagEBuOITBOHjlQGv0J0G5vLnBV+fPQCaCEkHw1bHBRJD/QF5ZDkF2mLnBsyJi
QJJzWUB0OqfBL1oVQKvxX0A81ZfBIYFKQNP1YkDcrYvB2QDVQNpbb7/IYbLBlICyQPyLiD8KwqrB
s63UQBjK5j5bnrDBn9izQE+V3r+Cd67BrImQQLhBaD7UCafB9NmRQAFllL8BzKjBUDanQG7+5UAq
D8zB3JmbQICwukD7uMzBq+a7QPTH9EAGv8LBFBq5QHx6r0CzyLvBUf3ZQOfOTUB0u5jB3n2MQKvd
T0AQ0ZjBBwXYQHiHlkCqlKnBOO+sQF9rTUDmjbTBxKPZQLFNUUC0AKXB6LSwQNo2J0CNi6nBVBSB
QGCqqUCf6dXBw5ayQE9iR0AyTIfBKhvfQOWrFkG4MLnBZKKkQL6ZoEB1lMTBAwLFQAbj2EDgt7rB
rMG+QPYekkBbqLPBsyyzQDtrSUDBIJPBWIuLQOFpSEBRQqPBU7VLQFujXEAukZPBh3T8QEHZTkCJ
DZTB3SrEQEsSEEHU9MHBqQj1QP67lD92ELXB7GS0QHt6RMBpT7DB0alaQPrfMz+GAaLBGytjQOTX
97+jIKXBePOdQJ6kAEHUINTB9QPvQCw0sb9WyrbBXv7HQOVirEAy96PB3nH4QGZpokDgSKvBu1K/
QMp6J0COXrrBSjWLQOETUEBLDbfBMff1QFf4L0B5J6jB/mRxQPIIiEBVYNTBhUhHQGe5vED/q9bB
c52TQHzeq0CWX93BPEyRQIfzQ0CyeITBXkzEQJruDkAcdoTBLb/BQM3ggEAhKYTBVUvjQPwjKEHB
arnBvhHQQDoPEkE8k7HBaIL+QCzYDkG847nB+fFhQEOTWUCsKqfB1j8VQEDZX0ARwJfByoRKQBWg
YkCEmovB

>  <OMEGA_E>  (16) 
gOM5PQA0PT3AV4g+4GuKPg==

>  <OMEGA_NBR>  (16) 
     45543

$$$$
220588
     RDKit          3D

 51 54  0  0  1  0  0  0  0  0999 V2000
    4.5265    0.2214  -20.6994 C   0  0  0  0  0  0  0  0  0  0  0  0
    6.5659    0.3931  -22.0352 C   0  0  0  0  0  0  0  0  0  0  0  0
    4.5785   -1.1771  -20.8132 C   0  0  0  0  0  0  0  0  0  0  0  0
    6.6123   -1.0040  -22.1479 C   0  0  0  0  0  0  0  0  0  0  0  0
    5.5249    1.0220  -21.3065 C   0  0  0  0  0  0  0  0  0  0  0  0
    5.6187   -1.7884  -21.5370 C   0  0  0  0  0  0  0  0  0  0  0  0
    5.3708    7.3560  -25.3355 C   0  0  0  0  0  0  0  0  0  0  0  0
    5.8981    7.6699  -24.0705 C   0  0  0  0  0  0  0  0  0  0  0  0
    4.9843    6.0306  -25.5938 C   0  0  0  0  0  0  0  0  0  0  0  0
    5.7780    5.4319  -23.4766 C   0  0  0  0  0  0  0  0  0  0  0  0
    6.8251    3.1981  -19.1784 C   0  0  0  0  0  0  0  0  0  0  0  0
    4.3949    3.2394  -19.1258 C   0  0  0  0  0  0  0  0  0  0  0  0
    6.7676    4.5776  -21.3034 C   0  0  0  0  0  0  0  0  0  0  0  0
    5.3571    3.1163  -22.6306 C   0  0  0  0  0  0  0  0  0  0  0  0
    6.7748    3.1729  -20.7040 C   0  0  2  0  0  0  0  0  0  0  0  0
    5.4687    2.5459  -21.2286 C   0  0  2  0  0  0  0  0  0  0  0  0
    5.6637    3.2857  -16.9694 C   0  0  0  0  0  0  0  0  0  0  0  0
    7.2659    9.5594  -23.8315 C   0  0  0  0  0  0  0  0  0  0  0  0
    3.5851    4.4856  -26.7871 C   0  0  0  0  0  0  0  0  0  0  0  0
    6.1241    6.6982  -23.1734 N   0  0  0  0  0  0  0  0  0  0  0  0
    5.2001    5.0891  -24.6517 N   0  0  0  0  0  0  0  0  0  0  0  0
    5.9138    4.4683  -22.5114 N   0  0  0  0  0  0  0  0  0  0  0  0
    5.6304    3.1900  -18.4456 N   0  0  0  0  0  0  0  0  0  0  0  0
    4.3151    3.0467  -20.4222 N   0  0  0  0  0  0  0  0  0  0  0  0
    3.2130    3.4889  -18.4413 N   0  0  0  0  0  0  0  0  0  0  0  0
    7.9109    3.3529  -18.6305 O   0  0  0  0  0  0  0  0  0  0  0  0
    5.9703    8.9746  -23.6657 O   0  0  0  0  0  0  0  0  0  0  0  0
    4.2970    5.7472  -26.7613 O   0  0  0  0  0  0  0  0  0  0  0  0
    5.6604   -3.1328  -21.6494 F   0  0  0  0  0  0  0  0  0  0  0  0
    5.1486    8.3286  -26.2481 F   0  0  0  0  0  0  0  0  0  0  0  0
    3.7236    0.6876  -20.1478 H   0  0  0  0  0  0  0  0  0  0  0  0
    7.3289    0.9945  -22.5070 H   0  0  0  0  0  0  0  0  0  0  0  0
    3.8186   -1.7847  -20.3443 H   0  0  0  0  0  0  0  0  0  0  0  0
    7.4095   -1.4761  -22.7029 H   0  0  0  0  0  0  0  0  0  0  0  0
    6.3421    5.3006  -20.5919 H   0  0  0  0  0  0  0  0  0  0  0  0
    7.7871    4.8881  -21.5760 H   0  0  0  0  0  0  0  0  0  0  0  0
    5.9399    2.5154  -23.3443 H   0  0  0  0  0  0  0  0  0  0  0  0
    4.3066    3.1536  -22.9547 H   0  0  0  0  0  0  0  0  0  0  0  0
    7.6349    2.6086  -21.0936 H   0  0  0  0  0  0  0  0  0  0  0  0
    4.6365    3.2636  -16.5767 H   0  0  0  0  0  0  0  0  0  0  0  0
    6.2311    2.4370  -16.5597 H   0  0  0  0  0  0  0  0  0  0  0  0
    6.1488    4.2278  -16.6740 H   0  0  0  0  0  0  0  0  0  0  0  0
    7.2444   10.6034  -23.4858 H   0  0  0  0  0  0  0  0  0  0  0  0
    8.0018    8.9931  -23.2418 H   0  0  0  0  0  0  0  0  0  0  0  0
    7.5476    9.5310  -24.8944 H   0  0  0  0  0  0  0  0  0  0  0  0
    3.0799    4.3688  -27.7573 H   0  0  0  0  0  0  0  0  0  0  0  0
    4.2974    3.6598  -26.6431 H   0  0  0  0  0  0  0  0  0  0  0  0
    2.8376    4.4699  -25.9803 H   0  0  0  0  0  0  0  0  0  0  0  0
    3.4512    3.2421  -20.8864 H   0  0  0  0  0  0  0  0  0  0  0  0
    2.3446    3.5164  -18.9365 H   0  0  0  0  0  0  0  0  0  0  0  0
    3.2301    3.6411  -17.4531 H   0  0  0  0  0  0  0  0  0  0  0  0
  1  3  2  0
  1  5  1  0
  2  4  1  0
  2  5  2  0
  3  6  1  0
  4  6  2  0
 16  5  1  6
  6 29  1  0
  7  8  2  0
  7  9  1  0
  7 30  1  0
  8 20  1  0
  8 27  1  0
  9 21  2  0
  9 28  1  0
 10 20  2  0
 10 21  1  0
 10 22  1  0
 11 15  1  0
 11 23  1  0
 11 26  2  0
 12 23  1  0
 12 24  2  0
 12 25  1  0
 13 15  1  0
 13 22  1  0
 14 16  1  0
 14 22  1  0
 15 16  1  0
 16 24  1  0
 17 23  1  0
 18 27  1  0
 19 28  1  0
  1 31  1  0
  2 32  1  0
  3 33  1  0
  4 34  1  0
 13 35  1  0
 13 36  1  0
 14 37  1  0
 14 38  1  0
 15 39  1  6
 17 40  1  0
 17 41  1  0
 17 42  1  0
 18 43  1  0
 18 44  1  0
 18 45  1  0
 19 46  1  0
 19 47  1  0
 19 48  1  0
 24 49  1  0
 25 50  1  0
 25 51  1  0
M  CHG  1  24   1
M  END
>  <OMEGA_C>  (17) 
RdmQQNSuYj5TmKXBHRzSQB5JyT4ISLDBQoOSQLKrlr91gabBuJfTQFCEgL/xLrHBP8ywQO7Qgj+d
c6rBBsyzQMjr5L+vS6zBYN2rQH9k60Ajr8rBFL28QLRv9UBSkMDBtn+fQJz6wEAswMzBjeW4QOnR
rUAt0LvBl2faQB2uTEBhbZnBTKOMQK9ST0CiAZnBhZDYQPF7kkBlbarBk22rQLtxR0CNC7XBK8vY
QIsQS0DhoaXBWf+uQKfvIkAU1KnBRz21QERJUkA9wYfB8YHoQErzGEHTpr7B0HJlQMWJj0AUTNbB
0fjDQF1X1kAzY7nBWmemQMjZokC0NsXBMj69QFr8jkBZF7TB/iu0QHEoTECekJPBKBWKQPj8QkC6
YKPBhKFNQLVKX0DBh5PBcyb9QCSVVkBOC5XBaAy/QOGXD0FMU73BNYGJQE3pt0AsF9bBSyK1QGV/
SMADMq3BdcGkQCRCBUEH/NHB2E5uQIwHMD+iLqHBhobqQHGYfj9FDrTBvmR0QEdw5L8qwaLBixrt
QHvyvL9yn7XBIPLKQHaeqUBKvKTBDDD5QEVrnECVm6zBpBO+QB/9IEAqwbrBzM+JQCzVSUBLo7fB
XlH0QJfzJkC/v6jB2V2UQCPeUED7nITBUGXHQEz4G0BTeoTB48LEQBFKh0BlZIXBS9LnQLSnKUHV
4rvBagcAQbTjD0E877nBnIXxQMt+GEG5J8fBDR1FQH7Ni0DdDt7BboSJQPo5akAgJdXBN5s1QI4J
j0C518/B5t9cQFN/T0BUF6fBmg4WQG4NYUDufZfBQ7lOQEUIaUDqn4vBgIfQQP5T3D49vrDB4LiQ
QIuxeT4niKXBYUXSQAM8d7+GpbHBwZKSQBy0k7+4eKbBOOGvQCeBhj9coarBFVCzQOHq4L/kgazB
PACtQI/F6kC1E8vBOgK7QC1C9kDDxMDBo0+hQKkKwECL+MzBHjC2QNVOr0AIgrvBfCfbQB0YTEDP
ppnB1myNQAErUEDGy5jBHHHYQMEXk0Bkk6rBrfGpQChlSkB067TB1IzYQIfRS0DG16XB2kKuQBOa
JECD1qnBFI63QNpnUECIxIfBokDpQKtgGEGs5L7B4gtnQPhwj0CTYtbBDknAQBkw2EBeNrnBeBKm
QKUWo0BOE8XB6rm5QP0LkUBiobPBGW+1QD9GTEA3lZPBme6JQJBeREAzKKPBAB5QQGgpX0DLFZPB
7nn+QDwAUUA3bpXBeZO+QDY3EEHB/L3BI5KOQCAetUCcnNbBvPu0QO13RsCfY63BH4WoQIBXBEE0
0NLBrjvoQDbVhD+hu7TBoABvQD9PND8N6qDBcFbrQGlLt7+iR7bBOqh1QPU04r8fjqLBO8jNQGyN
qkCmlKTB1Y/4QJnNm0A7ca3BoI29QKfZJkDVuLrB11iIQCIpSkCBi7fBiZ3zQAtgJ0AqJanBqfGW
QP/mT0CwdITBfl/JQDfIGEDGuYTB0e/HQGzNhUA+VoXB2rLpQNdVKUFNirzB7KX+QGY4D0FRnbnB
OjL0QG7XFkHIOMfBE6hMQHmsiUA7at7BIY2GQKspZ0AG4NPBvlMyQLh4lECwsNDB+e1bQAEYUUBc
tKbBtswXQMSlYECG4ZbB6pxSQGp5aEAqLYvBzenPQB+F2D4gkbDBxeqPQFYheD4sbKXBiwbSQECq
eb/3SbHB/zWSQGMblL/WJqbBuRyvQI0dhj+YiKrBw1GzQB7i4b/AB6zBlXGrQNnC60A53srBLnSg
QGUVwUD4Bc3BNq26QD1D9kB6oMDBFtC4QA5SrkDw97vBxMXaQPGUS0CblJnBNBSNQHZfTUCAnpjB
miTXQA8Kk0AiYKrBq8CoQMdVSkAg97TBmd3XQH66S0Box6XBYYWtQNaiJEAOzanBH163QCb+TECA
pYfBLNRnQO0DkEDjq9bBWGrpQMlyF0FerrzBP1GnQLsYo0CJdsXBIu3BQPNB10BaYLnBcRK/QLul
jkCPhbTBKi21QARRSUDwdpPBTHWJQNhFREB+BqPB2KtPQM2+WkDdy5LBL+z9QKmaVUB7aJXB2rGM
QOsxt0A1m9bBxBu+QGEwEEHOur3BQZu1QEMSR8DeoazBXpmlQK5FBUH7U9LBSnTnQEWXgz9fo7TB
YKJsQMWkND+29KDBui7rQG7auL++37XBVAl1QDdR4r9mMaLBbsDGQIkuqUDa5aTB8db3QJCVnkDE
46vB0Ke3QOY+IECL9LrBUsOGQGN9U0BF8rbB7vnyQOblJ0BpKanBVNCWQLB1SkBmUITBFwLKQBdE
FkCqqITB/evGQFR+hEBBLoXBfGlLQIRPi0Dlot7B0eiIQE+daUCdxNTBEp80QK0rkkAZqNDB9pPp
QElrKEFuWbrBf9P5QGPwDUFChLbBoBb6QNONFUGMX8TBeEtbQHcBU0Arh6bBhy0XQE4mXUAti5bB
G4VSQMP4YUAB24rB4kmTQAysXT6ZwKXB3o3UQD699T4JUbDBngeXQOzQlr8gpabBIzbYQJrnab+q
KbHBPzeyQHzYhz9yiqrBRXK5QC793r+LVKzB3AyzQMHI6EAJ6cvBiD+dQCWWwUA4p8zB07DLQM8V
8UDgucLBo/22QK+mr0BJo7vB7O7YQALlTkCGNZnBmiSLQFD/S0Cw45jBP4bWQPLVlECvHKrBhJGq
QGcSS0BN3bTBCrPXQBU8T0Bcb6XBu5yuQIoyJUBUwqnBSA6zQGqvTUCnkofBqsdjQDi0jkDoMNbB
GdDRQAiwG0GhZLzBltGfQIOnpUA8csTB98HMQAGx1ECwqrrBfyu6QC+ckUANpbPBTJGyQGG9SkAq
aJPBrBCJQE3pQUDZTKPBeNVJQK/YVkBzZJPBNpT7QONTV0ARu5TBFouGQGMyuECt4NXBsfbkQGhi
CkFcOMLBrNK8QDZTRcBmNK3B0gCxQGjXAkGR8tPBfotxQA9hJT+9Z6HBkRHsQEbCjj+oF7TBQuR+
QGDk6L/+9aLBxpryQGK5rL9thLXB8EjJQOKRq0D3Q6TBu9L2QEUtn0AXeKzBd2C+QB58J0DGnrrB
8wiJQESFSkALirfBjMHzQH/jLEAnkajBoxWSQEqkSUB1iITBd87FQIF/F0ADeoTBqqbBQLcNhUBf
6YTBM/NBQFDrikCl2d3BwyqKQFjVakBWZNXBi7I1QANEjED5kM/BOMbnQOJwKUFjTrzBR52zQApW
IEF4RcDBeVrLQHqNFkHgIbTBVM1aQCjcTUCVCKfByVASQEPHVkBLX5fBTkpKQGi6XkAXdIvB

>  <OMEGA_E>  (17) 
kDsJPvjAET7gRBU+2HcsPg==

>  <OMEGA_NBR>  (17) 
     49277

$$$$
220593
     RDKit          3D

 53 56  0  0  1  0  0  0  0  0999 V2000
    6.5845    0.4094  -22.0549 C   0  0  0  0  0  0  0  0  0  0  0  0
    4.5565    0.2228  -20.7031 C   0  0  0  0  0  0  0  0  0  0  0  0
    6.6237   -0.9859  -22.1912 C   0  0  0  0  0  0  0  0  0  0  0  0
    4.6017   -1.1731  -20.8402 C   0  0  0  0  0  0  0  0  0  0  0  0
    5.5493    1.0292  -21.3104 C   0  0  0  0  0  0  0  0  0  0  0  0
    5.6313   -1.7760  -21.5852 C   0  0  0  0  0  0  0  0  0  0  0  0
    5.4480    7.3297  -25.3667 C   0  0  0  0  0  0  0  0  0  0  0  0
    5.9985    7.6511  -24.1038 C   0  0  0  0  0  0  0  0  0  0  0  0
    4.9784    6.0224  -25.5849 C   0  0  0  0  0  0  0  0  0  0  0  0
    5.6945    5.4510  -23.4366 C   0  0  0  0  0  0  0  0  0  0  0  0
    6.8301    3.2179  -19.1802 C   0  0  0  0  0  0  0  0  0  0  0  0
    4.3991    3.2576  -19.1324 C   0  0  0  0  0  0  0  0  0  0  0  0
    6.7631    4.5940  -21.3125 C   0  0  0  0  0  0  0  0  0  0  0  0
    5.3660    3.1223  -22.6214 C   0  0  0  0  0  0  0  0  0  0  0  0
    6.7823    3.1901  -20.7055 C   0  0  2  0  0  0  0  0  0  0  0  0
    5.4826    2.5501  -21.2261 C   0  0  2  0  0  0  0  0  0  0  0  0
    7.3766    9.7243  -24.5211 C   0  0  0  0  0  0  0  0  0  0  0  0
    5.6639    3.3323  -16.9743 C   0  0  0  0  0  0  0  0  0  0  0  0
    3.5420    4.5197  -26.7885 C   0  0  0  0  0  0  0  0  0  0  0  0
    6.2708    9.0792  -23.6850 C   0  0  0  0  0  0  0  0  0  0  0  0
    6.1370    6.6935  -23.1765 N   0  0  0  0  0  0  0  0  0  0  0  0
    5.1030    5.1073  -24.6032 N   0  0  0  0  0  0  0  0  0  0  0  0
    5.8174    4.5037  -22.4563 N   0  0  0  0  0  0  0  0  0  0  0  0
    5.6338    3.2239  -18.4497 N   0  0  0  0  0  0  0  0  0  0  0  0
    4.3220    3.0410  -20.4244 N   0  0  0  0  0  0  0  0  0  0  0  0
    3.2124    3.5024  -18.4547 N   0  0  0  0  0  0  0  0  0  0  0  0
    7.9201    3.3240  -18.6290 O   0  0  0  0  0  0  0  0  0  0  0  0
    4.3537    5.7198  -26.7831 O   0  0  0  0  0  0  0  0  0  0  0  0
    5.6645   -3.1182  -21.7210 F   0  0  0  0  0  0  0  0  0  0  0  0
    5.3022    8.2639  -26.3327 F   0  0  0  0  0  0  0  0  0  0  0  0
    7.3477    1.0155  -22.5201 H   0  0  0  0  0  0  0  0  0  0  0  0
    3.7629    0.6829  -20.1331 H   0  0  0  0  0  0  0  0  0  0  0  0
    7.4144   -1.4523  -22.7603 H   0  0  0  0  0  0  0  0  0  0  0  0
    3.8446   -1.7855  -20.3729 H   0  0  0  0  0  0  0  0  0  0  0  0
    6.4094    5.3296  -20.5751 H   0  0  0  0  0  0  0  0  0  0  0  0
    7.7667    4.8784  -21.6616 H   0  0  0  0  0  0  0  0  0  0  0  0
    6.0120    2.5780  -23.3259 H   0  0  0  0  0  0  0  0  0  0  0  0
    4.3254    3.0873  -22.9761 H   0  0  0  0  0  0  0  0  0  0  0  0
    7.6473    2.6318  -21.0930 H   0  0  0  0  0  0  0  0  0  0  0  0
    7.5384   10.7579  -24.1812 H   0  0  0  0  0  0  0  0  0  0  0  0
    8.3073    9.1499  -24.4037 H   0  0  0  0  0  0  0  0  0  0  0  0
    7.0797    9.7290  -25.5803 H   0  0  0  0  0  0  0  0  0  0  0  0
    4.6355    3.3201  -16.5841 H   0  0  0  0  0  0  0  0  0  0  0  0
    6.2248    2.4836  -16.5558 H   0  0  0  0  0  0  0  0  0  0  0  0
    6.1543    4.2737  -16.6858 H   0  0  0  0  0  0  0  0  0  0  0  0
    3.0984    4.3808  -27.7855 H   0  0  0  0  0  0  0  0  0  0  0  0
    4.1705    3.6510  -26.5428 H   0  0  0  0  0  0  0  0  0  0  0  0
    2.7408    4.6157  -26.0410 H   0  0  0  0  0  0  0  0  0  0  0  0
    5.3480    9.6658  -23.8047 H   0  0  0  0  0  0  0  0  0  0  0  0
    6.5755    9.0867  -22.6281 H   0  0  0  0  0  0  0  0  0  0  0  0
    3.4533    3.2111  -20.8897 H   0  0  0  0  0  0  0  0  0  0  0  0
    2.3448    3.5087  -18.9519 H   0  0  0  0  0  0  0  0  0  0  0  0
    3.2252    3.6725  -17.4693 H   0  0  0  0  0  0  0  0  0  0  0  0
  1  3  2  0
  1  5  1  0
  2  4  1  0
  2  5  2  0
  3  6  1  0
  4  6  2  0
 16  5  1  6
  6 29  1  0
  7  8  2  0
  7  9  1  0
  7 30  1  0
  8 20  1  0
  8 21  1  0
  9 22  2  0
  9 28  1  0
 10 21  2  0
 10 22  1  0
 10 23  1  0
 11 15  1  0
 11 24  1  0
 11 27  2  0
 12 24  1  0
 12 25  2  0
 12 26  1  0
 13 15  1  0
 13 23  1  0
 14 16  1  0
 14 23  1  0
 15 16  1  0
 16 25  1  0
 17 20  1  0
 18 24  1  0
 19 28  1  0
  1 31  1  0
  2 32  1  0
  3 33  1  0
  4 34  1  0
 13 35  1  0
 13 36  1  0
 14 37  1  0
 14 38  1  0
 15 39  1  6
 17 40  1  0
 17 41  1  0
 17 42  1  0
 18 43  1  0
 18 44  1  0
 18 45  1  0
 19 46  1  0
 19 47  1  0
 19 48  1  0
 20 49  1  0
 20 50  1  0
 25 51  1  0
 26 52  1  0
 26 53  1  0
M  CHG  1  25   1
M  END
>  <OMEGA_C>  (18) 
D7TSQNqX0T59cLDB5s6RQAocZD7sn6XBq/XTQH1lfL+kh7HBwkCTQOInlr+zuKbBF5SxQGy+gz/F
e6rBfDO0QFZT4793rqzBZ1auQMSM6kD57srBmPO/QIjV9ECI1MDBW0+fQFa3wEDnrczBjjm2QDhu
rkAUfrvBfpDaQMjyTUAJcZnBJcWMQIh8UEAnD5nBjGvYQCcCk0Dyf6rBU7arQBzTR0Ca+LTB7wjZ
QOMqTEDhpKXBcHGvQA80I0Afz6nBzwzsQMyWG0FAK8TB7z61QOBDVUBIy4fBDLBiQAGhkEDVTtbB
a6rIQIJEEUHWer3BOWLEQGIx1kCOabnB3kujQENvo0Bk08TBUSi6QIwekECXprPBF0i0QE1UTkDn
mJPBjk2KQEygQkAeZaPBjZdNQHMnYEAqo5PBJ3H9QOW7VEA4CJXBd1GLQHoIt0DgQ9bBakO1QG6Q
R8CpxK3BxaupQA05BEFzqdLBniDrQGr9gT8qKbTBqtJwQDnQLj+wEKHBc0LtQJ/jub8cFbbBjQ52
QDqK5L/G+6LBmxnNQAaMqkC4maTBBIn4QL4bnEAPS63BgWLAQC79JECFm7rBUmmKQFqWRUARz7fB
4rb0QBpwKEBpvqjBNDrxQFcgLEEgc8HBtuoEQQ1mEkHDOsPBSI3iQAuqG0F3pMzBK1aUQJx8VEBB
rITBaDHHQIbyHkA5coTByu/EQIDCiECTfIXBM0xGQMYvjEChSN7BtXSFQI+paUCWV9TByWgvQP2z
k0DhU9DBlyKrQBSnGkH2b77BvGrSQBdjEUFCBrXBcgNdQGuDTUAiHqfBdRAWQN6NYEBonZfBUGpO
QAoKa0AtwYvBMZeRQHDnhD4thqXBhVTSQB514T4qZLDBRn6TQHTNkb9tY6bBKgnUQAQ1db81QbHB
4yOxQCBxiD+gf6rB15+0QFKW37+hQKzBUpatQLhG6kCroMvBDri/QPJ19kDmv8HByC6fQGgbwEBg
5szBh6G3QJhVsEC4pbvBskzaQEBrS0DUTJnBfoOMQEFTTkAr7JjBlO/XQNS+lEBkEarBeumrQE6d
S0By8LTBgtbYQND8TUDsiaXBWUWvQNHiJUB3z6nB3p7zQG1iFUFgpLnBj8W0QJRMS0D/nofBbath
QFhCjkDzxtXB2L/IQJyhEkHaar/Bf3vEQKIK2UCE5rnBkn2kQGb7o0Dd2cTBfp+8QCWlkUA5zrPB
lvSzQMhqSUDndZPBc0GKQFJCRUAQWaPB3PZMQEN7W0BLa5PBrDH9QN5DTkCO1ZTBZ1WKQGHktECf
QNbBch+2QPbZRcBbIa3BpAqoQItyA0GzodPBaP5vQB38OD+gDaHBinvqQF2qhT+nPrTBevV2QGvp
379gi6LB7m7tQIOqtr8DwbXBBuLJQEsTq0AjPqTBVmf4QCNxn0CjKqzBvFi/QIK+JkDypbrBcmuK
QA6cTEDhpLfB64f0QFVZK0C20ajBkkP5QMV3JkF7ELjBC93yQAyXDEGWBbLBbsQGQU8RD0HxsL7B
YtKTQCRISUAbiYTBQaTGQO+TE0BaoITBXHjEQPo3g0D+5oTBX7JDQLiEiED9m93BJnmFQPf1ZUB2
s9PBY50vQMfqkUA1qM/BnLLJQDKGG0H4AcfBygavQPALGUGdVrrBCM1dQLLPU0BBFKfBPYQVQIG/
XUB+Z5fB26FNQKCwYkBweIvBLgTSQNoy4j7UibDBdUyQQIK7gT5mDabB3tHSQGeOc79w2LHBS1eR
QAYUkr/6V6fB48OwQKLYhz/kn6rBPH2yQGgB37/dP63BTDWrQGy86EB5rsvBDtedQLc4vkAQz8zB
a2e9QJi19UCH9cHBOVC5QN5Sr0C30rvBxTTaQF9TTECYQJnBt2uMQH88TUA13JjByyLYQEd3lEAv
DKrB68GrQE9gS0Dq3LTB4sPYQISmTUAjeaXBlCevQBKDJUADwqnBlJZiQKGHg0A7hdXBcKO0QIPs
SkATl4fB1iTlQLHvFkEr27nBhBiDQEFOsUBwa9bBbaOlQFFKokAp5cTBcBLFQHCD2EDtKrrBPXq9
QHUtkUBN2LPB6eOzQEm/SEBca5PBQR+KQKuHREBbSaPBj/9MQAnSWkAmU5PB69j8QJ+YVUCczJTB
umDBQBGCEEFeQcDBDiyzQDVCRcBNjK7BjVCkQCjGAkG1kdPBBuzqQCwGhj+RELTBSVptQIA0Nj+b
j6HB9DrsQPMttb/TX7bBbU9xQCFw4L8WzKPB6L7JQKPlqkBzTKTBi7j4QDUhn0BbCqzBDoC+QCWH
JUDJnbrBlCiKQPDSTUAGeLfB2HL0QBeqKkBcs6jBkI48QFoQeEBIr9zB7PyLQGx6WUAs29TByck5
QCcXgUD8X87BBLWTQMyBR0DxgoTB2RzHQCMUFEBxkoTB66nDQDdng0Bl44TBujLlQLh0KEEpBLnB
trjiQE+FD0H85bHBkH8BQQvEEUGNvL3BfyZQQOOsx0BTJtfBSCuXQPFSs0CDod3Bwn5dQLwbU0De
AafB4nwVQOGpXUBdSpfBsuNNQJTCYUBsX4vBGs2QQMqciz7oLabBhTfSQBqY/D4MvbDB1aGSQNCX
j7/ga6fBBsrTQKx9Zr/jALLBFt+wQHhfjD+ov6rBuBy0QDaW2r/ETa3BVA+uQPrF5UCJp8zBrW6e
QBGyu0D8+MzBazTDQMji80AvX8PB8Pe2QPAWsUD4iLvBN/LZQJtWTUC1LJnBsBiMQDnIS0BquJjB
DqLXQEYalkC04qnBMi+rQD7ZTkBPo7TB7nPYQDY1UEBuZqXBufCuQO+3J0CNr6nBfNA+QIpdlEBX
jtTBcKu0QFo6SUALfIfBzqjbQE8xGEHrbrnBciSLQHaIqEBhAtfB2zyjQJSIokB4bcTB9TLHQB43
2UBa1LrBXsy6QHqwk0CwVrPBdLKzQEhrSED4UJPBfN2JQKhRRUBUKaPBEsxLQK2kVEBiKJPBtrn8
QGkYVEA1uJTBt1jVQPkODkFwocPBndC1QGIlQ8A/cq7BUoypQFEnAEFpIdXBVbhtQKcYOD/JuaHB
dZjqQJU3jj8GW7TBspV0QHFt37+f2qPB7UrtQHYNrb95lLbB8ObKQNmOrEAV56PB1+33QP1FoEBx
SqzBSxK/QNPKK0BxbbrBRbCJQBeOTkC4V7fBhzL0QMDNLUAesajBrtUjQEqkhkCw7NvBiKxGQELp
dUDCi87BXUcTQCIOrUD4b9HBqtCTQJTkREB2X4TBA2/HQCxaEkDdloTB1H7DQF2FgkAMsYTBZzjq
QO4JKEFEn7rBiKC8QAwGGkHBYbXBt/XwQC9FDkGQfLTBjRGHQEDawUCFCd3BI8SgQL/Aj0BPJdrB
MA9dQL6sVEDj2abBRDwUQGjkVUAEIJfBNFVMQNzGWUAOL4vB

>  <OMEGA_E>  (18) 
4OAGPnCFCz5Yb5c+4BydPg==

>  <OMEGA_NBR>  (18) 
     53115

$$$$
220590
     RDKit          3D

 51 54  0  0  1  0  0  0  0  0999 V2000
    5.5349   -1.8136  -21.5097 C   0  0  0  0  0  0  0  0  0  0  0  0
    6.5320   -1.0672  -22.1599 C   0  0  0  0  0  0  0  0  0  0  0  0
    4.5285    0.2430  -20.6855 C   0  0  0  0  0  0  0  0  0  0  0  0
    5.5313    1.0157  -21.3246 C   0  0  0  0  0  0  0  0  0  0  0  0
    4.5332   -1.1561  -20.7764 C   0  0  0  0  0  0  0  0  0  0  0  0
    6.5384    0.3374  -22.0771 C   0  0  0  0  0  0  0  0  0  0  0  0
    5.3772    7.3493  -25.3727 C   0  0  0  0  0  0  0  0  0  0  0  0
    5.8812    7.6899  -24.1080 C   0  0  0  0  0  0  0  0  0  0  0  0
    4.9898    6.0233  -25.6073 C   0  0  0  0  0  0  0  0  0  0  0  0
    5.7955    5.4527  -23.4851 C   0  0  0  0  0  0  0  0  0  0  0  0
    6.8291    3.1928  -19.1660 C   0  0  0  0  0  0  0  0  0  0  0  0
    4.4035    3.2190  -19.1175 C   0  0  0  0  0  0  0  0  0  0  0  0
    6.7404    4.6092  -21.2711 C   0  0  0  0  0  0  0  0  0  0  0  0
    5.3385    3.1513  -22.6248 C   0  0  0  0  0  0  0  0  0  0  0  0
    6.7791    3.1939  -20.6939 C   0  0  2  0  0  0  0  0  0  0  0  0
    5.4826    2.5530  -21.2343 C   0  0  2  0  0  0  0  0  0  0  0  0
    5.6595    3.2321  -16.9571 C   0  0  0  0  0  0  0  0  0  0  0  0
    7.2953    9.4907  -23.5872 C   0  0  0  0  0  0  0  0  0  0  0  0
    3.5215    4.5061  -26.7426 C   0  0  0  0  0  0  0  0  0  0  0  0
    6.1110    6.7321  -23.1890 N   0  0  0  0  0  0  0  0  0  0  0  0
    5.2093    5.0964  -24.6529 N   0  0  0  0  0  0  0  0  0  0  0  0
    5.9833    4.4720  -22.5402 N   0  0  0  0  0  0  0  0  0  0  0  0
    5.6346    3.1596  -18.4348 N   0  0  0  0  0  0  0  0  0  0  0  0
    4.3291    3.0448  -20.4168 N   0  0  0  0  0  0  0  0  0  0  0  0
    3.2201    3.4599  -18.4325 N   0  0  0  0  0  0  0  0  0  0  0  0
    7.9123    3.3512  -18.6141 O   0  0  0  0  0  0  0  0  0  0  0  0
    5.9576    9.0117  -23.7602 O   0  0  0  0  0  0  0  0  0  0  0  0
    4.3028    5.7244  -26.7693 O   0  0  0  0  0  0  0  0  0  0  0  0
    3.5654   -1.8676  -20.1580 F   0  0  0  0  0  0  0  0  0  0  0  0
    7.5140    1.0027  -22.7428 F   0  0  0  0  0  0  0  0  0  0  0  0
    5.1885    8.3000  -26.3156 F   0  0  0  0  0  0  0  0  0  0  0  0
    5.5387   -2.8917  -21.5735 H   0  0  0  0  0  0  0  0  0  0  0  0
    7.2983   -1.5749  -22.7269 H   0  0  0  0  0  0  0  0  0  0  0  0
    3.7516    0.7383  -20.1220 H   0  0  0  0  0  0  0  0  0  0  0  0
    6.2252    5.2958  -20.5832 H   0  0  0  0  0  0  0  0  0  0  0  0
    7.7585    4.9787  -21.4636 H   0  0  0  0  0  0  0  0  0  0  0  0
    5.8444    2.5211  -23.3711 H   0  0  0  0  0  0  0  0  0  0  0  0
    4.2767    3.2559  -22.8925 H   0  0  0  0  0  0  0  0  0  0  0  0
    7.6500    2.6540  -21.0939 H   0  0  0  0  0  0  0  0  0  0  0  0
    4.6306    3.1919  -16.5700 H   0  0  0  0  0  0  0  0  0  0  0  0
    6.2346    2.3835  -16.5581 H   0  0  0  0  0  0  0  0  0  0  0  0
    6.1322    4.1748  -16.6443 H   0  0  0  0  0  0  0  0  0  0  0  0
    7.2712   10.5550  -23.3102 H   0  0  0  0  0  0  0  0  0  0  0  0
    7.7904    8.9158  -22.7908 H   0  0  0  0  0  0  0  0  0  0  0  0
    7.8526    9.3693  -24.5277 H   0  0  0  0  0  0  0  0  0  0  0  0
    3.0213    4.3693  -27.7127 H   0  0  0  0  0  0  0  0  0  0  0  0
    4.1841    3.6499  -26.5479 H   0  0  0  0  0  0  0  0  0  0  0  0
    2.7653    4.5729  -25.9466 H   0  0  0  0  0  0  0  0  0  0  0  0
    3.4663    3.2492  -20.8793 H   0  0  0  0  0  0  0  0  0  0  0  0
    2.3531    3.4956  -18.9295 H   0  0  0  0  0  0  0  0  0  0  0  0
    3.2348    3.5978  -17.4422 H   0  0  0  0  0  0  0  0  0  0  0  0
  1  2  2  0
  1  5  1  0
  2  6  1  0
  3  4  1  0
  3  5  2  0
  4  6  2  0
 16  4  1  6
  5 29  1  0
  6 30  1  0
  7  8  2  0
  7  9  1  0
  7 31  1  0
  8 20  1  0
  8 27  1  0
  9 21  2  0
  9 28  1  0
 10 20  2  0
 10 21  1  0
 10 22  1  0
 11 15  1  0
 11 23  1  0
 11 26  2  0
 12 23  1  0
 12 24  2  0
 12 25  1  0
 13 15  1  0
 13 22  1  0
 14 16  1  0
 14 22  1  0
 15 16  1  0
 16 24  1  0
 17 23  1  0
 18 27  1  0
 19 28  1  0
  1 32  1  0
  2 33  1  0
  3 34  1  0
 13 35  1  0
 13 36  1  0
 14 37  1  0
 14 38  1  0
 15 39  1  6
 17 40  1  0
 17 41  1  0
 17 42  1  0
 18 43  1  0
 18 44  1  0
 18 45  1  0
 19 46  1  0
 19 47  1  0
 19 48  1  0
 24 49  1  0
 25 50  1  0
 25 51  1  0
M  CHG  1  24   1
M  END
>  <OMEGA_C>  (19) 
Tx6xQKIi6L/WE6zB4AXRQGybiL92R7HBQumQQEvWeD7+e6XBjQCxQPgCgj/MmKrBnA+RQDr7k78B
NqbB+jrRQJi/rD73nbDBYxKsQA8t60A0+8rB6jK8QNcT9kA/3cDBJayfQIu+wECp28zBn3S5QM98
rkB84bvBMIjaQINWTEAHVJnB0umMQKEETkCq8JjBQ7HXQON+k0BAK6rB59SqQHWuSUCr/7TBA+7Y
QIFoTEArjaXBfHGvQBlkI0DA36nByRq1QBXbTkAPqIfB2nLpQA3aF0GUsrzBS2BhQJkxkEDY8NXB
Wo3DQEht10AFg7nBlLKmQPIVo0ASOcXBO3e/QIMaj0BrUrTBU060QHk3SkCKepPB6oeKQMTeQkCx
VaPBXBZOQJ5vXUDDdZPBzzH9QIJ5VkCZ6ZTB7aS+QPQvEEHeFL7BpbCJQDQut0CBJ9bB/y9kQKIN
779+Q6HB7nLwQOVZgD9U8bXBGAimQJvMBEFHhtLBsjyxQPoQOcCdlqzBqovpQJSVyb+Y0LXB6Bpw
QKcDPT/c+aDBejTHQCZ3qUB5qqTBT0X4QDBRn0B+tavBhQW7QGBaIUAX+LrBwtqIQKJgUEDtI7fB
m8z0QLraKUBewKjBOC6UQB9ITEBrj4TBH4LHQOuLGEAId4TBDjvEQEqYhUBvJ4XByq3oQFXhKEFD
e7rBuUr5QBSnDkF5U7bBhkj7QKXoFUHTOMTBrV1BQBTRi0Cms93BTOSFQKyXaUAXYtTBw/owQHRV
kkCJks/BQthdQInyT0DXCKfB3JgWQCq3X0CQb5fBGwdPQNBCZkCMiYvBC+CyQLI55L8C/avB8K3S
QGFwg7++IrHBE56RQC7Thz5QjqXBXaKxQEhKhj/bm6rB4D+SQCQ5kb83QqbBLUDSQDTdwT5ijbDB
OAatQPZc6kBewsvBeQSfQAMdwEB+9MzBBPG+QPAd90A4+cHBm/+3QErwsEBTsLvBxEzaQFtvS0AD
NJnBC6iMQPQkTUD735jBpCPXQLqGlUDX3anBilWrQOkaTUCj4rTBFuLYQFEeT0Cqc6XB5rSvQOay
JUDL16nBJGm0QJIWSUBOi4fBgNZiQGGQjUB8y9XBpcvkQPtrFkF4MLjB1sCkQCY+pEBI3cTBpa3E
QB7n2UAIDbrBBza9QBodkkBr17PBj/KzQKJRSEDzYpPBu5CKQNcsREAYTqPBoC1NQK5ZWkBcY5PB
jCn9QDkTTkAQuJTB7UGKQHCTtEDBSdbBx9LHQLEJEUE2ssDBIk9mQBB37b83caHBxETxQG6Shj9I
4rXBQN2nQIl3A0HeydPBeoKzQNAgN8Cdb6zBhaLrQD+Iw79okrXB6ttwQDPOQD8yHKHByKXHQNYf
q0DhGKTBuoT3QO5PoUAXqqvBfYa9QPvgJ0Bpz7rBR4GJQNvgT0DbSrfB//H0QJnjLUCIw6jBU2GT
QEhIRkDYhYTBcWfGQE1bEUBbmYTBzs3DQGIZgkCStYTBTt5EQJSUh0Cqnd3BU4aGQDxAZUAavNPB
TdEwQOzPkEDsp8/BKGHpQJ/dJ0Hq9LfBTGvXQG/5EEHKhLDBsOMBQRGLDkGTk7nBnT1eQPc7UkBK
BqfBMcwVQBi9XEABY5fBsbpNQPN4YUAocIvB6va2QGIy5b/dnKzBHk2UQGSWnL8LFqfBSUvTQA4u
3T6XCrDBU86wQK63gz8baKrBtFTWQJjldb8GJLHBv6qQQAw8MT7JAKbByrKrQOCg6kC/UsvBU/O9
QH509kA6gcHBIl2eQLg+wEAgx8zBvlS4QGukr0ChsbvBmgjaQIn5SkDFMpnBSGeMQClzUECo/ZjB
DyXYQJsRlEDCCqrBzHGsQCrDSUDi9rTBuM3YQArRTECMcaXB+RuvQPSgJEBEwKnBM/KzQFa8S0Cg
l4fB2VftQNexFEHh3bnB5K5dQIBsj0BxitXBE3zEQMyM2ED10rnBJAGlQPuJo0Dl58TBwtO9QKOc
kEB077PBgIuzQMIZSkBzbpPBBoKKQK1NR0BXbKPBQGtMQKBiXkDNlpPB6NH8QCySTUA3rZTBAwPH
QLCGEEEp3L/Bb2WJQLpItUBrHtbBXXr3QO/Tv7/xlrbB11dbQL1mIz/11KDBC0SmQLT4A0HZK9PB
Mnu5QFVDN8CWYK3By154QJK+7r+roaPB0qLrQIPVhz+hi7PBMmvJQIt2qkBhVqTBrsL4QAHfnkCJ
9KvBhca/QI/KI0D3lLrB+w2LQHuQS0CqvbfB3H30QEjNKUDlqajBod+SQAK4SkD+lITB+UHFQHtk
E0AUk4TBWwTEQOUng0Dk0YTBtrLxQIwSJkH9/rjBgbHqQDhTDUEg57HBe38EQYzfDUFwHL7B+I8/
QKa0iUB6Xd3B57CCQMNgZ0ArXdPB/7krQB4WlEBvc8/B7mBfQM4aWEDBP6fBQVQVQIYfYUCBpZfB
dH5MQAavZUAqpIvB+pK7QN7K6L81ZKzBVvWYQOIGpb9qmabBfPrTQAb+3D7pYrDBiYaxQN09fT9H
eqrBLs7YQOyhdL9UZLHBM0eTQJBU0T0GtqXB+6mzQHxF6UALNsvB//6dQG8YwkD+f8zBzeTJQAjR
8EDej8HBhRC1QLMMrkAFb7vBVW3ZQO2hTkCrcJnBwMeLQNekT0C9B5nBBHHXQF4ekkC5nKrBhySq
QIZcRkBj/LTBQMrXQAo1S0C6oqXBgh+uQISEIUBiy6nBrgm0QGsmUECdxIfBJTZnQH3LkEDN0NbB
eXzMQCS6HUHa1b7B+zKfQIcPpUAhgMTBoKrJQBxG00AD2LnBGKO4QBpvj0CIprPBZTqzQDcETUBK
lpPBK1GJQNeJQkBYYqPBOKpLQOc8XkCLjJPBExn8QCwjWkA2FJXBMzmJQNG4uUC2EdbBbnjjQH38
CUHnG8DBHXX5QBRaur/OPrfB6WFgQLTMCD+bZaDBo0e0QFQiA0H8PNPBaq6/QEPbOMCk/qzBA3uC
QHaI+r81yqLBAN3qQJlJiz/3K7TBHs/MQHkPqkAAvKTBcYT3QGuimkCfi63BlLS+QGOdI0Dop7rB
WMmIQEUpREB8yLfBBXbzQFIDJ0Cmp6jBNheTQGM/TkD1rYTBD//FQG3dGEB6roTBDKTDQNrVhUCn
JYXBc89IQFPQjUC+t97Bz/6KQKGsbUAJwNXBPAU2QNKpjkD7itDBCFXjQNPtKkEKuL3BKgu5QJu/
IEGRA8bB33e3QAafHEFJzLfBYXtbQAQlT0DYH6fBEwAUQJh8XkAmf5fBmKpMQBSAaEBMp4vB

>  <OMEGA_E>  (19) 
aLMWPqAEGj7QeS0+cAU+Pg==

>  <OMEGA_NBR>  (19) 
     56849

$$$$
220596
     RDKit          3D

 50 53  0  0  1  0  0  0  0  0999 V2000
    6.6751   -1.0391  -22.1276 C   0  0  0  0  0  0  0  0  0  0  0  0
    4.6457   -1.2470  -20.8162 C   0  0  0  0  0  0  0  0  0  0  0  0
    5.5341    0.9938  -21.3236 C   0  0  0  0  0  0  0  0  0  0  0  0
    5.7090   -1.8408  -21.5070 C   0  0  0  0  0  0  0  0  0  0  0  0
    6.5951    0.3608  -22.0505 C   0  0  0  0  0  0  0  0  0  0  0  0
    4.5391    0.1505  -20.7287 C   0  0  0  0  0  0  0  0  0  0  0  0
    5.4716    7.3333  -25.4165 C   0  0  0  0  0  0  0  0  0  0  0  0
    6.0820    7.6631  -24.1876 C   0  0  0  0  0  0  0  0  0  0  0  0
    4.9614    6.0338  -25.5929 C   0  0  0  0  0  0  0  0  0  0  0  0
    5.7258    5.4827  -23.4525 C   0  0  0  0  0  0  0  0  0  0  0  0
    6.8099    3.1996  -19.1658 C   0  0  0  0  0  0  0  0  0  0  0  0
    4.3882    3.2417  -19.1255 C   0  0  0  0  0  0  0  0  0  0  0  0
    6.7251    4.6174  -21.2741 C   0  0  0  0  0  0  0  0  0  0  0  0
    5.3302    3.1482  -22.6241 C   0  0  0  0  0  0  0  0  0  0  0  0
    6.7607    3.2013  -20.6929 C   0  0  2  0  0  0  0  0  0  0  0  0
    5.4648    2.5477  -21.2337 C   0  0  2  0  0  0  0  0  0  0  0  0
    6.5708    9.0687  -23.9202 C   0  0  0  0  0  0  0  0  0  0  0  0
    5.6389    3.2220  -16.9592 C   0  0  0  0  0  0  0  0  0  0  0  0
    3.5787    4.4513  -26.7665 C   0  0  0  0  0  0  0  0  0  0  0  0
    6.1927    6.7299  -23.2224 N   0  0  0  0  0  0  0  0  0  0  0  0
    5.1052    5.1336  -24.6015 N   0  0  0  0  0  0  0  0  0  0  0  0
    5.8831    4.5090  -22.4932 N   0  0  0  0  0  0  0  0  0  0  0  0
    5.6152    3.1731  -18.4375 N   0  0  0  0  0  0  0  0  0  0  0  0
    4.3216    3.0748  -20.4263 N   0  0  0  0  0  0  0  0  0  0  0  0
    3.1975    3.4624  -18.4463 N   0  0  0  0  0  0  0  0  0  0  0  0
    7.8970    3.3145  -18.6108 O   0  0  0  0  0  0  0  0  0  0  0  0
    4.2964    5.7130  -26.7658 O   0  0  0  0  0  0  0  0  0  0  0  0
    5.7897   -3.1859  -21.5925 F   0  0  0  0  0  0  0  0  0  0  0  0
    7.5479    1.0635  -22.7101 F   0  0  0  0  0  0  0  0  0  0  0  0
    3.4479    0.6251  -20.0855 F   0  0  0  0  0  0  0  0  0  0  0  0
    5.3481    8.2549  -26.3988 F   0  0  0  0  0  0  0  0  0  0  0  0
    7.4874   -1.5008  -22.6693 H   0  0  0  0  0  0  0  0  0  0  0  0
    3.8997   -1.8703  -20.3458 H   0  0  0  0  0  0  0  0  0  0  0  0
    6.2771    5.3195  -20.5556 H   0  0  0  0  0  0  0  0  0  0  0  0
    7.7394    4.9551  -21.5331 H   0  0  0  0  0  0  0  0  0  0  0  0
    5.9052    2.5637  -23.3575 H   0  0  0  0  0  0  0  0  0  0  0  0
    4.2746    3.1852  -22.9312 H   0  0  0  0  0  0  0  0  0  0  0  0
    7.6333    2.6622  -21.0905 H   0  0  0  0  0  0  0  0  0  0  0  0
    6.9762    9.1285  -22.8994 H   0  0  0  0  0  0  0  0  0  0  0  0
    7.3588    9.3265  -24.6431 H   0  0  0  0  0  0  0  0  0  0  0  0
    5.7331    9.7740  -24.0239 H   0  0  0  0  0  0  0  0  0  0  0  0
    4.6089    3.1913  -16.5742 H   0  0  0  0  0  0  0  0  0  0  0  0
    6.2005    2.3586  -16.5728 H   0  0  0  0  0  0  0  0  0  0  0  0
    6.1253    4.1524  -16.6309 H   0  0  0  0  0  0  0  0  0  0  0  0
    3.0938    4.3052  -27.7430 H   0  0  0  0  0  0  0  0  0  0  0  0
    4.2842    3.6281  -26.5808 H   0  0  0  0  0  0  0  0  0  0  0  0
    2.8140    4.4642  -25.9758 H   0  0  0  0  0  0  0  0  0  0  0  0
    3.4711    3.3100  -20.8967 H   0  0  0  0  0  0  0  0  0  0  0  0
    2.3331    3.4894  -18.9484 H   0  0  0  0  0  0  0  0  0  0  0  0
    3.2043    3.5943  -17.4551 H   0  0  0  0  0  0  0  0  0  0  0  0
  1  4  2  0
  1  5  1  0
  2  4  1  0
  2  6  2  0
  3  5  2  0
  3  6  1  0
 16  3  1  6
  4 28  1  0
  5 29  1  0
  6 30  1  0
  7  8  2  0
  7  9  1  0
  7 31  1  0
  8 17  1  0
  8 20  1  0
  9 21  2  0
  9 27  1  0
 10 20  2  0
 10 21  1  0
 10 22  1  0
 11 15  1  0
 11 23  1  0
 11 26  2  0
 12 23  1  0
 12 24  2  0
 12 25  1  0
 13 15  1  0
 13 22  1  0
 14 16  1  0
 14 22  1  0
 15 16  1  0
 16 24  1  0
 18 23  1  0
 19 27  1  0
  1 32  1  0
  2 33  1  0
 13 34  1  0
 13 35  1  0
 14 36  1  0
 14 37  1  0
 15 38  1  6
 17 39  1  0
 17 40  1  0
 17 41  1  0
 18 42  1  0
 18 43  1  0
 18 44  1  0
 19 45  1  0
 19 46  1  0
 19 47  1  0
 24 48  1  0
 25 49  1  0
 25 50  1  0
M  CHG  1  24   1
M  END
>  <OMEGA_C>  (20) 
PprVQFQChb9PBbHBuKmUQHCdn7+qh6bBhhexQF1sfj/FlqrBYLC2QK2f679lDqzBYQvTQH3AuD5b
Z7DBRUCRQBYeGj5K1KXBSRevQP2p6kDoVMvBnJ/CQBA49UAxgMHBCsSeQP4UwUA6vszBJzq3QEhy
r0DQnrvB+erZQNPFTEB1U5nBVmyMQMp3T0D2AJnBzjPXQJTBk0BsMarBN5GqQD58SUAk/rTBxFfY
QOLhTEAAi6XB+9+uQFsNI0Cs3qnBQETSQGcZEUGWXL/Bt3G0QIc0TkBbrIfBnwhlQCVxjkC8IdbB
iyrGQL9b10CTx7nB6l2jQEJGpEDZz8TBa0K8QJhJkEAY8rPBs6+zQN4TS0AZgJPB2kqKQPTJREAk
aaPBu6NMQJmXXUAGkpPBh7T8QEIgVEDa4pTBF3yJQIzQtkBXINbBlkW5QHvlS8B+vazBmYjxQC8f
iD9UrrXBfqpcQNcGID8cr6DBhSOrQA0UBEGtMNPBfZjvQMIYwL/SWrXBRZR5QP9l7784xKLBQt7I
QJc5qkDOcaTBS6n3QBGQnkDLQ6zBC/e8QD4UJEAb3LrBlsmIQLLaS0ALc7fBoEP0QA5iKkBOuajB
nzzfQHUOEkHiMbfBhnvrQCg5FUEkJcXB2nW3QIFiHEHzMMDBEnyTQJE9TED6l4TBGmrGQDzzFkAp
lYTBSALEQEDghEAhDIXB4ABGQFrEiUCj8d3BcRiJQO4yaEBjpdTBDxg0QNLajkCHzs/BGSZeQKnX
U0BmLKfBb1EVQDVSX0BKlpfBOxNNQC4JZkD5o4vBqHaUQJcgnr+gmKbBmsvVQJgtg7/E7bDBIP+w
QEHYgD8RkarBZsi2QCD26b+9BKzBuO+QQOUDJj4o6qXB7CrTQPz3vz7TT7DBetGuQPPD6kA2Z8vB
aN3BQMek9UCdiMHBPvaeQPcAwUD70MzBFsy2QArdr0ArnLvBvgjaQDSzTEC+W5nBQIuMQAR/T0DJ
6JjBSHPWQI5tlEDUHKrBVD+qQClESkBL9rTBeB3YQFv1TUDdj6XBAquuQFrcI0Cs2KnBKoXRQHxV
EUGVdL/Bite0QLFGTECxpYfBsPZnQPOejUAKT9bByG7FQI7n10CXx7nBRlqjQJ9qpEDr1MTBrs67
QAzHkEAo6rPBoO6zQCCwSkD1eZPBgCuKQP11RUB6U6PBEjpNQMHqXEAHX5PBQgf9QIfqUUCL+ZTB
ZpyKQDMwtkCwSdbBAJq5QDQRS8CZo6zBjm9bQGHYIj+35KDBXMbxQBH6iT8wirXBnPuqQMUJBEH5
TtPBLud4QLEJ7r8i5qLBs+vvQLAdvr+LOLXBDKDHQNt/qkCEWKTBaMv2QA3Kn0ATHKzBua+8QMoA
JUDT1brBF3SIQE9nTEDwaLfBpQz0QEsdLEAZ2KjBJIjeQFVfEkGSS7fB8bTqQHFmFUHLQcXBvbW2
QHycHEH2TcDBM+qTQEdISkDbi4TBeLHGQJhtFEDCroTBOJvEQGymg0Dh6YTBSGRKQLF6iEDMMN7B
M6SKQLgSZ0DPoNTBWOs1QNcYjkDbHtDBd9FdQI3fVEDnC6fBsZgVQD6qXkAMUpfB1DlOQIPVZEAC
b4vB+W2RQE6ylb+azajBGdrUQMAwdb88Q7LB62qyQF3Uhj+Nw6rBlYCzQJC84L/5XK7B4ziQQFB8
Xj7RE6fB5J/UQKQm3D5KkLDBjeyoQGl75UCVNszBh5mbQP2jukDJqczB9lG9QLlj9ECj4MLBVJW4
QEWbr0CJqbvBQ//ZQHZOTUBKvpjBp4CMQPi+T0DN6pjB0WfYQB4zlkDGl6nBd3atQHrATEDDlrTB
J9fZQB6RUECpAqXBzeawQAaDJkBNlanB1u2AQIDAqUB919XBp0eyQH4+REAKYIfBu4LgQDKGFkEz
YbnBVFijQFn0oEBGXcTBvHnFQEfI2EAcuLrB2IW+QCsXkkAxlLPB0RSzQDqeSEAFMZPBTq+LQCoI
SEDGWqPB2KVLQIojXUDTtpPBulb8QNz1T0AWBJTBghHGQJHVD0GENcLBUNKzQLugRcAiHLDBiNFZ
QCDIMT8yHqLBFh71QBtZkT9NAbXBTIChQBYnAEEXf9TByZ9vQEEv5b+iz6XBfO7uQMLctL+Km7bB
TO7IQKs3rECt66PBXNn4QOm/oUDyaavBe4TAQCCUJ0DXWLrB/t+LQM5ZTkDMNrfBZS/2QIQZL0AC
IajBqqZuQOaQiEDCJ9TB0WZIQFa8vUAtytbBUN6TQBmvqkB3Qd3Bi+yQQNXyQEA0mITBW6XDQIvg
CkCPsoTBb6/BQDinfUC+CoTBjSblQCr1J0FCt7nBfdDQQIg7EkELzbHB3ML/QF18DkHn4LnBymFi
QKszWUBqS6fBiFkVQHqTYEBT7ZfBBztKQPpYY0D9wIvBAwvWQL4abr9BOLLBG6mTQFHilb+eXKjB
svmyQJD/iD/Os6rBPJe1QIMq37+SD67BZhXVQPhc6z7yobDBD8iRQLCXXT4ItqbBC56rQEKL5EBW
s8zB8KqbQCmTukBKxMzBoz3BQLpn80CdhsPBBiW3QFl1sEBpj7vB8djZQCQiT0DmuZjBhTiMQKhr
UUAe25jBEy3YQDoQl0CWo6nB/AatQDBzTkAaeLTBt5vZQFRAUkBP/qTB39CwQK6iJ0CXgqnBRKCA
QLLvqUAj6NXB+CmyQJx7RUCTVofB8RvgQMCXFkG/fLnBzZqhQNKyoUB5NsTBgsnGQBzM2EBWBrvB
Tam7QIa2k0DFN7PBKveyQAz6T0CNHZPBFWmLQAgWSED8RaPB411KQKC2WkBqrpPBhVD8QBbqS0CF
D5TBv5fPQMGlDkG3g8PBksi2QPQMRcCXna/BUxv1QAyBlj8TLbXByftdQLRwLD/TaqHBUXmlQMaW
/kAtNNXBTf/vQJb3r78arrbBB1J1QHbU5r9tM6XBD8rKQAKSrUAywqPB7mX4QLiuoUD/+6vBj2zB
QEoELEDCNLrBep6LQPu8TECUO7fB8/z1QJLWMEDcGajBHUFqQJuQiUDw/NPBUi5KQItPv0B1IdfB
AQCUQG7YqEC2P93BC+KQQCn3R0A1fYTBCFrAQLRiB0AIMYXBc6zEQFVNeUBQloPBtnPqQHpMJ0Fm
errBGOzGQJLEFUGLWrPBBYr7QBjDDEGJ/LbBrj5hQINUV0B6NqfBUfwTQBIbWkAQ5pfBtINIQKID
YkCmvIvB

>  <OMEGA_E>  (20) 
QCYHPYD9CT2ocII+dCaEPg==

>  <OMEGA_NBR>  (20) 
     60531

$$$$
220594
     RDKit          3D

 53 56  0  0  1  0  0  0  0  0999 V2000
    5.6455   -1.7839  -21.4546 C   0  0  0  0  0  0  0  0  0  0  0  0
    6.6158   -1.0210  -22.1251 C   0  0  0  0  0  0  0  0  0  0  0  0
    4.5860    0.2565  -20.6562 C   0  0  0  0  0  0  0  0  0  0  0  0
    5.5613    1.0453  -21.3166 C   0  0  0  0  0  0  0  0  0  0  0  0
    4.6299   -1.1431  -20.7253 C   0  0  0  0  0  0  0  0  0  0  0  0
    6.5812    0.3837  -22.0675 C   0  0  0  0  0  0  0  0  0  0  0  0
    5.4081    7.3458  -25.4055 C   0  0  0  0  0  0  0  0  0  0  0  0
    5.9468    7.6905  -24.1478 C   0  0  0  0  0  0  0  0  0  0  0  0
    4.9638    6.0285  -25.6061 C   0  0  0  0  0  0  0  0  0  0  0  0
    5.7938    5.4681  -23.4923 C   0  0  0  0  0  0  0  0  0  0  0  0
    6.8106    3.2238  -19.1624 C   0  0  0  0  0  0  0  0  0  0  0  0
    4.3809    3.2614  -19.1299 C   0  0  0  0  0  0  0  0  0  0  0  0
    6.7329    4.6412  -21.2699 C   0  0  0  0  0  0  0  0  0  0  0  0
    5.3392    3.1734  -22.6241 C   0  0  0  0  0  0  0  0  0  0  0  0
    6.7724    3.2289  -20.6890 C   0  0  2  0  0  0  0  0  0  0  0  0
    5.4845    2.5800  -21.2333 C   0  0  2  0  0  0  0  0  0  0  0  0
    7.7575    9.3904  -24.1166 C   0  0  0  0  0  0  0  0  0  0  0  0
    5.6190    3.2651  -16.9591 C   0  0  0  0  0  0  0  0  0  0  0  0
    3.5465    4.4554  -26.7441 C   0  0  0  0  0  0  0  0  0  0  0  0
    6.2857    9.1207  -23.8075 C   0  0  0  0  0  0  0  0  0  0  0  0
    6.1631    6.7364  -23.2247 N   0  0  0  0  0  0  0  0  0  0  0  0
    5.1727    5.1130  -24.6403 N   0  0  0  0  0  0  0  0  0  0  0  0
    5.9814    4.4947  -22.5421 N   0  0  0  0  0  0  0  0  0  0  0  0
    5.6107    3.2906  -18.4408 N   0  0  0  0  0  0  0  0  0  0  0  0
    4.3185    3.0599  -20.4260 N   0  0  0  0  0  0  0  0  0  0  0  0
    3.1802    3.4277  -18.4526 N   0  0  0  0  0  0  0  0  0  0  0  0
    7.9015    3.2388  -18.6035 O   0  0  0  0  0  0  0  0  0  0  0  0
    4.2607    5.7176  -26.7579 O   0  0  0  0  0  0  0  0  0  0  0  0
    3.6886   -1.8718  -20.0869 F   0  0  0  0  0  0  0  0  0  0  0  0
    7.5328    1.0644  -22.7527 F   0  0  0  0  0  0  0  0  0  0  0  0
    5.2676    8.2695  -26.3838 F   0  0  0  0  0  0  0  0  0  0  0  0
    5.6801   -2.8624  -21.4997 H   0  0  0  0  0  0  0  0  0  0  0  0
    7.3931   -1.5162  -22.6881 H   0  0  0  0  0  0  0  0  0  0  0  0
    3.8004    0.7391  -20.0937 H   0  0  0  0  0  0  0  0  0  0  0  0
    6.2124    5.3288  -20.5871 H   0  0  0  0  0  0  0  0  0  0  0  0
    7.7506    5.0130  -21.4594 H   0  0  0  0  0  0  0  0  0  0  0  0
    5.8463    2.5423  -23.3688 H   0  0  0  0  0  0  0  0  0  0  0  0
    4.2772    3.2754  -22.8921 H   0  0  0  0  0  0  0  0  0  0  0  0
    7.6478    2.6917  -21.0826 H   0  0  0  0  0  0  0  0  0  0  0  0
    7.9999   10.4339  -23.8670 H   0  0  0  0  0  0  0  0  0  0  0  0
    8.3874    8.7149  -23.5192 H   0  0  0  0  0  0  0  0  0  0  0  0
    7.9452    9.2164  -25.1864 H   0  0  0  0  0  0  0  0  0  0  0  0
    4.5864    3.3268  -16.5850 H   0  0  0  0  0  0  0  0  0  0  0  0
    6.0795    2.3287  -16.6111 H   0  0  0  0  0  0  0  0  0  0  0  0
    6.1975    4.1209  -16.5810 H   0  0  0  0  0  0  0  0  0  0  0  0
    3.0286    4.3161  -27.7046 H   0  0  0  0  0  0  0  0  0  0  0  0
    4.2596    3.6324  -26.5895 H   0  0  0  0  0  0  0  0  0  0  0  0
    2.8094    4.4602  -25.9276 H   0  0  0  0  0  0  0  0  0  0  0  0
    5.6569    9.7972  -24.4049 H   0  0  0  0  0  0  0  0  0  0  0  0
    6.0991    9.2957  -22.7376 H   0  0  0  0  0  0  0  0  0  0  0  0
    3.4528    3.2349  -20.8951 H   0  0  0  0  0  0  0  0  0  0  0  0
    2.3149    3.3916  -18.9526 H   0  0  0  0  0  0  0  0  0  0  0  0
    3.1808    3.5836  -17.4649 H   0  0  0  0  0  0  0  0  0  0  0  0
  1  2  2  0
  1  5  1  0
  2  6  1  0
  3  4  1  0
  3  5  2  0
  4  6  2  0
 16  4  1  6
  5 29  1  0
  6 30  1  0
  7  8  2  0
  7  9  1  0
  7 31  1  0
  8 20  1  0
  8 21  1  0
  9 22  2  0
  9 28  1  0
 10 21  2  0
 10 22  1  0
 10 23  1  0
 11 15  1  0
 11 24  1  0
 11 27  2  0
 12 24  1  0
 12 25  2  0
 12 26  1  0
 13 15  1  0
 13 23  1  0
 14 16  1  0
 14 23  1  0
 15 16  1  0
 16 25  1  0
 17 20  1  0
 18 24  1  0
 19 28  1  0
  1 32  1  0
  2 33  1  0
  3 34  1  0
 13 35  1  0
 13 36  1  0
 14 37  1  0
 14 38  1  0
 15 39  1  6
 17 40  1  0
 17 41  1  0
 17 42  1  0
 18 43  1  0
 18 44  1  0
 18 45  1  0
 19 46  1  0
 19 47  1  0
 19 48  1  0
 20 49  1  0
 20 50  1  0
 25 51  1  0
 26 52  1  0
 26 53  1  0
M  CHG  1  25   1
M  END
>  <OMEGA_C>  (21) 
uae0QDpW5L//oqvBnbTTQDewgr8fALHBe8CSQDlVgz79P6XB/fWxQKnMhT9diKrB0SeUQPlQkr9u
zaXB0pjSQJ52xD42irDBNQ+tQOUQ60CKPsvBTEy+QGsY9kCyLsHBZNeeQEzpwEBJ2czBHme5QL/6
rkA38LvBSPDZQIdSTkCiTJnBZDCMQO+6UEAUCpnBr3PXQHmElEDVKKrBktqqQHcYS0Av/rTBI7fY
QBanTkAQg6XB2YCvQL4eJUDd3anBwz34QC4/FkHh7sDBjs6zQNf3UEAmrIfBH/liQNGSjkD689XB
lyTJQFDuEUGtdb7BADjFQPuQ10AjzLnBmIalQLCdo0BCH8XBeme/QIXUj0BOVrTBB4uzQFKZUkCx
hpPBxzCKQAzVQ0BvaKPBoohLQI1fW0D4npPB2dj8QAdIT0De05TBu1eIQMj2tkAjENbBFBJsQP2X
77/rsaDBuAzxQJ88iD+bBbbBMJCoQMJPBEEcEtPBZMO1QFExN8BK/6vBIpTsQG4Rwr9LgbXBazpz
QHoyPT/mv6DBOszGQLyFqkBfsqTBQAX4QJlqoEDCrKvBFBW7QGy1IkBY87rBAt+IQMmfUUAbI7fB
Brv0QO9ELEAlqajBVP//QHPxJkGm777BpjIGQQdwC0FaJ7zBQT/+QD52E0HWfcnBa8OSQCTqVEAX
roTBlIvCQB8KFUCW44TB0FHGQHTeg0DQpYTBs9RBQFAdikDtot3BAE+IQIZ4aEAzt9TBAc0zQEG6
jkC9a8/BowW1QInBHEEpPcPBrSvDQFK7FEGt5rXByfpcQO4HT0AcKafB+ScUQDUPWUD0npfB0ZFL
QBxaZUAEuIvBaja2QHJC5b+02azBH66TQG4jnb9UPafBNbPSQFbZ3D4SILDBAFmwQB8Agz+LaKrB
Q37VQJ5Odb9MYrHBEhCQQNv3Kz7yGKbBMlSsQPLn6kDw98rB+q28QHGw9UDnzcDBdhyfQASUwEAN
yczBH1m4QOZOrkCgxbvBCEzaQAVzTECoUJnBxaGMQHLPUEAF6JjBNvXXQMBEk0CGParBQ1CrQK9h
SEDs9rTB3Y/YQHwvTEBkiKXBw56uQB4BJEAouanBkdf0QAPtFkEGbcDBihC1QKNtUEC6oIfBD7Bj
QBxLj0AANNbBpy/GQDHBEUGP273BNazDQHTp1kDbf7nBmU6lQM4Ko0DwE8XB4gu+QHI2j0B6JbTB
eRK0QCoyTEAWc5PB/0iKQDHQRkBjUaPBtzlNQI+NXkD0a5PB0zv9QJ0OUkCi6JTBGmSKQJOetkAs
P9bBtyv2QMyhvr+ODLfB1bVZQPp7Ij/HBaHBS5mnQPBsBEGVsdLBy6+4QLxBN8CSrK3BvVZ3QPma
77+cxKPBVR/rQEkNiD8XkbPBYvvIQNDnqUAco6TBNZv4QAYRnkCzHqzB2HW9QCTYIEDaqLrBW6+J
QHAGTEA8hrfB1hL0QPmFKECAvKjBf6T7QB2lJ0H5Q77BUfUEQRY8DEHo1LvBKZP6QPqdFEEDCMnB
CyeUQEyHT0BQgoTBjMTGQJsNGUCfeYTB/AXFQPbshUCtG4XBY75FQNGlikAQFd7BzS6HQBZbaECT
dtTBkqwxQH0vkUApB9DB9COxQNd1HEGec8LBbXvAQPMTFEGEQLXB53teQC0SV0DGFKfB9sYVQDqE
YEDEaJfBVehNQMp8ZkDfe4vBNZSyQHoE4b/KIa3BahfSQNe0er+1K7LB+meRQAKOhT57GabBGECx
QBKJiD9X/KrBRyGSQJpNkb/wKafB3qjRQL5u2D5LM7HBYiKuQBgq5kCak8zBeESgQNKAu0AMHM3B
o5bAQMIZ9UD8A8PBTkO3QDcfsUDQh7vBdCLaQJ27TECcOZnBjHiMQAvZS0C3upjB01vXQJr+lUDS
46nB1CaqQFepT0ChnLTBQX7YQKnXT0BIc6XBACWvQIaKJkAXy6nBwk9IQH4aj0ABhtTBlPS0QE9i
SEBHhIfBSIrgQOD2FkHQ5rjBeOOMQCGtqEBLL9fBhY2lQNQOokCGocTBfB7FQLsI2kBnjrrBSsq5
QKgTlEA3N7PBbP+zQOnJR0DOWJPBLwqKQIkvQ0AtJaPBCR1NQF93WEC8J5PB8uj8QOlIVECxyZTB
HwLNQCLFD0GcsMLBjHpmQIZD8L9weqLBYYzwQJDpjj9maLbBh+2pQFZWAEH5ENXBakyzQKBgNcCD
2K3BSdPqQPbcur910rbBbItwQIyGOj/Ef6HBoSvLQMxVrEByz6PBL373QIUgoEDCb6zBA229QDqw
LUChoLrB9V2IQH6dT0AFFbfBV2X0QDsOLkAlwqjB5jUtQL66gUDW7NvBEmJYQAXSaUCm/87Bjh0Z
QB1lpEDWvdDBVhiUQAUMRECtaITBeLHHQAxtEUCmooTBTs3DQNEPgkCytITBOvPoQFb+J0G1n7nB
5fDJQM/SFEGAPbLBkqj9QPGRDUF9W7fBY7SEQITCwkB4utzBpVakQGlGk0BI/NrBI5hcQAc+UEBu
yKbB7nIVQHKrWkDrF5fBWCtOQKZZX0DlM4vB5kW3QP6O4r/ecq3BixeWQLcbnb+PPqfBz2XSQKz1
7z7N1rDBEQixQIpyhT+QpKrBWVjVQDSFa7/fRbLBYHySQABKKD4/1aXB0GGrQH4e50AFIMzB10+f
QNrwu0Be9szBovu9QHB19UC9hMLBC4S3QAo3sEAtkLvBQuTZQCX0SkDlNZnBoTyMQOOLUEBN8ZjB
ONnXQBbxlEB46qnB1OmrQAkjTEBIxrTB/pLYQA/VTUDlbqXBFvGuQDN1JUCNuKnBDuo4QIIxnEDT
fNTB6fazQMz2SUBcmIfBCrrfQEiOFkHHWrjBBrSKQG66qUAU7dbBHFWlQFzCoUADqcTB3C3EQCpp
2UDxVLrBULC7QG5XkkAefLPBMXCzQJ2MSUBUbZPBiSWKQPS/RkA6W6PBRlNMQEnzXkCsgZPB37T8
QCvQTUAltZTBocbIQFAlEEGJ0sHBKRT1QC7Nt79aWbjB9E9iQIpKGj+M5J/BS3qlQOxJAUHhXNTB
Naa5QOu2NcCnga7BHC5+QCFH8b/bg6PB1e3pQBhpjj+eg7TBfJfKQE1Uq0Af/aPBaED4QPNHn0Cm
LqzBDg/AQK6QKEBNdbrBR5WKQH4DTEC5mrfB4Er0QCVGK0CotqjB+GEbQI3+jkA2w9vBJvo4QGOz
g0DRKs7BuCUUQBcyuECsyNHBYeySQGKxSECdkITBfkjFQCFJEUAEroTBFxfEQH8cgkBJvYTBGnTm
QObQJ0EmuLjBdjbMQBIUE0FyPbHBoQr+QLCpDUFr37fBWZyKQBcxwkDiQN3BkQadQGOyjUAGo9nB
gw5eQHUWVkBiJafBqxMVQEGGYUAliJfBtLtMQOi/ZkD6kIvB

>  <OMEGA_E>  (21) 
sKoXPjBaLT74z58+sFCpPg==

>  <OMEGA_NBR>  (21) 
     64369

$$$$
220595
     RDKit          3D

 53 56  0  0  1  0  0  0  0  0999 V2000
    4.5378    0.2426  -20.6681 C   0  0  0  0  0  0  0  0  0  0  0  0
    4.5576   -1.1569  -20.7396 C   0  0  0  0  0  0  0  0  0  0  0  0
    6.5323   -1.0626  -22.1594 C   0  0  0  0  0  0  0  0  0  0  0  0
    5.5239    1.0170  -21.3332 C   0  0  0  0  0  0  0  0  0  0  0  0
    5.5557   -1.8090  -21.4795 C   0  0  0  0  0  0  0  0  0  0  0  0
    6.5254    0.3412  -22.0956 C   0  0  0  0  0  0  0  0  0  0  0  0
    5.4371    7.3456  -25.3837 C   0  0  0  0  0  0  0  0  0  0  0  0
    5.9298    7.6885  -24.1068 C   0  0  0  0  0  0  0  0  0  0  0  0
    5.0032    6.0274  -25.6039 C   0  0  0  0  0  0  0  0  0  0  0  0
    5.6978    5.4785  -23.4407 C   0  0  0  0  0  0  0  0  0  0  0  0
    6.8396    3.1978  -19.1919 C   0  0  0  0  0  0  0  0  0  0  0  0
    4.4140    3.2311  -19.1215 C   0  0  0  0  0  0  0  0  0  0  0  0
    6.7516    4.6032  -21.3069 C   0  0  0  0  0  0  0  0  0  0  0  0
    5.3198    3.1543  -22.6239 C   0  0  0  0  0  0  0  0  0  0  0  0
    6.7769    3.1902  -20.7185 C   0  0  2  0  0  0  0  0  0  0  0  0
    5.4735    2.5512  -21.2430 C   0  0  2  0  0  0  0  0  0  0  0  0
    7.7171    9.4082  -24.2234 C   0  0  0  0  0  0  0  0  0  0  0  0
    5.6930    3.2735  -16.9738 C   0  0  0  0  0  0  0  0  0  0  0  0
    3.5763    4.5076  -26.7903 C   0  0  0  0  0  0  0  0  0  0  0  0
    6.2901    9.1114  -23.7634 C   0  0  0  0  0  0  0  0  0  0  0  0
    6.0871    6.7390  -23.1703 N   0  0  0  0  0  0  0  0  0  0  0  0
    5.1403    5.1184  -24.6189 N   0  0  0  0  0  0  0  0  0  0  0  0
    5.8262    4.5219  -22.4674 N   0  0  0  0  0  0  0  0  0  0  0  0
    5.6519    3.1802  -18.4499 N   0  0  0  0  0  0  0  0  0  0  0  0
    4.3263    3.0414  -20.4172 N   0  0  0  0  0  0  0  0  0  0  0  0
    3.2355    3.4737  -18.4294 N   0  0  0  0  0  0  0  0  0  0  0  0
    7.9315    3.3291  -18.6500 O   0  0  0  0  0  0  0  0  0  0  0  0
    4.3969    5.7024  -26.8043 O   0  0  0  0  0  0  0  0  0  0  0  0
    5.5725   -3.1572  -21.5408 F   0  0  0  0  0  0  0  0  0  0  0  0
    7.4892    1.0044  -22.7808 F   0  0  0  0  0  0  0  0  0  0  0  0
    5.3333    8.2718  -26.3642 F   0  0  0  0  0  0  0  0  0  0  0  0
    3.7635    0.7373  -20.1006 H   0  0  0  0  0  0  0  0  0  0  0  0
    3.8038   -1.7340  -20.2248 H   0  0  0  0  0  0  0  0  0  0  0  0
    7.2926   -1.5704  -22.7343 H   0  0  0  0  0  0  0  0  0  0  0  0
    6.3781    5.3241  -20.5647 H   0  0  0  0  0  0  0  0  0  0  0  0
    7.7577    4.9030  -21.6353 H   0  0  0  0  0  0  0  0  0  0  0  0
    5.9154    2.5981  -23.3628 H   0  0  0  0  0  0  0  0  0  0  0  0
    4.2643    3.1604  -22.9335 H   0  0  0  0  0  0  0  0  0  0  0  0
    7.6405    2.6398  -21.1202 H   0  0  0  0  0  0  0  0  0  0  0  0
    7.9758   10.4471  -23.9709 H   0  0  0  0  0  0  0  0  0  0  0  0
    8.4148    8.7237  -23.7186 H   0  0  0  0  0  0  0  0  0  0  0  0
    7.7882    9.2670  -25.3120 H   0  0  0  0  0  0  0  0  0  0  0  0
    4.6681    3.2434  -16.5753 H   0  0  0  0  0  0  0  0  0  0  0  0
    6.2686    2.4280  -16.5690 H   0  0  0  0  0  0  0  0  0  0  0  0
    6.1731    4.2183  -16.6794 H   0  0  0  0  0  0  0  0  0  0  0  0
    3.1465    4.3457  -27.7899 H   0  0  0  0  0  0  0  0  0  0  0  0
    4.1948    3.6414  -26.5126 H   0  0  0  0  0  0  0  0  0  0  0  0
    2.7648    4.6288  -26.0577 H   0  0  0  0  0  0  0  0  0  0  0  0
    5.5934    9.7968  -24.2683 H   0  0  0  0  0  0  0  0  0  0  0  0
    6.2200    9.2536  -22.6749 H   0  0  0  0  0  0  0  0  0  0  0  0
    3.4562    3.2325  -20.8716 H   0  0  0  0  0  0  0  0  0  0  0  0
    2.3640    3.4986  -18.9193 H   0  0  0  0  0  0  0  0  0  0  0  0
    3.2578    3.6235  -17.4410 H   0  0  0  0  0  0  0  0  0  0  0  0
  1  2  2  0
  1  4  1  0
  2  5  1  0
  3  5  2  0
  3  6  1  0
  4  6  2  0
 16  4  1  6
  5 29  1  0
  6 30  1  0
  7  8  2  0
  7  9  1  0
  7 31  1  0
  8 20  1  0
  8 21  1  0
  9 22  2  0
  9 28  1  0
 10 21  2  0
 10 22  1  0
 10 23  1  0
 11 15  1  0
 11 24  1  0
 11 27  2  0
 12 24  1  0
 12 25  2  0
 12 26  1  0
 13 15  1  0
 13 23  1  0
 14 16  1  0
 14 23  1  0
 15 16  1  0
 16 25  1  0
 17 20  1  0
 18 24  1  0
 19 28  1  0
  1 32  1  0
  2 33  1  0
  3 34  1  0
 13 35  1  0
 13 36  1  0
 14 37  1  0
 14 38  1  0
 15 39  1  6
 17 40  1  0
 17 41  1  0
 17 42  1  0
 18 43  1  0
 18 44  1  0
 18 45  1  0
 19 46  1  0
 19 47  1  0
 19 48  1  0
 20 49  1  0
 20 50  1  0
 25 51  1  0
 26 52  1  0
 26 53  1  0
M  CHG  1  25   1
M  END
>  <OMEGA_C>  (22) 
kjWRQO5peD5OWKXB6deRQG0UlL/I6qXBfgjRQDUEiL9wRrHB0cOwQBYugj9XqqrBUcixQJmN57/u
1avBSNDQQAusrj7Tw7DBhfytQNAO60DMEcvByMC9QGgI9kDU2sDBGxqgQGHgwEDN1MzBjFS2QBdQ
r0CehrvBPd7aQHGoTEAJiZnBlT+NQCDKTkDp+JjB2QzYQFBNk0B/dKrBrTuqQFXfSUC6/bTBntzY
QHYrTEB/v6XBqCavQDdHI0Cc8anBvPL2QNCHFkGQycHBziy2QEuAUUBGyofBh+JkQKc+kECcUtbB
TEjJQGHIEUF7G77B1cnCQCGm10DLXLnBun2kQBXKo0Cb88TBTnC6QJ2zkEAuvbPBBdy0QLqIS0Ba
mZPBUHGKQD6mQkB6VqPBnhFPQNhQXkCDb5PB9879QLIPVUAfM5XBp7OMQFp6tkAeb9bBRlKyQL0P
SsCYU6zBJ6fvQIiRgD/8PrbBtqqqQCJZBEHl6dLB9NxwQFnBPD8AzqDB4XFzQNL03b9PzKHBrVzp
QCUDyb/j37XBQxnMQMJeqkB/hKTB1j74QMDlnEANFa3B80q9QERHJkDw5rrB3HSIQE1DSkDBd7fB
0370QOzxKEAo9qjBfDn/QDonJ0FzxL/B2KIGQU+UC0Gvv73Btzj5QG9FFEH7fsrBVmGVQMKTT0Ak
moTBP5jIQBtkG0BJjYTBR4rFQJ78hkBwb4XByWBJQCcQi0ClUd7BwDuGQB8NaUC8GdTBTPMwQHUf
lEAVdtDBVP2yQMS/HEF7JcLBTQrHQKMOFEEvZrXBGTNdQM/hTkDw+KbB/EsXQELpX0DFWpfBkoBQ
QNXnZ0Anh4vBqQjTQOF63j5SE7DBQFPWQLq/dL9fKLHBRiqUQBjPnL/IIafB4WqwQMlBgz8VbarB
Vwy3QEGc5L/CnazBJz2QQAJaLT6wFabBuqCrQGVF60A5zsrBJUG8QMG29UAnpMDBRAKfQGrSwEDw
wMzBooq4QH4hrkASzrvB2C/aQJ02TECpWpnBFouMQKZCUUCE7pjBibnXQNU3k0ATP6rBDyWrQK5B
SEDd/7TBjGnYQHctTEBKkKXBDn2uQLkGJEAzwanBoXbyQBzfF0FwdsHB1Qy1QCu4UECaqIfB8Jpk
QDtNj0CiRtbBZsHFQBm2EUE3l73BIZzDQPKx1kAHcLnBMK6lQE8Do0D/I8XBY22+QPnqjkDPPLTB
YP2zQEZdTEASe5PBkh+KQL7MRkCnVqPBGzVNQKOrX0ArcJPBBS39QCjNUEAK9ZTBk2qKQFPttkBC
PdbB1Ei6QKUUSMAvmq3B9NRZQCwoIj8UC6HBaiKmQNPPBEEEZtLBNTnrQNi1iD+DmLPBp+DwQBWf
sb9MerXBnkV4QCh7778CsKPBEjzIQFa1qUCisaTBUGL4QBxNnkCyAazByei8QD8oIEBatbrBQXuJ
QI+vTEDLgrfBVuzzQLyaKEByyKjBNzv5QK+MKEHUN7/BFCUFQYVDDUF5vr3BzhD0QGE7FkEZN8rB
2yaUQM0lUECQh4TBMaXGQNY4GUBtgITBUCfFQIIDhkB0J4XBp8tGQN67ikB2Kt7B4fGHQJrAaEAe
ltTB34cyQFy3kEC5GdDB7PatQJZWHEFOT8HBRzDEQLleE0Gv1rTBTwJeQEapVkAXGKfBH7UVQBvB
YUDbaZfBFA9OQP72Z0CfgYvBcs2PQGhoiz4lM6bBToWQQM4dkL8NCafBbkHRQNaef79DzbHBClyw
QGwHiD97+qrBZmexQEJ54b8dvqzBGvHQQJrezj6aB7HBNKOtQOO95kAqZMzBcv6hQGd6u0CJPc3B
Qt29QAXI9UD4l8LBMMe3QHO4sEA2lrvBTmDaQNrMS0DESZnBvMOMQPbCS0B7uJjBcGzXQLWJlUAs
7anBOCCqQFT3TkBvrrTBBn7YQHbzTkBIg6XBUOuuQPY+JkC81KnBBbBKQI4IkUCT/tTBtIq1QJ0F
SEAUiofBAFbiQFPLFkGMMrnBoGmPQAXGqEDEatfBRqGnQIySoUAv3MTBYCPDQFs42kCrR7rBGlK6
QK+Ak0CtVbPBFFq0QIXBRkATX5PBoiGKQFHgQ0CnJaPBVBBOQG1AWUBsG5PBWiH9QHLmVEC04pTB
5FvGQKuBEEE/xsHBrD6yQEv1RsBAaq3BliLwQFigij+VQLbBtnKpQLvcAEGHydTBwllsQJwAQT9y
3qHBc3dvQPlt278LSKPBtCPqQNQCv7//T7bBxdrKQCjMq0B24KPBOaP3QK/Pn0ByX6zBYSm9QD1D
LEDlrbrBn1WIQBysT0DyJLfBID/0QKfxLEAF3ajBiYcwQLCng0DNctzByiZXQLzrbUCWSs/BkEEc
QKKFp0BkgtHBg8GUQCp+Q0AUY4TBY33IQGRvEUA8ooTBv0bEQF0KgkCFzITByrXmQFRBKEFXWbnB
ZyjUQL0JEkF/gLHBv8UAQfPkDkHBLbrB7RCJQB/EwkCaIt3BioOmQFs0kkDM6trBBvtcQO03UkDi
wabB4FoWQGyiXEC8BZfBZ2lPQBuWX0DvJYvBRMvTQN6S7T6WE7DB9VHWQG68bL/WgrHBTrOSQAa0
mL8IIajBUMSwQIwFhz9clqrBivG1QFKA4L9Mda3B1nePQKDZSz5ow6bBcL6qQD4B50A9HszBx/+f
QHmEu0BdEs3BMHK8QGqQ9UCQbsLB1OO3QCT3r0Cgo7vBJivaQOL0S0BlK5nBenqMQHjTT0Dd3ZjB
JbjXQKBWlUBK4qnBW1+sQJXVS0D3wrTBWsLYQCPITkARY6XBjSevQLIXJkBQranB0IQ5QE2VnEAt
hdTBaW60QKE/S0AliYfBMY/hQDNuFkGs/LjBNjOLQBFQqUAZAdfBp4WmQJE7oUA5z8TBXj7DQJV4
2UCJS7rB6xm8QJs6kkDYirPBpcWzQIv1SUCkXZPBIIGKQMHJR0BuTaPBiJxMQF+9XEDmapPBAAf9
QNDyTkBwsJTBeyzFQO9gEEHViMHByoK4QPblRcBMvq7BKHdXQONfKT885aHB8W6kQL1HAUHkUNTB
eOjsQNQpjD/LMrPB4ybxQLV1rb/SurXB16xzQNsd67+tDKXB+dvJQFibq0DqA6TB5Rr4QAgToEBW
DKzBm6jAQNPdJ0DlX7rBCxyLQGR5S0Dlo7fBiYf0QJF3LEAErqjBLn4bQLRcj0DOwtvBgeU4QH9Q
hECHJc7ByagVQBf2uEAc39HBsm+TQDdUSUC/eoTBwyfGQLw+E0C5kYTBVjTEQNkQg0ASwoTBaxvm
QN7hJ0EeELnBjp/TQOOOEUEySLHB+1IAQcB4DkG8FLrBjnqLQAeRwUCvYd3B6hidQHDrjEAaqNnB
Q0RfQGjBWED7F6fBqmsVQCGZX0DCc5fBfNBMQLMuY0BQdYvB

>  <OMEGA_E>  (22) 
QKv6PSAlFz7ouJM+qGKgPg==

>  <OMEGA_NBR>  (22) 
     68208

$$$$
220597
     RDKit          3D

 50 53  0  0  1  0  0  0  0  0999 V2000
    6.6621   -0.9952  -22.1147 C   0  0  0  0  0  0  0  0  0  0  0  0
    6.5787    0.4057  -22.0506 C   0  0  0  0  0  0  0  0  0  0  0  0
    5.7116   -1.7861  -21.4452 C   0  0  0  0  0  0  0  0  0  0  0  0
    4.5862    0.2252  -20.6517 C   0  0  0  0  0  0  0  0  0  0  0  0
    5.5421    1.0324  -21.3137 C   0  0  0  0  0  0  0  0  0  0  0  0
    5.4751    7.3387  -25.4152 C   0  0  0  0  0  0  0  0  0  0  0  0
    4.6764   -1.1739  -20.7144 C   0  0  0  0  0  0  0  0  0  0  0  0
    6.0883    7.6653  -24.1867 C   0  0  0  0  0  0  0  0  0  0  0  0
    4.9581    6.0414  -25.5914 C   0  0  0  0  0  0  0  0  0  0  0  0
    5.7210    5.4873  -23.4516 C   0  0  0  0  0  0  0  0  0  0  0  0
    6.8114    3.1912  -19.1833 C   0  0  0  0  0  0  0  0  0  0  0  0
    4.3805    3.2265  -19.1379 C   0  0  0  0  0  0  0  0  0  0  0  0
    6.7445    4.6105  -21.2918 C   0  0  0  0  0  0  0  0  0  0  0  0
    5.3601    3.1427  -22.6377 C   0  0  0  0  0  0  0  0  0  0  0  0
    6.7654    3.1938  -20.7103 C   0  0  2  0  0  0  0  0  0  0  0  0
    5.4683    2.5587  -21.2422 C   0  0  2  0  0  0  0  0  0  0  0  0
    6.6006    9.0636  -23.9244 C   0  0  0  0  0  0  0  0  0  0  0  0
    5.6414    3.2725  -16.9765 C   0  0  0  0  0  0  0  0  0  0  0  0
    3.5872    4.4541  -26.7736 C   0  0  0  0  0  0  0  0  0  0  0  0
    6.1965    6.7311  -23.2228 N   0  0  0  0  0  0  0  0  0  0  0  0
    5.0957    5.1415  -24.5988 N   0  0  0  0  0  0  0  0  0  0  0  0
    5.8717    4.5156  -22.4896 N   0  0  0  0  0  0  0  0  0  0  0  0
    5.6140    3.1807  -18.4537 N   0  0  0  0  0  0  0  0  0  0  0  0
    4.3075    3.0466  -20.4369 N   0  0  0  0  0  0  0  0  0  0  0  0
    3.1924    3.4477  -18.4541 N   0  0  0  0  0  0  0  0  0  0  0  0
    7.9002    3.2894  -18.6287 O   0  0  0  0  0  0  0  0  0  0  0  0
    4.2990    5.7196  -26.7676 O   0  0  0  0  0  0  0  0  0  0  0  0
    5.3604    8.2600  -26.3989 F   0  0  0  0  0  0  0  0  0  0  0  0
    3.5055   -2.1477  -19.8687 Cl  0  0  0  0  0  0  0  0  0  0  0  0
    7.4555   -1.4643  -22.6776 H   0  0  0  0  0  0  0  0  0  0  0  0
    7.3100    1.0100  -22.5668 H   0  0  0  0  0  0  0  0  0  0  0  0
    5.7759   -2.8632  -21.4918 H   0  0  0  0  0  0  0  0  0  0  0  0
    3.7840    0.6879  -20.0961 H   0  0  0  0  0  0  0  0  0  0  0  0
    6.3276    5.3221  -20.5640 H   0  0  0  0  0  0  0  0  0  0  0  0
    7.7587    4.9280  -21.5756 H   0  0  0  0  0  0  0  0  0  0  0  0
    5.9740    2.5713  -23.3495 H   0  0  0  0  0  0  0  0  0  0  0  0
    4.3143    3.1498  -22.9787 H   0  0  0  0  0  0  0  0  0  0  0  0
    7.6322    2.6451  -21.1071 H   0  0  0  0  0  0  0  0  0  0  0  0
    7.0180    9.1171  -22.9081 H   0  0  0  0  0  0  0  0  0  0  0  0
    7.3841    9.3101  -24.6559 H   0  0  0  0  0  0  0  0  0  0  0  0
    5.7721    9.7811  -24.0186 H   0  0  0  0  0  0  0  0  0  0  0  0
    4.6125    3.2489  -16.5880 H   0  0  0  0  0  0  0  0  0  0  0  0
    6.2074    2.4229  -16.5669 H   0  0  0  0  0  0  0  0  0  0  0  0
    6.1249    4.2139  -16.6766 H   0  0  0  0  0  0  0  0  0  0  0  0
    3.1069    4.3077  -27.7523 H   0  0  0  0  0  0  0  0  0  0  0  0
    4.2961    3.6340  -26.5868 H   0  0  0  0  0  0  0  0  0  0  0  0
    2.8194    4.4617  -25.9859 H   0  0  0  0  0  0  0  0  0  0  0  0
    3.4451    3.2430  -20.9035 H   0  0  0  0  0  0  0  0  0  0  0  0
    2.3251    3.4653  -18.9514 H   0  0  0  0  0  0  0  0  0  0  0  0
    3.2042    3.5893  -17.4642 H   0  0  0  0  0  0  0  0  0  0  0  0
  1  2  2  0
  1  3  1  0
  2  5  1  0
  3  7  2  0
  4  5  2  0
  4  7  1  0
 16  5  1  6
  6  8  2  0
  6  9  1  0
  6 28  1  0
  7 29  1  0
  8 17  1  0
  8 20  1  0
  9 21  2  0
  9 27  1  0
 10 20  2  0
 10 21  1  0
 10 22  1  0
 11 15  1  0
 11 23  1  0
 11 26  2  0
 12 23  1  0
 12 24  2  0
 12 25  1  0
 13 15  1  0
 13 22  1  0
 14 16  1  0
 14 22  1  0
 15 16  1  0
 16 24  1  0
 18 23  1  0
 19 27  1  0
  1 30  1  0
  2 31  1  0
  3 32  1  0
  4 33  1  0
 13 34  1  0
 13 35  1  0
 14 36  1  0
 14 37  1  0
 15 38  1  6
 17 39  1  0
 17 40  1  0
 17 41  1  0
 18 42  1  0
 18 43  1  0
 18 44  1  0
 19 45  1  0
 19 46  1  0
 19 47  1  0
 24 48  1  0
 25 49  1  0
 25 50  1  0
M  CHG  1  24   1
M  END
>  <OMEGA_C>  (23) 
wC/VQE/Gfr/g6rDBA4XSQKO0zz66Z7DBFsW2QF6g5L/Ij6vBPMKSQN+XZj7GNqXBvVixQJ8khD9i
gqrBSTSvQNnW6kBeUsvBX6WVQOZBlr8at6XBt9PCQNVJ9UBWfsHBv6ieQGdTwUAgu8zBWBK3QI+X
r0DHnLvBrfbZQEE8TEBhd5nB1yyMQJ9/TkBkGpnBjdLXQE6Jk0C0VarB4YWrQMIiSUAaGrXBTn7Y
QARnTEClrqXBbPyuQG7BI0D+76nByDfTQFUEEUEeZb/BGYa0QD1wUUDSz4fBOpVlQEOIjkBLMNbB
FUrGQIll10BkyLnBrA+jQG+HpEBSysTB3OS7QOp/kECj6rPB4qWzQOiQS0AVoZPB4daJQC/8QkC+
fqPBx1BMQFOmXEDuoZPBOM78QMyFUkCZB5XBspGJQKkGt0D2I9bBq4irQBMpBEEEMdPBNlpgQGpz
CcAP857BVpPuQLttu7+7a7XBYOvpQEhJgT/OiLTBFdS4QPM+N8BN76vBNS1yQGUcMD/QxKDBsXvK
QONOqkD5gqTBOEf4QIeynUC6mqzB5yq/QLqQJEDQy7rBvA6KQCeWSUBs1LfBWDv0QKBIKUBx26jB
opPgQHHfEUG9Q7fB6krsQET2FEFhP8XBMbW4QDt/HEEGJsDBzZmTQKntT0AztITBBqPGQCwQG0D6
iITBI//DQEfYhkCwaYXBI9dGQJ/YiUCiBN7BbXmJQA+TaEDCsdTBw3E0QGTGjkAf48/BKnxcQHmN
T0BPOqfB8c0UQEvHXUCKnJfBAhFNQGy2ZUC2tovB7DqRQFqak78hZa/BJQKQQDlIgj7W7K7BkqO0
QELx7L96OKvBTFvVQGmUhj4n8KXBXzKyQBeoej8HQKrB2navQOpz7EDqOcvBLK/WQCkIkr/tgabB
1xHGQPPH9EDHr8HB2HydQNaDw0A4uczBGmO4QKHXrkDdArzBQszZQEY7UUBwTJnB5aOLQFfjTEAP
/pjBBcHVQFs6lEC+SarBvdCrQFUiRkA/F7XBFEnYQKB3TkAbiKXBybevQILcIEAswanB/g7aQNsX
EEEUrr/BFsSzQCc/ZEAx1ofBigxrQCD9j0D5A9fBghrKQCHN1UCBQLrBKWWiQAp7pUBDCMXBM9i8
QFNbj0B8SLTBWz2zQPenUkCXgZPBjoqJQJoaOkAvQqPB3VVKQC7GWkBKoZPB9JX8QMqwWkA/5pTB
YB+HQO7SukBODtbBYBKrQJCQBUFyztLBDGQBQdF4/794UaHBnP1tQNk42b9x9bLBI59pQGvqSD8E
J7LBK661QBl7O8AnoqvBEFLvQMi5TD/eL6LB+F7FQPMcqkCevqTB+/31QG+IoECrBqzBuNW+QF5R
IEBeyrrB+SmKQA0AR0CDq7fBCOb0QDKXLUA8mKjBRizqQD8MEEE427fBQY7xQAORE0F8/8XBjvfA
QLRvHEHyur/Bt9uSQOO5YkD/t4TBahHHQNpEM0DiwIPB/8XBQHzkkUB8Y4bBOjtJQCjxjEAwst7B
aqCPQGjUcECzqdbB5AA+QKMmikB+adDBvBZaQOHbPEC14abBgdcSQNlTVkCLk5fBj5xKQIsvaUDo
1YvBl4nUQHY9Z79cC7LBHZLUQOAo+D5jUrDB2RWzQMZ72L948K3BP06RQDhPmT7wf6bBp96yQDQe
jT+eiqrB7R2pQMKy5UC6SMzBtaORQFVLi7+/JKjBfSycQAi/ukCIzMzBKQ+9QMyt9ECO5MLBim24
QEzOr0Clt7vBKTLaQAUpTkAF3pjBEE6MQIG4UEAo9ZjBbO/YQOBwlkA1wanBmGauQHfLTEBcpbTB
iQbaQB0jUUAuIKXB7xaxQKL6J0DlkKnBWMCBQGbxqUAdCNbBRn6yQG2NR0AGcYfB3ezfQJSmFkF1
RrnBANqjQNT5oECqgMTBjdjEQPIZ2UAftrrBr+m9QPqQkkCfjbPBVj2zQIXbT0A/QJPBNkOLQH/3
RkCxX6PB2+NKQGGjWkAut5PB6av8QEMmS0CMNJTBRxPGQMX2D0GLOcLBd7+hQN5DAEF1kdTBQ0xQ
QBq0A8BBA6PBUyruQMGorr/Kg7bBK3TuQOkNiz/9a7PBMA6zQP+UMMDBO6/BLKNuQHybQT+UIaLB
4XnKQLXYrECnAqTB6175QF9eoUBDz6vBc8jCQBN7KEC6M7rBNCqNQGkJTED3irfB0jH2QIYSL0Aa
PqjB8WZwQOyziEDNZNTB/vpJQIXdvUB4/9bBu9mUQG0Nq0Aha93BHTiRQORjSkCxl4TBT8XAQFDy
CUA7HoXBkfLEQD8nfEC+2IPBxtXkQHgQKEHgoLnBkZLPQDp8EkEWxLHBgBj/QPN/DkHEmbnBoX5g
QCO7VEAnTafBUkEUQHMoWkCy4ZfBnY1JQL1CYkA1xovB/0mQQGHjkL+Trq/BHy6PQMrOjD69H6/B
jMyzQMUB678XoavBk9vUQJmTij54S6bBn5WxQLYkfj+Ge6rBS6muQFdQ7kB2AMvBFBHWQET1kL/I
86bBPFCcQLGTxUC1nszBSJLFQNDm9UBzesHBrVy3QKZ7r0AgGLzB5xPaQLYlUUAQh5nBhPCLQBAk
TUAEBZnBU1rVQJp9lEDKd6rB6NqqQHFKR0D7OLXB4AnYQBLgTkCsw6XB1D2vQDWqIUDw6KnBiXOD
QL6+u0CeuNbBacy0QJhYY0Cn8ofBJQHvQIuJEUG/xbXBQgmhQInepkCzIcXBiF7JQBQi1kAPNLrB
whW8QKfIj0CEbrTBRcWzQPltUkC3oZPBtGKJQELXOkAQS6PBnWxLQMf9WkA6jJPBKBD9QAUbWkCJ
NZXBVczXQH7jDkFpwL/BpmSqQGXIBkEncNLBUiUBQRFk/7+j6qHBh8hrQHPc1b84OLPBRc9nQDRt
Tz/hQbLBpL+0QMd9OsCLG6zBUP7uQAFsTT9tkqLBhSbFQJZIqkBu3qTBuIj1QAzToEAgQqzBqYK9
QBx4IUAX/7rBqxSJQKCCSEBssrfBl3v0QCT/LUB/7KjBYQFwQLt5mkBeddbB59lPQM+M0UBVVNfB
NVyYQGwTwECYt93B2gSUQL3NYUAvv4TB9DTIQMEKMkBk9YPBdPHCQLNdkUCeeobBOen7QL3iIUEe
ULXBbDLZQFnEDkFHAa/B4b0EQcr1BUFOcLXBsXtZQLLvPUC11qbB+pcTQAjhVkDCbJfBY2NMQA4L
aUBwvovB

>  <OMEGA_E>  (23) 
wP1sPTABLj7kJIw+LBy5Pg==

>  <OMEGA_NBR>  (23) 
     71891

$$$$
220600
     RDKit          3D

 53 57  0  0  1  0  0  0  0  0999 V2000
    5.7839   -1.7989  -21.5760 C   0  0  0  0  0  0  0  0  0  0  0  0
    4.7298   -1.2510  -20.8269 C   0  0  0  0  0  0  0  0  0  0  0  0
    6.5852    0.4391  -22.0786 C   0  0  0  0  0  0  0  0  0  0  0  0
    5.5307    1.0172  -21.3251 C   0  0  0  0  0  0  0  0  0  0  0  0
    6.7077   -0.9515  -22.2071 C   0  0  0  0  0  0  0  0  0  0  0  0
    4.5878    0.1434  -20.7000 C   0  0  0  0  0  0  0  0  0  0  0  0
    5.4102    7.2949  -25.4331 C   0  0  0  0  0  0  0  0  0  0  0  0
    4.9055    5.9850  -25.5584 C   0  0  0  0  0  0  0  0  0  0  0  0
    6.0664    7.6503  -24.2325 C   0  0  0  0  0  0  0  0  0  0  0  0
    5.7317    5.4867  -23.4398 C   0  0  0  0  0  0  0  0  0  0  0  0
    6.8030    3.1827  -19.1848 C   0  0  0  0  0  0  0  0  0  0  0  0
    4.3751    3.2706  -19.1527 C   0  0  0  0  0  0  0  0  0  0  0  0
    2.8135    4.7051  -26.4567 C   0  0  0  0  0  0  0  0  0  0  0  0
    4.0357    4.0478  -27.0993 C   0  0  0  0  0  0  0  0  0  0  0  0
    6.7496    4.6119  -21.2812 C   0  0  0  0  0  0  0  0  0  0  0  0
    5.3656    3.1490  -22.6308 C   0  0  0  0  0  0  0  0  0  0  0  0
    4.0703    5.5497  -26.7471 C   0  0  0  0  0  0  0  0  0  0  0  0
    6.7601    3.1905  -20.7072 C   0  0  2  0  0  0  0  0  0  0  0  0
    5.4567    2.5582  -21.2397 C   0  0  2  0  0  0  0  0  0  0  0  0
    6.5201    9.0725  -23.9915 C   0  0  0  0  0  0  0  0  0  0  0  0
    5.6213    3.2562  -16.9858 C   0  0  0  0  0  0  0  0  0  0  0  0
    5.0828    5.1160  -24.5581 N   0  0  0  0  0  0  0  0  0  0  0  0
    6.2098    6.7366  -23.2498 N   0  0  0  0  0  0  0  0  0  0  0  0
    5.8664    4.5278  -22.4667 N   0  0  0  0  0  0  0  0  0  0  0  0
    5.6022    3.1880  -18.4623 N   0  0  0  0  0  0  0  0  0  0  0  0
    4.3060    3.0864  -20.4505 N   0  0  0  0  0  0  0  0  0  0  0  0
    3.1864    3.5047  -18.4745 N   0  0  0  0  0  0  0  0  0  0  0  0
    7.8911    3.2720  -18.6276 O   0  0  0  0  0  0  0  0  0  0  0  0
    7.7151   -1.4705  -22.9433 F   0  0  0  0  0  0  0  0  0  0  0  0
    3.5311    0.5880  -19.9820 F   0  0  0  0  0  0  0  0  0  0  0  0
    5.2394    8.2010  -26.4229 F   0  0  0  0  0  0  0  0  0  0  0  0
    5.8834   -2.8705  -21.6663 H   0  0  0  0  0  0  0  0  0  0  0  0
    4.0208   -1.9066  -20.3431 H   0  0  0  0  0  0  0  0  0  0  0  0
    7.3062    1.0819  -22.5616 H   0  0  0  0  0  0  0  0  0  0  0  0
    1.8990    4.8603  -27.0479 H   0  0  0  0  0  0  0  0  0  0  0  0
    2.5422    4.4633  -25.4184 H   0  0  0  0  0  0  0  0  0  0  0  0
    4.6425    3.3342  -26.5226 H   0  0  0  0  0  0  0  0  0  0  0  0
    3.9992    3.7312  -28.1521 H   0  0  0  0  0  0  0  0  0  0  0  0
    6.3470    5.3248  -20.5465 H   0  0  0  0  0  0  0  0  0  0  0  0
    7.7641    4.9205  -21.5736 H   0  0  0  0  0  0  0  0  0  0  0  0
    5.9941    2.5861  -23.3366 H   0  0  0  0  0  0  0  0  0  0  0  0
    4.3250    3.1509  -22.9874 H   0  0  0  0  0  0  0  0  0  0  0  0
    4.0037    6.2514  -27.5916 H   0  0  0  0  0  0  0  0  0  0  0  0
    7.6242    2.6385  -21.1055 H   0  0  0  0  0  0  0  0  0  0  0  0
    6.9310    9.1595  -22.9749 H   0  0  0  0  0  0  0  0  0  0  0  0
    7.2959    9.3388  -24.7245 H   0  0  0  0  0  0  0  0  0  0  0  0
    5.6635    9.7539  -24.1003 H   0  0  0  0  0  0  0  0  0  0  0  0
    4.5895    3.2497  -16.6046 H   0  0  0  0  0  0  0  0  0  0  0  0
    6.1654    2.3878  -16.5858 H   0  0  0  0  0  0  0  0  0  0  0  0
    6.1237    4.1817  -16.6681 H   0  0  0  0  0  0  0  0  0  0  0  0
    3.4544    3.3073  -20.9257 H   0  0  0  0  0  0  0  0  0  0  0  0
    2.3212    3.5280  -18.9754 H   0  0  0  0  0  0  0  0  0  0  0  0
    3.1954    3.6500  -17.4852 H   0  0  0  0  0  0  0  0  0  0  0  0
  1  2  2  0
  1  5  1  0
  2  6  1  0
  3  4  1  0
  3  5  2  0
  4  6  2  0
 19  4  1  6
  5 29  1  0
  6 30  1  0
  7  8  2  0
  7  9  1  0
  7 31  1  0
  8 17  1  0
  8 22  1  0
  9 20  1  0
  9 23  2  0
 10 22  2  0
 10 23  1  0
 10 24  1  0
 11 18  1  0
 11 25  1  0
 11 28  2  0
 12 25  1  0
 12 26  2  0
 12 27  1  0
 13 14  1  0
 13 17  1  0
 14 17  1  0
 15 18  1  0
 15 24  1  0
 16 19  1  0
 16 24  1  0
 18 19  1  0
 19 26  1  0
 21 25  1  0
  1 32  1  0
  2 33  1  0
  3 34  1  0
 13 35  1  0
 13 36  1  0
 14 37  1  0
 14 38  1  0
 15 39  1  0
 15 40  1  0
 16 41  1  0
 16 42  1  0
 17 43  1  0
 18 44  1  6
 20 45  1  0
 20 46  1  0
 20 47  1  0
 21 48  1  0
 21 49  1  0
 21 50  1  0
 26 51  1  0
 27 52  1  0
 27 53  1  0
M  CHG  1  26   1
M  END
>  <OMEGA_C>  (24) 
dxW5QKRC5r+um6zBcFqXQOogoL9mnabB97nSQKjL4D7noLDBk/uwQAI1gj/FmarBkaXWQHaSc78n
qLHBf8+SQMTdEj6KmaXBbCCtQAFw6UAId8vB5vmcQO6Ev0CNd8zBnR/CQA3P9EAb3MHB2Gm3QEaT
r0C+hLvBFbLZQD+xS0BvepnBjwCMQPBQUUCxOJnB7A80QIeQlkA6p9PBeiSBQGuHgUBhy9jBd/zX
QPCUk0D7P6rB3bKrQMSJSUDdC7XBPUCCQPCWsUAD+tXByVLYQDkxTEBIqKXBOp2uQDa6I0DZ6qnB
DqXQQNEoEUGm7r/B7uGzQAVlUED94ofBJKaiQHK2o0D2dsTBXLbGQGWS10Ct/7nBv7m7QMnjkEC5
u7PBhUWzQI0HTEDVspPB/cqJQByHRUCVmqPBo+1LQAlNYEDSy5PBR4T8QBJpUUBkBZXBROL2QKw4
vL/ai7fBAf5hQLuJFj8325/BdqmnQDI3A0EXYtPBskS8QIK2N8CoVK3BeKqAQPYJ9L+1vqLBk8zp
QG16ij8qfrTB8RDzP9qHm0AaYtjB6rMiQLLTjkDlWMvBQY+UQO9iVUBVLtTBEfN/QEDLbkCLN+HB
dBrLQHtkqkBPX6TBsnP4QGt0nUDJlqzBk8+/QHGDJUBTsbrBcmaKQAaoSUBE5rfBOh6AQCYLyECR
u9zBIvnzQPLcKEAa2KjBEsvdQHKNEkGKzLfBWHjpQNFrFUG1y8XBuzu1QB0QHEFazcDBct2SQA77
T0Aw1oTBjkrFQCfSGEC3r4TBOvXDQOHQhUBUWIXBFhRdQBmqU0DgZ6fBXo4UQADLYUCrzZfBzIFM
QP+ZaUCl4YvBXBOyQOH527/9/q3BBO7SQBzscL/ifbLBaaeRQHi8kT40fqbBPLmyQLLVij9a2KrB
wmCRQMMJjb/iDqjBJnjTQJDa5z4fBbHBSdKnQN446ECqcMvBHOW6QN7t9EC0t8HBbWWcQHD9vED3
u8zBsvK5QOROrkAu/bvB5SHaQFveTkDB9pjBuH6MQH+rT0DB2JjBbDjyQIOgGUFaacHB0OLgQKaG
F0FFBbbBWArXQL77lUD4y6nBxESrQK11TUBmrrTBdWTEQJHDEUHgqL/B+EvZQGcrUUB1NqXBeF+w
QO8KJ0CjrKnBVZuCQMbQrUDVQNbBgJWzQOPeTEBMa4fBrEzEQOh710BNNLrB5HGlQPAYoUDN8cTB
DezBQBTRj0AWWrTBx4uzQI+1S0DCQJPBadCKQBdFREBdOaPBgFxMQLnDXkD8jJPBiMr8QGs5UUAd
YZTB7S1iQOss67978aPByu7yQP5FlD8C7LXBxGegQFSCAkF7TNPB/PKxQLOJMsBiGq/BP+TrQMVQ
tb+4GbfBI79wQDmfPz/u6qHBJu33QNyTKUG92MTBh28FQRZ3DkGDS8TBqvrsQAzWCkGjubDBwQja
QNLyJUHdRrHBXNvDQMT+qkCOnaTBdUP3QNyZo0ATxqrBt4W5QBZHI0BTwrrBbTSJQPh3V0Atg7bB
A8WqQCk2HUGdkcHBC531QE0IMEDFZqjB9lF1QHbCi0AoQNXBudhJQDyYwEDS09bBzHyVQBESskCI
mt3BbXOSQG73SUBmeITBtI3FQD9YFUCzZ4TBnsnCQDUVhECilITB8lpeQI6fT0C+/6bB0nUVQCuZ
YEDjp5fBQhFMQKfNZ0CJoYvB5ka3QGU92b8fMK/BrAOUQAhrl78RjqnBK2PVQLYkCT9WZ7DBZhqy
QNEFij9YtqrBQsnXQKJaVb8FsbLBjcCQQMCNRz7+a6fBstmtQPeC5UAuUczBZHzEQDHo8UC9DcPB
dHCcQLcLvEDbv8zB4o22QO9Ir0BQjbvB76jZQEKeTkAW7JjBhPeLQIAFT0Bes5jBWJLuQOOXFUH1
47fBwgzCQECvHkFCJLrBXxDXQLUblkBczKnB67WrQL6RTEC3gbTBi5PWQNBSD0EyM8LBRZnYQBTw
UECNKqXBjV2vQNzrJkBde6nBJl6BQG5arUD2FtbBgnWzQDqoR0D1WYfBfbTHQOOt1kD/t7rBUjah
QCXkoUB1XcTBjz26QDWVkkByRrPBwymzQMjpSUDKLJPB9j+KQHyhRkClHqPBPE1LQFKgW0CDTZPB
Slr8QGyOUkCCX5TBHiz5QCoDqL+SZbjB0IFZQI6gHz8weqLBx++nQA+kAEFIe9TBk1y5QD9eMMDN
0bDBnlN2QIwQ7b/I1abBxdHuQDtXmD+ZA7PBU2kFQXAOIEHoUrjBGBHzQNbACUEmerHBooumQDdn
GUGSU7XBMU2+QNC0L0FULLzBherJQGqwrEDj5qPBQjL3QAawoEDuOqzB5D/AQD7NKUAZLrrBG12K
QNCZSkBEULfB2IHiQJqNFkHzpcnBzKb0QP0HL0DPX6jBuadpQFQejUC8dNTBMBJNQP6tw0B0OdfB
yw6VQKGWrECzYd3BZWOSQFX+Q0BIX4TBUnPFQHU/D0BSnYTBMsXCQKwGgUCgRITBY1peQHv8VUCm
7abBJz8UQLsBXkABX5fB7ClLQPlSYkDDWIvBNvqzQNWK6L/F66vBa0vTQGWah79/PbHBnFKSQMsp
bD50m6XBm9axQMz0gT9L1arBoXyTQLSvlb9NIqbBI3nSQJ5NsT4XybDB8aGuQDpI6UBhnMvB8PSd
QDyMv0Asi8zBSj7DQOnW9EBF98HBlr22QKo8sEDcZrvByA7aQNdeTUBQfJnBvVmMQOCITkDySJnB
uno0QJVimUCeNtTBvPiAQDOYgEBpZdjBCtzYQNmsk0B+aKrBT4mrQNfDSkDyD7XBjKWEQOkjsUAg
P9bBgBLZQHC2TEBPsKXBi8OvQA9cI0AME6rBQTrTQHD+EEFZOsDBQvyzQAImU0AF7ofBDCKiQFNO
pEDoXcTBk9XGQBf810DK+7nBBfC6QIqYkUB+mLPBjJWzQP9WTEDRu5PBZF2KQFPCQUBEpaPBcUtM
QAeIXUCz7pPBS6f8QNUEVkCd/ZTBVnJqQCYj8r8qBKHBZVLxQJNugj9YLrbBWgqqQO/3AkEapNPB
TuG0QMVOOcDMR6zBkSvsQESdx798tbXBdjhyQInJNz+HKqHBNWz6Pz8Un0ChednBgwoeQOxElECP
+MvBXJmRQPJsU0B5KNPBKC+BQJYLaUCLqeDBeYnNQCDzqkCscaTBQx35QMy1nEDgHK3Bv26/QPRg
KECR6brBlf6JQPg6SkACu7fBEb6FQH77xUA2Vd3BUvz0QHp0KUDQvajBUW3gQOhzEkFMGrjB81bs
QBemFEETHsbBj4q4QOdNHEGxM8HBDvWSQCEsUUCF5YTBjEPGQK9sHUBdi4TBkwvDQPH0h0DFkYXB
D1VdQNvQTEDdZ6fBVhYVQOxIXkBr+pfBBHlMQCuUZ0AaCIzB

>  <OMEGA_E>  (24) 
iKA0PqAETD4QYm8+IEAePg==

>  <OMEGA_NBR>  (24) 
     75732

$$$$
220599
     RDKit          3D

 54 58  0  0  1  0  0  0  0  0999 V2000
    5.5979   -1.7862  -21.5436 C   0  0  0  0  0  0  0  0  0  0  0  0
    6.5864   -1.0224  -22.1868 C   0  0  0  0  0  0  0  0  0  0  0  0
    4.5687    0.2492  -20.6963 C   0  0  0  0  0  0  0  0  0  0  0  0
    5.5617    1.0379  -21.3280 C   0  0  0  0  0  0  0  0  0  0  0  0
    4.5875   -1.1475  -20.8050 C   0  0  0  0  0  0  0  0  0  0  0  0
    6.5754    0.3808  -22.0909 C   0  0  0  0  0  0  0  0  0  0  0  0
    5.3800    7.3460  -25.3805 C   0  0  0  0  0  0  0  0  0  0  0  0
    5.9208    7.6758  -24.1260 C   0  0  0  0  0  0  0  0  0  0  0  0
    4.9652    6.0255  -25.6043 C   0  0  0  0  0  0  0  0  0  0  0  0
    5.7609    5.4570  -23.4788 C   0  0  0  0  0  0  0  0  0  0  0  0
    6.8243    3.2067  -19.1558 C   0  0  0  0  0  0  0  0  0  0  0  0
    4.3987    3.2372  -19.1157 C   0  0  0  0  0  0  0  0  0  0  0  0
    7.4403    9.7586  -24.2720 C   0  0  0  0  0  0  0  0  0  0  0  0
    7.2837    9.4356  -22.7789 C   0  0  0  0  0  0  0  0  0  0  0  0
    6.7216    4.6360  -21.2617 C   0  0  0  0  0  0  0  0  0  0  0  0
    5.3312    3.1641  -22.6143 C   0  0  0  0  0  0  0  0  0  0  0  0
    6.1571    9.1098  -23.7641 C   0  0  0  0  0  0  0  0  0  0  0  0
    6.7787    3.2215  -20.6859 C   0  0  2  0  0  0  0  0  0  0  0  0
    5.4897    2.5696  -21.2275 C   0  0  2  0  0  0  0  0  0  0  0  0
    5.6499    3.2442  -16.9492 C   0  0  0  0  0  0  0  0  0  0  0  0
    3.4664    4.5470  -26.7446 C   0  0  0  0  0  0  0  0  0  0  0  0
    6.1212    6.7226  -23.2020 N   0  0  0  0  0  0  0  0  0  0  0  0
    5.1603    5.1032  -24.6401 N   0  0  0  0  0  0  0  0  0  0  0  0
    5.9609    4.4861  -22.5312 N   0  0  0  0  0  0  0  0  0  0  0  0
    5.6274    3.1820  -18.4278 N   0  0  0  0  0  0  0  0  0  0  0  0
    4.3290    3.0464  -20.4121 N   0  0  0  0  0  0  0  0  0  0  0  0
    3.2100    3.4815  -18.4417 N   0  0  0  0  0  0  0  0  0  0  0  0
    7.9126    3.2861  -18.5970 O   0  0  0  0  0  0  0  0  0  0  0  0
    4.3170    5.7167  -26.7848 O   0  0  0  0  0  0  0  0  0  0  0  0
    3.6221   -1.8742  -20.2014 F   0  0  0  0  0  0  0  0  0  0  0  0
    7.5378    1.0650  -22.7577 F   0  0  0  0  0  0  0  0  0  0  0  0
    5.1589    8.5667  -26.6114 Cl  0  0  0  0  0  0  0  0  0  0  0  0
    5.6147   -2.8635  -21.6169 H   0  0  0  0  0  0  0  0  0  0  0  0
    7.3590   -1.5155  -22.7580 H   0  0  0  0  0  0  0  0  0  0  0  0
    3.7885    0.7299  -20.1247 H   0  0  0  0  0  0  0  0  0  0  0  0
    7.4301   10.8046  -24.6123 H   0  0  0  0  0  0  0  0  0  0  0  0
    8.1425    9.1790  -24.8893 H   0  0  0  0  0  0  0  0  0  0  0  0
    7.8718    8.6237  -22.3262 H   0  0  0  0  0  0  0  0  0  0  0  0
    7.1594   10.2492  -22.0492 H   0  0  0  0  0  0  0  0  0  0  0  0
    6.1996    5.3163  -20.5727 H   0  0  0  0  0  0  0  0  0  0  0  0
    7.7344    5.0182  -21.4571 H   0  0  0  0  0  0  0  0  0  0  0  0
    5.8394    2.5395  -23.3637 H   0  0  0  0  0  0  0  0  0  0  0  0
    4.2669    3.2579  -22.8760 H   0  0  0  0  0  0  0  0  0  0  0  0
    5.2709    9.7597  -23.7164 H   0  0  0  0  0  0  0  0  0  0  0  0
    7.6552    2.6923  -21.0878 H   0  0  0  0  0  0  0  0  0  0  0  0
    4.6198    3.2130  -16.5646 H   0  0  0  0  0  0  0  0  0  0  0  0
    6.2146    2.3866  -16.5548 H   0  0  0  0  0  0  0  0  0  0  0  0
    6.1324    4.1794  -16.6290 H   0  0  0  0  0  0  0  0  0  0  0  0
    3.0036    4.3955  -27.7310 H   0  0  0  0  0  0  0  0  0  0  0  0
    4.0688    3.6645  -26.4830 H   0  0  0  0  0  0  0  0  0  0  0  0
    2.6801    4.6913  -25.9891 H   0  0  0  0  0  0  0  0  0  0  0  0
    3.4617    3.2275  -20.8757 H   0  0  0  0  0  0  0  0  0  0  0  0
    2.3461    3.5066  -18.9448 H   0  0  0  0  0  0  0  0  0  0  0  0
    3.2175    3.6325  -17.4532 H   0  0  0  0  0  0  0  0  0  0  0  0
  1  2  2  0
  1  5  1  0
  2  6  1  0
  3  4  1  0
  3  5  2  0
  4  6  2  0
 19  4  1  6
  5 30  1  0
  6 31  1  0
  7  8  2  0
  7  9  1  0
  7 32  1  0
  8 17  1  0
  8 22  1  0
  9 23  2  0
  9 29  1  0
 10 22  2  0
 10 23  1  0
 10 24  1  0
 11 18  1  0
 11 25  1  0
 11 28  2  0
 12 25  1  0
 12 26  2  0
 12 27  1  0
 13 14  1  0
 13 17  1  0
 14 17  1  0
 15 18  1  0
 15 24  1  0
 16 19  1  0
 16 24  1  0
 18 19  1  0
 19 26  1  0
 20 25  1  0
 21 29  1  0
  1 33  1  0
  2 34  1  0
  3 35  1  0
 13 36  1  0
 13 37  1  0
 14 38  1  0
 14 39  1  0
 15 40  1  0
 15 41  1  0
 16 42  1  0
 16 43  1  0
 17 44  1  0
 18 45  1  6
 20 46  1  0
 20 47  1  0
 20 48  1  0
 21 49  1  0
 21 50  1  0
 21 51  1  0
 26 52  1  0
 27 53  1  0
 27 54  1  0
M  CHG  1  26   1
M  END
>  <OMEGA_C>  (25) 
LiKzQD6h5L9eWazBjMPSQNfcgr+AfrHBbzKSQDI3fz4ckqXBHPmxQA7bhD+ln6rBsMySQNzgkr+2
cKbBgGnSQA/1wj4furDBpSisQCMS60BaC8vB7Xa9QD+g9UACAsHBJeOeQPvQwECO1czBalm4QPaf
rkCj1LvBfGDaQEA7TUAXP5nBcsKMQIcuT0D27JjB4BbuQCkjHEElLcLBKRTpQB74FkE9O7bBbxfX
QE9alEDiF6rBIpmqQOB/SkAj6rTBNQfFQJrBEUHHHL7Bx+rYQGgtTkCkfKXB/6uvQKJ0JEDx0anB
/su0QI+hT0Dml4fB5tldQMeAkUD99NXB+uDDQKUf10C2nbnBbyGlQBVNo0D8HsXB3r++QAqOj0D2
P7TBfxO0QEumS0AobJPBP4eKQHb3QkD5S6PBHHBNQJrRXkCxiJPBOTT9QMxOUkCfxpTBBiWKQBjv
tkA5R9bBONFnQDjk77+JnKHBbzXxQAtRiD+4D7bBcRWlQFcRCUEu5NTB8auzQGdEN8B276zBynzr
QIH7wb9fELbBL3dyQALdOj98/6DBusPtQIjfLEEU5sTBg0cCQRjdEkFPHcfBY+X7QHn6CUH/m7LB
FxrlQOr8I0HEZLDB82LGQIgfqkDulKTBEoD3QGOVoEAwqKvBZ9y6QPeGIkD16LrBg4qIQOCAUEAk
ArfBYKuoQJAnHEEtu73Bwff0QNtOLEDGs6jBTdWTQP2gTUBRhITB4d3GQI29GEAycITB9jzEQAu+
hUAeCIXBHjtAQMinjED/2N3BmjOCQNaHakAe3dPBAIcrQEoflkCX6c/BqIxdQLSPTkCGAafBziUW
QFZsYEDhjpfBIuxNQIV6aEA3oIvBx9C2QA4g5r/7i6zBl2uUQHydnb/M56bBZg7TQOrY2D5xAbDB
xMSwQKRygj+OSarBnOfVQJ+bd7/iL7HBNbyQQBjuKD4N16XBz5OrQLZE60C868rB+4u9QMl59UDE
8MDBJz+eQMQMwUBWxMzBKPi3QOlDrkBez7vBPTLaQN9YTEB6QpnBCI+MQID3UED+85jBcDz4QJeo
F0E3jcHBQ8XrQJZiFUEnwLXBFQrYQIhDk0DzQ6rBgMirQOi2R0AWAbXBNoXKQP1eEUGvk77BibjY
QAY1TEAfgaXBVumuQJLNI0CKt6nBRoa0QDRoT0DCmofByUBmQLoPj0AzitbBjgjEQEut1kCPmrnB
s6mkQBZBo0A3HMXB70i+QCIBj0DYOLTBdtezQF3XS0A8cJPBp3OKQFzrRkDLXqPBRN9MQJ/bXkCf
hJPBQgr9QGwyUUBHy5TBEQmKQMVLt0CUTNbBEGv2QCY3wL8E5LbBIWFbQA0MIj+OtKDBTrOlQPgv
CUFz0tTBcFW5QPC5N8DzT63BRh95QMbd77+AWaPBIWPrQA7Phj9egrPB78L+QNuWJ0H76sTBgdQG
QfrWC0FRRcXBlCr4QIHsB0HkALHBgkTpQGGsI0GOprDB+uDIQNjtqUBZs6TBKLD4QPQknkBaHazB
7Sm+QIsaIEDppLrBKDWKQL7nSkDPnbfB++SxQA/HHUHrmr/Bx1L0QLOeKEAArKjBzIeTQIRkTkB2
ioTBnx7GQJLSF0C7eITBVnHEQA9UhUCXAYXB1NRIQOWrikB0dd7BnIiJQCROaUDH99TBSgg0QLhE
j0CBX9DBQhBfQP5VV0B7LafBiJcVQJzkYECVipfBkD1NQMDTZkCYlIvBcOWyQAMr47/DqazB46XS
QPwcgb9FvLHBdw6SQFTBhD5a0qXBVvOxQEPGhj+20arBHaCSQCq8kb8/uabB1m7SQPwYyj575rDB
yj6tQOzl5kCzXszB8WWgQFoCvEA8FM3BdX++QECw9UCAqsLBQKm3QC7csEAVkLvB6znaQPtlTEBM
NZnBfouMQC4jTkD++JjBuJE0QAoXm0DAoNTBstt7QEFYdkDuNdfBJb3XQMa4lUCG46nBuZarQO/P
TUB9xrTBz+GHQEB/q0CZptbBThTZQLZoT0Dyb6XBx/avQKHGJUDf2anBLD20QFsSTUDQmYfBRtXi
QI/jFkFIZbnBsT2lQNBpokA/nMTBiTnEQI4Q2kA8YLrB+ou7QEAYk0COdLPBWsezQKMnSkAlb5PB
ZZaKQJ1iQ0ANXqPBPrRMQO6ZXECKmJPBm/z8QF8IUEDur5TBJjnGQL9/EEEszcHBsv1nQN5S7792
06HB3p/xQPDRiT+yF7bBI+mlQDIaBUF3EtfBJkyzQFR+NsBZVK3BnGXrQGYGwL/RTrbB/wVyQFDt
PD9bQ6HBrNsBQBNXoUBNh9rB4VsZQJ9SnECGhMzBePuJQFgTS0AH9dDBvHZ8QEAcVUDO997Bn0fK
QMPbq0Bq7qPBXwL4QAh1oECFKKzB+/2+QHvrKkCLrrrBFeuJQFEPTkBOV7fBI4CNQNu3u0BVVd7B
1S71QFfmLUC8rqjB/zWTQOisSkCBkoTBVErGQNT2FUCnf4TBzJHDQGJfhEAi74TB9IPmQC1kKEFl
fbnBv63VQMTZEUG1obHBkRwBQWlQD0ESoLrBW+tdQFx9T0ATHKfBAJIVQAV+XkDJppfBzNBMQAIh
ZUDOqovB

>  <OMEGA_E>  (25) 
0LyhPWBB1D2QsX8+

>  <OMEGA_NBR>  (25) 
     78730

$$$$
220598
     RDKit          3D

 54 58  0  0  1  0  0  0  0  0999 V2000
    5.5657   -1.8078  -21.4946 C   0  0  0  0  0  0  0  0  0  0  0  0
    6.5568   -1.0595  -22.1514 C   0  0  0  0  0  0  0  0  0  0  0  0
    4.5494    0.2460  -20.6772 C   0  0  0  0  0  0  0  0  0  0  0  0
    5.5480    1.0195  -21.3195 C   0  0  0  0  0  0  0  0  0  0  0  0
    4.5587   -1.1523  -20.7665 C   0  0  0  0  0  0  0  0  0  0  0  0
    6.5550    0.3448  -22.0756 C   0  0  0  0  0  0  0  0  0  0  0  0
    5.3876    7.3535  -25.3592 C   0  0  0  0  0  0  0  0  0  0  0  0
    5.9181    7.6713  -24.0984 C   0  0  0  0  0  0  0  0  0  0  0  0
    4.9692    6.0373  -25.5983 C   0  0  0  0  0  0  0  0  0  0  0  0
    5.7504    5.4469  -23.4738 C   0  0  0  0  0  0  0  0  0  0  0  0
    6.8317    3.2025  -19.1676 C   0  0  0  0  0  0  0  0  0  0  0  0
    4.4061    3.2313  -19.1247 C   0  0  0  0  0  0  0  0  0  0  0  0
    7.4549    9.7339  -24.2480 C   0  0  0  0  0  0  0  0  0  0  0  0
    7.2971    9.4225  -22.7521 C   0  0  0  0  0  0  0  0  0  0  0  0
    6.7424    4.6085  -21.2829 C   0  0  0  0  0  0  0  0  0  0  0  0
    5.3409    3.1399  -22.6270 C   0  0  0  0  0  0  0  0  0  0  0  0
    6.1666    9.1019  -23.7334 C   0  0  0  0  0  0  0  0  0  0  0  0
    6.7852    3.1987  -20.6971 C   0  0  2  0  0  0  0  0  0  0  0  0
    5.4907    2.5533  -21.2348 C   0  0  2  0  0  0  0  0  0  0  0  0
    5.6575    3.2447  -16.9606 C   0  0  0  0  0  0  0  0  0  0  0  0
    3.5173    4.5522  -26.7902 C   0  0  0  0  0  0  0  0  0  0  0  0
    6.1105    6.7099  -23.1819 N   0  0  0  0  0  0  0  0  0  0  0  0
    5.1519    5.1055  -24.6399 N   0  0  0  0  0  0  0  0  0  0  0  0
    5.9612    4.4662  -22.5396 N   0  0  0  0  0  0  0  0  0  0  0  0
    5.6353    3.1729  -18.4386 N   0  0  0  0  0  0  0  0  0  0  0  0
    4.3349    3.0470  -20.4223 N   0  0  0  0  0  0  0  0  0  0  0  0
    3.2199    3.4767  -18.4464 N   0  0  0  0  0  0  0  0  0  0  0  0
    7.9166    3.3330  -18.6118 O   0  0  0  0  0  0  0  0  0  0  0  0
    4.3401    5.7416  -26.7927 O   0  0  0  0  0  0  0  0  0  0  0  0
    3.5832   -1.8641  -20.1616 F   0  0  0  0  0  0  0  0  0  0  0  0
    7.5212    1.0126  -22.7532 F   0  0  0  0  0  0  0  0  0  0  0  0
    5.2294    8.3090  -26.3033 F   0  0  0  0  0  0  0  0  0  0  0  0
    5.5780   -2.8864  -21.5492 H   0  0  0  0  0  0  0  0  0  0  0  0
    7.3245   -1.5656  -22.7179 H   0  0  0  0  0  0  0  0  0  0  0  0
    3.7725    0.7398  -20.1123 H   0  0  0  0  0  0  0  0  0  0  0  0
    7.4549   10.7776  -24.5954 H   0  0  0  0  0  0  0  0  0  0  0  0
    8.1501    9.1430  -24.8624 H   0  0  0  0  0  0  0  0  0  0  0  0
    7.8773    8.6076  -22.2946 H   0  0  0  0  0  0  0  0  0  0  0  0
    7.1821   10.2422  -22.0276 H   0  0  0  0  0  0  0  0  0  0  0  0
    6.2423    5.3020  -20.5908 H   0  0  0  0  0  0  0  0  0  0  0  0
    7.7585    4.9720  -21.4959 H   0  0  0  0  0  0  0  0  0  0  0  0
    5.8610    2.5163  -23.3690 H   0  0  0  0  0  0  0  0  0  0  0  0
    4.2787    3.2255  -22.8999 H   0  0  0  0  0  0  0  0  0  0  0  0
    5.2867    9.7607  -23.6891 H   0  0  0  0  0  0  0  0  0  0  0  0
    7.6576    2.6582  -21.0932 H   0  0  0  0  0  0  0  0  0  0  0  0
    4.6277    3.2077  -16.5757 H   0  0  0  0  0  0  0  0  0  0  0  0
    6.2290    2.3941  -16.5608 H   0  0  0  0  0  0  0  0  0  0  0  0
    6.1326    4.1858  -16.6464 H   0  0  0  0  0  0  0  0  0  0  0  0
    3.0684    4.4142  -27.7849 H   0  0  0  0  0  0  0  0  0  0  0  0
    4.1376    3.6779  -26.5435 H   0  0  0  0  0  0  0  0  0  0  0  0
    2.7201    4.6596  -26.0400 H   0  0  0  0  0  0  0  0  0  0  0  0
    3.4721    3.2449  -20.8875 H   0  0  0  0  0  0  0  0  0  0  0  0
    2.3548    3.5077  -18.9471 H   0  0  0  0  0  0  0  0  0  0  0  0
    3.2305    3.6225  -17.4572 H   0  0  0  0  0  0  0  0  0  0  0  0
  1  2  2  0
  1  5  1  0
  2  6  1  0
  3  4  1  0
  3  5  2  0
  4  6  2  0
 19  4  1  6
  5 30  1  0
  6 31  1  0
  7  8  2  0
  7  9  1  0
  7 32  1  0
  8 17  1  0
  8 22  1  0
  9 23  2  0
  9 29  1  0
 10 22  2  0
 10 23  1  0
 10 24  1  0
 11 18  1  0
 11 25  1  0
 11 28  2  0
 12 25  1  0
 12 26  2  0
 12 27  1  0
 13 14  1  0
 13 17  1  0
 14 17  1  0
 15 18  1  0
 15 24  1  0
 16 19  1  0
 16 24  1  0
 18 19  1  0
 19 26  1  0
 20 25  1  0
 21 29  1  0
  1 33  1  0
  2 34  1  0
  3 35  1  0
 13 36  1  0
 13 37  1  0
 14 38  1  0
 14 39  1  0
 15 40  1  0
 15 41  1  0
 16 42  1  0
 16 43  1  0
 17 44  1  0
 18 45  1  6
 20 46  1  0
 20 47  1  0
 20 48  1  0
 21 49  1  0
 21 50  1  0
 21 51  1  0
 26 52  1  0
 27 53  1  0
 27 54  1  0
M  CHG  1  26   1
M  END
>  <OMEGA_C>  (26) 
kxqyQCNn57/k9KvBNdHRQEmeh78VNrHB5pSRQJrfez7RaqXBCYmxQKx+gj9ojqrB4uCRQF9+k7/f
IabB48LRQG2LsD7OmrDBImesQEFQ60Cx38rBGmG9QFR79UCXycDBkQOfQGYxwUBZyczBZAO4QOZM
rkBYyrvB8pzaQFz1TEA9V5nBj/6MQCnNTkBt/5jBhI7uQDi+G0Hr+8HBf4HpQGTCFkFABLbBXsHX
QJ14k0BqQ6rBeeiqQLr0SEAbBLXBbFTFQHmhEUEL3r3BwiDZQIS3TECbk6XBEbSvQAtpI0Dv4KnB
Hwq1QLapT0BFr4fBhhthQLWrkUBcUtbB24jDQDC31kCWdLnB9tukQKFgo0B2HsXBVsK+QCTrjkAf
UbTBg1S0QPMQS0BFgpPBHreKQJECQ0DMYKPBiRJOQKWCXkBOkpPBEVX9QJRPVUDi5JTBeeKKQDC7
t0BlV9bBc1JlQE+a7r8MS6HBRq3wQLmbgT+YBrbBhFenQJTxBEExbdLBvH6yQHq6OMDWZKzBPWLq
QP9lyL87vrXBKHFxQLpgPT8W5qDBO47uQDpxLEFjw8TB2mYCQctJEkE15sbB6BL8QJK4CUFpW7LB
b9PlQAHgI0GXOLDBJ8HHQOipqUD8uaTBYUX4QM4an0CE96vBKY27QE8LIUDB87rBFuuIQHxuTkDr
MrfB4iypQK0rHEFBg73B1Ar1QKgfKkDPvqjBDxaUQM1KTUD6moTBOlTHQII5GUCJfITBHT7EQAHy
hUDiK4XBnWBEQFBBjUCFR97BAGeEQM5ia0AgWdTBVBUuQIwblUDhUdDBQDZeQL6rT0CfGafBMLUW
QMR+YEC2k5fBA8FOQDrXZ0BOqIvBDGOyQBxt4r830azBB3bSQLGdgL/Kx7HB+tSRQIOahz5s46XB
ygSyQEQ2hz9xyarBnSOSQDbnkL+036bBzJHSQF1/yz6q1rDBY9isQIm15kAjXczBooWgQKK+u0Cg
Fc3BUv+9QOGx9UAeq8LBSb+3QIbHsEAWkbvBxkLaQIxdTEAlK5nBQZSMQOQYTkB/9ZjBWnI0QH10
nECC5NTBEi16QCepdkDMLdfB5azXQCrelUDn06nBpcqrQNS6TUAwwbTBLG6IQIBaq0A9t9bBhyrZ
QJSsT0AYZaXB5BewQNz0JUDt0anBTym0QK3rSkAulIfBZCfjQCfjFkE7nbnBjHWlQD4rokCdnsTB
JvTDQPYb2kAbYLrBgfa7QJX8kkC5erPBUcezQBqdSUCZaZPBD7GKQH29Q0ABXKPBmcBMQH2cXECs
lpPBKP/8QEzLT0AZopTB+JzFQL2EEEEq08HBSYJmQBdG7r+RD6LBvAvyQLIHij+f7rXBvYqmQJPj
AEGFqdTBsoWyQMwRNsAAkq3BmDTrQP2av7+oWbbB74lxQLeRPj91V6HBCisDQFUoo0Ai89rB4+8X
QAiInkD+3MzBV/CHQEdaS0AZy9DB1ht7QOKaVEA94d7Bg7zJQGvcq0D556PBlPX3QG3koEAU/6vB
zhe/QKN7KkAqprrBaB2KQMs7TkCKULfBCS2PQGH2ukC/a97Bd0/1QG1aLkAApqjBthuTQFFZSEDX
kYTB/RfGQJlFE0AdloTBH5TDQJsOg0CMx4TBJLLmQLJlKEG5sbnB3PLWQNXAEUH6xLHBlTgBQSBi
D0ELF7vBnUleQMdCUED5HafB/6wVQFjVXkBap5fB78pMQAfYZECwp4vB3NK1QCdB8L/9SqvB2veN
QBeInb+HrqrBWp/ZQNwOkz5pHqvBZ8CxQDI0dj+4H6rBUpvbQC7mjr8cmavBtJaLQMugMz7QPKrB
nxCvQPFF7EBpLcvBBvTFQPld9ECaq8HByUqdQHlMw0CltczBvQu4QCSTrkBE/LvBL73ZQAi6UEDn
OJnBv7+LQGGWTUB695jB2335QMcAGUE1lcfBMIQEQVceEUEaj7zBUi7VQLpklEBaL6rBem2sQNP3
REDlILXBmYjZQB7bD0EVgL/BFTnYQDXGTkDCc6XBkbSvQL7UIEAjwanB7KCzQA/QYUD6u4fBNJpr
QKnCj0C+F9fBzm3JQFWZ1UBPLrrBclKiQGUopUAzC8XBitC8QP8Sj0CwR7TBJjKzQLivUUBRbpPB
PAqKQKfvPkDRU6PBdjVKQG2rWUCCnZPB0YT8QD/PWUD7zpTBBwKHQMyzukDxDdbB2wMBQcS/3b+Q
ZKzBV1RIQA5GPT/xCqrBVjeqQLWNBUGYs9LBPWi3QDAmPcAHh6vB6t1hQJ176L8rjarBStb2QPGy
XD8sg6vB61v5QLw2KkFLbMnBlsMAQb7pD0F02M7BthUOQbllAkHC8rvBFgAKQbeyHEGZhrbBLyLE
QLLyqUCar6TBoEj1QINGoUCe0KvBnCzAQPBbH0CHsbrBNf6KQAu8REBV4bfBMqPEQGaeG0FPjrvB
8+/0QGB8LkCzjajBC7CSQGEWYEDZo4TBiNLGQOo5MEAcvIPBV7XBQOyKkEB8J4bBlNNJQJnKjEAu
x97BIB2QQKjScED/yNbB7Kw+QDKGiUDcf9DBZXdcQLlXSECZG6fBhwATQNMKV0AgppfBYfJJQNf3
ZECxvYvBfeGsQDmb7r8rlqvBNTiGQE3ilb99GqrBDV7TQIaJgj7xA6zB6NmsQGyVeT/0KqrBYWDT
QD4mk7+8oazBJMuFQPfacT4QiKnBHWynQALU7UDWtMrBBx2wQKgU+EAf8L/BZRylQFxcwkAZpc3B
7W6yQOxFr0D/1rvBpgzdQGW6TECCEJrBdmiPQFLBT0BdN5jBLFTRQMxXIkEFfcHB6oHYQKfAGkF5
47XBjpDTQA7ek0ChparB3SenQDh7RkD/A7XBuH+xQDUEE0FiNLzB4lrXQMm2TEBwNabBH+usQL2n
IUAWuanBFDa9QGMiX0CG1YfBxoqdQP1nikBdwtrBDXu1QJaa2EDhs7jBLCWqQHbbo0DIEMbBmGS4
QC15j0AjTbTBy5m4QFMdUEBaf5PBZgeKQL1XQkDXiKLB5eRVQBdqXkBZEZLBkasAQZOFUkCHYpbB
D9+dQI/Ct0COQtjBNpD4QOnb578CR67BDZ0+QIDlWD92fajBY3mhQEJ+BkESGdLBjgKtQNZePMAj
7KvBUDhRQDJG3L+NZanBqBHxQJlaSz/J9azBHRTIQEEFM0FdFsPBMGbmQKeaHEFe7cfBkbTyQK6X
D0HiCrTBfWLUQEgCJkHiM6/Be1bEQLgmqUABw6TBlkbzQA2PoEAcxqzBz0C5QO2rIECN5rrBgSCF
QDZrR0CDQ7fB5KiSQCAVGkEZ27nBAn/yQFK/K0CFAarBgmWdQG2oX0C0EYTBpqzQQHrAK0ACTITB
Vf7MQPSQjkDCfIbBt4qXQDUAhkA3XOPBn7K8QOuleECuqtjBoCOEQK0EdUCBJNbBLq5aQI6BTkBe
vKXBeyccQJd6XkC/hJXBRkxbQPTeaEBINIrB3G6vQHTZ7L/Zg6vBPFG/QK4ri78ZFbTB25CeQEOw
Sj7u4qHBeeSsQFSmfj/QnarBHamfQOtPmr+mWKLB9hW/QFzdpD4HoLPB+1KnQJFx7kCAysrBeUew
QI6e+EA+AMDBUe2lQGYfw0BOxs3Bhte0QApor0B7LbzB323cQM0JTEBRMJrB7fiOQK+hT0BY3JfB
Ogm/QBXzJUGhJMPBPCfcQGAKHkEBBbrB0krTQIw3k0CJxqrBY1ifQLGnUUAKWLTBTf6wQEE4E0Hi
+bvBpr3VQLk2S0D0WabBP3eqQKERI0DGt6nBoDS+QCWKYUDU0IfBFZxlQLwNsEBG0trBTty2QNa8
2EBd4LjBTiqsQOxgpEDGacbBxfm7QMGUjkCQ+LTBwZm4QBIkUUA7bZPB2R6IQLEFPEDu86HBYFNW
QMgLYEA1j5HB7n0AQa7NUkDysJbBJhqfQInft0CLQ9jBKn2RQGtM97+O7ZnB9YLRQGoZfT/v17vB
cjufQLR7BkFsMtLBkVuvQJtxO8A/+6vBlNLLQBHeyr+XFbvBhJySQJeXLj+5w5rByeeuQFiKNUHv
gMLBagTIQGgGI0F2hsvBtgH6QB9/FUEl47vBFeXgQA8DKEGe3bLBY7zBQDBBqEBlQKXBcYnzQP07
oEBXJKzBkfKkQPPtJkBBMrvBdVh7QEUqZkCtS7TB7PWXQJg0F0GCHrbBSyHwQLdpKEAtOarBELKe
QFRFY0A75oPBQ6fRQKArLkAxRYTBP2/OQOmqj0Clq4bBo+1fQCBEp0AoUOPBoTxNQBrClUC/09XB
RApAQMMrzUDrRdnBmu9TQPvkPUAcn6TBZL8bQBKpXEAGwZTBwXZdQJ44b0DE1onB

>  <OMEGA_E>  (26) 
IJ+hPfj5fz4AgTA+CAOrPmzErD4=

>  <OMEGA_NBR>  (26) 
     83519

$$$$
220604
     RDKit          3D

 50 53  0  0  1  0  0  0  0  0999 V2000
    4.5723    0.2275  -20.6321 C   0  0  0  0  0  0  0  0  0  0  0  0
    4.6220   -1.1732  -20.6653 C   0  0  0  0  0  0  0  0  0  0  0  0
    6.5721   -1.0751  -22.1173 C   0  0  0  0  0  0  0  0  0  0  0  0
    5.5315    1.0061  -21.3322 C   0  0  0  0  0  0  0  0  0  0  0  0
    5.6235   -1.8241  -21.4013 C   0  0  0  0  0  0  0  0  0  0  0  0
    6.5352    0.3302  -22.0919 C   0  0  0  0  0  0  0  0  0  0  0  0
    5.5060    7.3317  -25.4139 C   0  0  0  0  0  0  0  0  0  0  0  0
    6.0880    7.6622  -24.1676 C   0  0  0  0  0  0  0  0  0  0  0  0
    4.9805    6.0399  -25.5927 C   0  0  0  0  0  0  0  0  0  0  0  0
    5.6897    5.4901  -23.4360 C   0  0  0  0  0  0  0  0  0  0  0  0
    6.8236    3.1977  -19.1968 C   0  0  0  0  0  0  0  0  0  0  0  0
    4.3966    3.2190  -19.1378 C   0  0  0  0  0  0  0  0  0  0  0  0
    6.7518    4.5986  -21.3137 C   0  0  0  0  0  0  0  0  0  0  0  0
    5.3216    3.1536  -22.6337 C   0  0  0  0  0  0  0  0  0  0  0  0
    6.7694    3.1855  -20.7233 C   0  0  2  0  0  0  0  0  0  0  0  0
    5.4698    2.5436  -21.2539 C   0  0  2  0  0  0  0  0  0  0  0  0
    5.6675    3.2710  -16.9840 C   0  0  0  0  0  0  0  0  0  0  0  0
    3.5687    4.4910  -26.7708 C   0  0  0  0  0  0  0  0  0  0  0  0
    6.6149    9.0557  -23.8907 C   0  0  0  0  0  0  0  0  0  0  0  0
    6.1767    6.7249  -23.2054 N   0  0  0  0  0  0  0  0  0  0  0  0
    5.0850    5.1447  -24.5928 N   0  0  0  0  0  0  0  0  0  0  0  0
    5.8126    4.5290  -22.4632 N   0  0  0  0  0  0  0  0  0  0  0  0
    5.6322    3.1780  -18.4605 N   0  0  0  0  0  0  0  0  0  0  0  0
    4.3164    3.0282  -20.4339 N   0  0  0  0  0  0  0  0  0  0  0  0
    3.2119    3.4487  -18.4515 N   0  0  0  0  0  0  0  0  0  0  0  0
    7.9110    3.3458  -18.6502 O   0  0  0  0  0  0  0  0  0  0  0  0
    4.3367    5.7221  -26.7769 O   0  0  0  0  0  0  0  0  0  0  0  0
    5.6712   -3.1731  -21.4238 F   0  0  0  0  0  0  0  0  0  0  0  0
    7.4792    0.9950  -22.8019 F   0  0  0  0  0  0  0  0  0  0  0  0
    5.4133    8.2438  -26.4095 F   0  0  0  0  0  0  0  0  0  0  0  0
    5.6425    9.9690  -24.1455 F   0  0  0  0  0  0  0  0  0  0  0  0
    7.6916    9.2927  -24.6823 F   0  0  0  0  0  0  0  0  0  0  0  0
    6.9894    9.1811  -22.5881 F   0  0  0  0  0  0  0  0  0  0  0  0
    3.7950    0.7204  -20.0671 H   0  0  0  0  0  0  0  0  0  0  0  0
    3.8884   -1.7518  -20.1236 H   0  0  0  0  0  0  0  0  0  0  0  0
    7.3342   -1.5817  -22.6908 H   0  0  0  0  0  0  0  0  0  0  0  0
    6.3952    5.3240  -20.5676 H   0  0  0  0  0  0  0  0  0  0  0  0
    7.7573    4.8870  -21.6540 H   0  0  0  0  0  0  0  0  0  0  0  0
    5.9300    2.6087  -23.3706 H   0  0  0  0  0  0  0  0  0  0  0  0
    4.2689    3.1500  -22.9529 H   0  0  0  0  0  0  0  0  0  0  0  0
    7.6354    2.6338  -21.1178 H   0  0  0  0  0  0  0  0  0  0  0  0
    4.6412    3.2392  -16.5895 H   0  0  0  0  0  0  0  0  0  0  0  0
    6.2429    2.4263  -16.5772 H   0  0  0  0  0  0  0  0  0  0  0  0
    6.1450    4.2166  -16.6876 H   0  0  0  0  0  0  0  0  0  0  0  0
    3.1052    4.3425  -27.7572 H   0  0  0  0  0  0  0  0  0  0  0  0
    4.2348    3.6446  -26.5476 H   0  0  0  0  0  0  0  0  0  0  0  0
    2.7838    4.5525  -26.0025 H   0  0  0  0  0  0  0  0  0  0  0  0
    3.4476    3.2148  -20.8926 H   0  0  0  0  0  0  0  0  0  0  0  0
    2.3426    3.4639  -18.9456 H   0  0  0  0  0  0  0  0  0  0  0  0
    3.2278    3.5989  -17.4629 H   0  0  0  0  0  0  0  0  0  0  0  0
  1  2  2  0
  1  4  1  0
  2  5  1  0
  3  5  2  0
  3  6  1  0
  4  6  2  0
 16  4  1  6
  5 28  1  0
  6 29  1  0
  7  8  2  0
  7  9  1  0
  7 30  1  0
  8 19  1  0
  8 20  1  0
  9 21  2  0
  9 27  1  0
 10 20  2  0
 10 21  1  0
 10 22  1  0
 11 15  1  0
 11 23  1  0
 11 26  2  0
 12 23  1  0
 12 24  2  0
 12 25  1  0
 13 15  1  0
 13 22  1  0
 14 16  1  0
 14 22  1  0
 15 16  1  0
 16 24  1  0
 17 23  1  0
 18 27  1  0
 19 31  1  0
 19 32  1  0
 19 33  1  0
  1 34  1  0
  2 35  1  0
  3 36  1  0
 13 37  1  0
 13 38  1  0
 14 39  1  0
 14 40  1  0
 15 41  1  6
 17 42  1  0
 17 43  1  0
 17 44  1  0
 18 45  1  0
 18 46  1  0
 18 47  1  0
 24 48  1  0
 25 49  1  0
 25 50  1  0
M  CHG  1  24   1
M  END
>  <OMEGA_C>  (27) 
TlCSQFj7aD6BDqXBFueTQGgqlr96UqXBkk7SQCacib9N8LDBOAKxQITHgD9YqKrBFvSzQEp86b/r
NavBHiDRQH0QqT4rvLDB7TCwQD6d6kClT8vBqNDCQK0w9UAlV8HB8l+fQLRGwUDVvczB3xG2QM2u
r0DZfLvBMFvaQJemTED4kpnB67CMQEsDTkBOGpnB2Q7YQOYnk0BngqrBrEqqQGzUSUDfEbXBwJ7Y
QOjeS0BJyaXB3AivQL/JIkAGCKrBHVy1QN5XUUBK34fBeGVkQKq2j0CQKtbB8KzTQAjkEEEwIL/B
aqfFQLky10CkpLnBcLiiQGyhpEAlvsTBJQG6QF3tkECrtLPBIzu0QOljS0Acr5PBvR+KQHPOQUCm
eKPBio9NQLW2XECVnJPBGyf9QJghVkCcM5XBPcaKQDUbt0AeN9bBP3q1QLkUS8DZY6vB8FXvQHO6
fj80arbB9TmtQHXmA0GQRtPBqI+0QDWBH0HwKcHBViH2QPauFEFEdcXB0KjfQJ7lEkFVtLTB6uBy
QMBuOD9viaDBG9t4QH084L8t/aDBKbLqQHV1yr+4hrXBE6XMQPVdqkBliqTB2zv4QHRinEBZO63B
y8K9QFj1JkDz9rrBGpuIQAaZSUB2n7fBLlX0QLSPKEA38ajBhISUQKBPT0BFt4TBnsXHQC9JG0AZ
noTBFKTEQBjuhkBJgIXBAbtGQAL2ikDQDt7BXoOHQMBAaUB/YdTBkyoyQA2ukUAkBdDB4qRcQKK+
TUD+I6fBm+0VQFewXUCMkJfBUpROQNhTZkAVtIvB8q3TQFi83j5nKbDBNPXXQNKxdL+YArHBvkOW
QOBAn7+E1KbBK+CwQN8lgj+YharBUmy5QBjR5b8CRazBrGORQAGPGT5fAKbBq3muQO916kBwNcvB
hB/BQDQs9UAZQMHBaraeQFy/wEBTs8zBBRC3QFD4rkCMmbvBndzZQDiZS0DeaJnB/T6MQFjFUEA7
C5nByX7XQMhYk0CXQarB5UqrQF5lSEDlCrXB3jjYQD8aTEAonqXBMneuQAeEI0AN2anBSn+0QHM6
TUBfvYfBX2VpQLsVjUD6W9bB353QQBIYEUEa977B3U7FQKXp1kBFp7nBynijQJnQo0BF0MTBuSi8
QLzvj0BQ77PBsJmzQHcPS0DRkZPBcN+JQC+5RUDUcaPBUcFMQE9lYEDfkZPBwcT8QGGvUEAp+5TB
QseJQJR0tkCUH9bBDqC9QM6tSMD+Bq3BZ9VbQG14Gj9u9qDB/b6qQOjiA0EFINPBOI2wQD49H0Hb
6cDBQa7yQKiAFUGCVMXB/afcQLEjE0EOjbTBpD7rQGmyiT/Z27PBT7PyQCqmsL+1TbXB0oJ9QEPY
8r8vQKPBHZzJQDEEqkD4fKTBDv73QHDJnUARaKzBzr++QEcMI0C1srrBrtiJQGF8SUBEyLfBWtrz
QGbkKEDW1ajBTY2TQMlqTEB7pITB+OfFQGX8FEBDuoTBX7bEQIbyg0AMDYXBoo1KQHx3iEBjL97B
/H2MQH1ZZ0AoDtXByLE4QDu/i0B5A9DBXUtdQDa3VEAuNafBUE0VQGDkYkA4jZfBoapNQM4maUBW
pYvBpzrTQDbP1T6+G7DBlmXXQKO2eb9HyrDBLd+VQH7Xnr+PgabBHJmwQD15gT9nfarBSPy4QAby
5r8K4KvBIg6RQPMOHj6A3KXBKtmuQLWh6kARL8vB1tTCQLrG9ED+V8HBu5SeQBEUwUBUqszBEBW3
QHzurkDZmrvBxN3ZQIKrS0Blb5nBszeMQD4PUEAyHZnBIrTXQPEik0DjUKrBEZSrQD8ESEBnGbXB
u0zYQLizS0BSpqXB2oeuQCJAI0D25KnBGFC0QPILT0DIyIfBLwNnQOYFjkAsP9bBQtvRQBLpEEHA
3r7BGBHGQL2d1kB8srnB90mjQCQBpECDzsTBoua7QB/sj0B567PBsIuzQDgOS0BWnJPBgwOKQFTf
RUAzh6PBa01MQEUgXkAxqpPB7K/8QAOdUkB5AJXBoS2JQBsZt0C3C9bBClC9QAdXScB9XazBpzFb
QKTYHT9r3qDB7juqQLQmBEGG/NLBDijqQLOJGEFhBsfBaNTpQMQoEUGUx7XB/x6vQAWlHUGVcL3B
7r3qQC9fhj8u67PB2PXxQKtttL/uFrXBo7F8QM1e8b+A1qLBsUPKQKv0qUDShKTBQC/4QHVMnUAI
kKzBonu/QDMrI0BbtbrBQj6KQLhaSEDZ7LfBnu3zQC1RKECg1qjBUliTQPvfTUA2tITBbAvGQIa3
F0AQoYTBliHEQBlChUAMOoXB+oRHQH+niUB/Ct7BkPuKQM2MaECX/9TBcLQ2QKwAjUC72c/BMvhd
QE3VVUBHUafBvfYUQFItYEDnrJfBUc1MQBE1ZkCmuovB1N+RQEfscD6TMaXBZoCTQBUplb+ZeqXB
NIzSQHAWiL/i4LDB4/awQGrqgT+rpKrBIPGzQN0t6L+AQKvBA1nRQDrorj7epbDBOyCvQHcE60Do
P8vBO2XCQNFd9UA/VsHBxvmeQJNuwUCjv8zBq9O2QM6Dr0BSnrvBnkPaQJBzTEBnhpnBfZ2MQIOe
TUD3DZnBtUzXQMmck0DVVarBSzmqQHrkSUAAFbXBvHTYQGeVTECGvKXBl/auQItKI0CLAqrBlBS1
QNevT0D20YfBej5oQOlXjkDHXdbB0V3SQNYXEUH0Bb/BgbvFQCo210DCsbnBeUKjQK2FpEDi18TB
N7S7QOZrkEAi+LPBzyC0QHSeSkBdo5PBchCKQBJbQkCGcaPBrYFNQJDJW0CLhZPBEhL9QJykVUAC
JpXB0XiKQGoRt0AHOtbBC6a1QNhnSsAuaKvB3LjvQAckgT+IQbbBV2erQGM+BEEBIdPBskjvQInn
FkEulsbBfYzlQEsGEkFMQbXBq72wQAfaHkG2Gr/BOVtxQOQTOj/0xqDB0IZ3QF1y379JQKHBrSTr
QLC8yL9gaLXB5H3JQC4YqkCQgqTBpq73QNM+nkCziKzB8Y+8QMT0JEDFAbvBAWCIQPcITEBge7fB
10n0QL8JKkA59ajB6TGUQIdJTUA4soTB9H/HQMd1GUDLnITBJUTEQKIKhkA+XYXB4ldKQIiTiUBW
Pt7BIQGLQPSjaEAP0tTBtoI2QK9EjkBRI9DBgLNcQMwLT0B1HafB2M0VQMAeXUAkdZfBwalOQAqp
ZECpmYvBEY7MQHQooT48dLDBX9PNQBhvi79ZQ7HBWM2PQAUIoL+nmKXBM9qsQINfdz+XLarBHIGv
QAyR779ZzKvBXPeNQP35Gj63x6TBHc2mQJqt7UDLq8rB4eSuQLpz+ECo0r/B0Q2lQGQfwkBXi83B
3ZWyQK5Zr0AdwbvBO+TcQAdjS0ApGJrBdUuPQNXMUUCpTZjBlaTVQDBZkkCU7arBqrSmQE/+RkDb
BLXB7GPXQKGnSUBXQqbBpFGsQN9qIUCeuanBhgS9QDmBXkAw34fBmiKeQIPwiUCLotrBoEGwQHNN
E0HZubvBB0q1QKy+2EAXo7jBhUuqQKbKo0DC9MXB8Rm4QHqAj0B9MLTBfWm4QI9NUEAijpPBJduJ
QDnLREC2pKLBA69VQDniX0DeIJLBLpIAQbqYUUC0ZZbBVxOeQHxOt0B9KdjBaJuwQEIcTsAjhKzB
uY5bQDhBKT+ezp7BoNCgQH/pBUH4UNLBHTKqQNInIkGvg8PBzfbWQEcEF0EzH7fB+jeRQOoIFkEM
OLTBiQvkQN0AaD9sq7TBdh3mQKBkyL8DFrbBNCRxQBhd7b/1Z6HBFUvJQDkIqUD08qTBpaL1QF6e
nED1jK3BNce4QI5nIUBJ7rrBtbOEQPVgSEB7SbfBsfjxQOoIJkBl7anBNSidQGN0YEB8I4TBj8PP
QJ/5KUAjW4TB247NQIHOjUDCdYbBNFCYQP5ohUBTPePBuVy9QBc7eEB0gNjB+8aEQN3Hc0AmCdbB
TgtbQD0mU0Ba5qXBjOUbQCbeX0AckZXBEidbQJABakA7QorB

>  <OMEGA_E>  (27) 
AJ2QPRDouj0A1rs90JaQPViGpT4=

>  <OMEGA_NBR>  (27) 
     88049

$$$$
220607
     RDKit          3D

 50 53  0  0  1  0  0  0  0  0999 V2000
    6.5676    0.4465  -22.0747 C   0  0  0  0  0  0  0  0  0  0  0  0
    6.7098   -0.9437  -22.1807 C   0  0  0  0  0  0  0  0  0  0  0  0
    5.5110    1.0215  -21.3195 C   0  0  0  0  0  0  0  0  0  0  0  0
    5.7933   -1.7907  -21.5414 C   0  0  0  0  0  0  0  0  0  0  0  0
    4.5769    0.1470  -20.6861 C   0  0  0  0  0  0  0  0  0  0  0  0
    5.4900    7.3275  -25.4218 C   0  0  0  0  0  0  0  0  0  0  0  0
    4.7305   -1.2464  -20.7986 C   0  0  0  0  0  0  0  0  0  0  0  0
    6.0892    7.6597  -24.1882 C   0  0  0  0  0  0  0  0  0  0  0  0
    4.9839    6.0272  -25.6016 C   0  0  0  0  0  0  0  0  0  0  0  0
    5.6977    5.4895  -23.4413 C   0  0  0  0  0  0  0  0  0  0  0  0
    6.8127    3.1882  -19.1900 C   0  0  0  0  0  0  0  0  0  0  0  0
    4.3862    3.2465  -19.1102 C   0  0  0  0  0  0  0  0  0  0  0  0
    6.7329    4.6048  -21.3006 C   0  0  0  0  0  0  0  0  0  0  0  0
    5.3100    3.1562  -22.6189 C   0  0  0  0  0  0  0  0  0  0  0  0
    6.7439    3.1891  -20.7154 C   0  0  2  0  0  0  0  0  0  0  0  0
    5.4306    2.5609  -21.2282 C   0  0  2  0  0  0  0  0  0  0  0  0
    6.5556    9.0707  -23.9093 C   0  0  0  0  0  0  0  0  0  0  0  0
    5.6749    3.2148  -16.9657 C   0  0  0  0  0  0  0  0  0  0  0  0
    3.5643    4.4770  -26.7705 C   0  0  0  0  0  0  0  0  0  0  0  0
    6.1767    6.7328  -23.2154 N   0  0  0  0  0  0  0  0  0  0  0  0
    5.1046    5.1326  -24.6022 N   0  0  0  0  0  0  0  0  0  0  0  0
    5.8036    4.5345  -22.4571 N   0  0  0  0  0  0  0  0  0  0  0  0
    5.6267    3.1726  -18.4438 N   0  0  0  0  0  0  0  0  0  0  0  0
    4.2964    3.0852  -20.4104 N   0  0  0  0  0  0  0  0  0  0  0  0
    3.2062    3.4517  -18.4073 N   0  0  0  0  0  0  0  0  0  0  0  0
    7.9092    3.2880  -18.6511 O   0  0  0  0  0  0  0  0  0  0  0  0
    4.3428    5.7013  -26.7858 O   0  0  0  0  0  0  0  0  0  0  0  0
    5.9356   -3.1300  -21.6444 F   0  0  0  0  0  0  0  0  0  0  0  0
    3.5207    0.5928  -19.9670 F   0  0  0  0  0  0  0  0  0  0  0  0
    5.3692    8.2485  -26.4049 F   0  0  0  0  0  0  0  0  0  0  0  0
    3.5933   -2.3047  -19.9971 Cl  0  0  0  0  0  0  0  0  0  0  0  0
    7.2738    1.0918  -22.5759 H   0  0  0  0  0  0  0  0  0  0  0  0
    7.5240   -1.3619  -22.7538 H   0  0  0  0  0  0  0  0  0  0  0  0
    6.3696    5.3283  -20.5560 H   0  0  0  0  0  0  0  0  0  0  0  0
    7.7411    4.8943  -21.6317 H   0  0  0  0  0  0  0  0  0  0  0  0
    5.9296    2.6002  -23.3379 H   0  0  0  0  0  0  0  0  0  0  0  0
    4.2632    3.1523  -22.9570 H   0  0  0  0  0  0  0  0  0  0  0  0
    7.5989    2.6299  -21.1231 H   0  0  0  0  0  0  0  0  0  0  0  0
    6.9255    9.1376  -22.8755 H   0  0  0  0  0  0  0  0  0  0  0  0
    7.3653    9.3335  -24.6060 H   0  0  0  0  0  0  0  0  0  0  0  0
    5.7154    9.7678  -24.0438 H   0  0  0  0  0  0  0  0  0  0  0  0
    4.6510    3.1946  -16.5642 H   0  0  0  0  0  0  0  0  0  0  0  0
    6.2323    2.3431  -16.5922 H   0  0  0  0  0  0  0  0  0  0  0  0
    6.1776    4.1379  -16.6416 H   0  0  0  0  0  0  0  0  0  0  0  0
    3.1045    4.3219  -27.7577 H   0  0  0  0  0  0  0  0  0  0  0  0
    4.2219    3.6274  -26.5349 H   0  0  0  0  0  0  0  0  0  0  0  0
    2.7761    4.5534  -26.0070 H   0  0  0  0  0  0  0  0  0  0  0  0
    3.4394    3.3215  -20.8685 H   0  0  0  0  0  0  0  0  0  0  0  0
    2.3322    3.4722  -18.8928 H   0  0  0  0  0  0  0  0  0  0  0  0
    3.2305    3.5789  -17.4158 H   0  0  0  0  0  0  0  0  0  0  0  0
  1  2  2  0
  1  3  1  0
  2  4  1  0
  3  5  2  0
 16  3  1  6
  4  7  2  0
  4 28  1  0
  5  7  1  0
  5 29  1  0
  6  8  2  0
  6  9  1  0
  6 30  1  0
  7 31  1  0
  8 17  1  0
  8 20  1  0
  9 21  2  0
  9 27  1  0
 10 20  2  0
 10 21  1  0
 10 22  1  0
 11 15  1  0
 11 23  1  0
 11 26  2  0
 12 23  1  0
 12 24  2  0
 12 25  1  0
 13 15  1  0
 13 22  1  0
 14 16  1  0
 14 22  1  0
 15 16  1  0
 16 24  1  0
 18 23  1  0
 19 27  1  0
  1 32  1  0
  2 33  1  0
 13 34  1  0
 13 35  1  0
 14 36  1  0
 14 37  1  0
 15 38  1  6
 17 39  1  0
 17 40  1  0
 17 41  1  0
 18 42  1  0
 18 43  1  0
 18 44  1  0
 19 45  1  0
 19 46  1  0
 19 47  1  0
 24 48  1  0
 25 49  1  0
 25 50  1  0
M  CHG  1  24   1
M  END
>  <OMEGA_C>  (28) 
zinSQCSc5D7tmLDBZLbWQOCUcb//cbHB6VmwQJ6/gj9TjqrBy2K5QLE15b/WVKzB1nWSQN56Fj4n
faXBNq6vQN566kDQX8vBOGCXQG+Ln7+MY6bB9drCQKgc9UBigcHB6nufQNjewEAj0MzBgFO2QBmq
r0DEh7vBoAHaQCULTEAShZnBiFuMQDXGT0C94ZjBx3PXQG1ak0C0Z6rBHeupQMj+SUB287TB8M3X
QK8aTEA4uaXB3MetQHjlI0B006nBjcfRQHkhEUFDRr/B05i1QKa+TUDTuYfBKh1kQPlDj0D+KdbB
rafFQBpz10ASubnBsVijQPE9pEBa0cTB87a5QMkakUAsqLPBGg60QOILS0DvjJPBPXyJQIpzRUCZ
SKPBSDJNQHDoXEA7QpPBFhj9QBFvUkBcNZXBWfiKQNJwtkA/SdbBf/C9QLVSSMC/J63B91NhQDXB
Fz93vJ/BudCrQN75A0ErPdPB0PdlQGSAE8AB+p/Bu8LoQJfBiz+Bm7TBYsTwQKpTrr/dB7bB3NPL
QJSBqkCccqTBa7f3QBqenEC3Da3B8b69QCNqJkAKtLrBH2yIQEe/SUDXp7fBcirzQJFQKEAa/KjB
ZZ3dQHkzEkEMAbfBQrDrQBlWFUES2cTBiuS2QMxIHEHCWcDB59SUQMl0TECVg4TB+27HQK/1FUC/
vITBKK/FQK9phEDyIYXBm7BGQF5NikDJD97BChqHQKMmaEBnR9TBXKsxQIy1kUBeDtDB7B9cQOGS
VECb8qbBGkIVQMk4XkBkJJfBDcFOQDYNZUB9U4vB3AGQQPyPij6A3K7Bm+aPQFRukb+caq/Bju6y
QDBOeD+LO6rBULyyQEE9778BXKvBm9jVQEsoVj6AEabBP6uvQO1/7EBTPcvBEJbVQGLemL/cuKbB
imfGQKW19EAtt8HBCXqdQJOjw0Cnu8zBk2G4QA7erkAhDbzB8fDZQAlbU0DURpnBhuqLQLQNTEAr
6ZjBv6LTQIKWlUDEGKrBa8GrQKxGRkAdCrXBhhPYQHWWUUBkhaXBEUSwQKr6IEC8sqnBaK/aQJP8
D0HOtL/BxBq0QGoNY0CRwIfBqQFqQLNdkED4+NbB+0jKQIK61UDFSrrBYViiQOGMpUC3DsXBq9C8
QKmFj0D+UbTBt4SzQLWTUkD3cJPBJ+SJQMYYOUAYLaPB5thKQLSAWUCJipPB7M/8QCAxXEDG5ZTB
8eqGQNcUu0BVCtbBEKiyQEgcTsDT4avBlC74QMagRT91TqHBdFirQEqcBUF5ztLB744AQa4xBsCC
pKHBc0dqQMo1Uz9jALLBSB5qQG2J07+B9bLBTgDBQA0YqkBeq6TB2ErzQJP7o0B7davBwHm+QLZp
IEDHy7rBjfeJQB4SR0AkgbfBozL1QNgwM0DkrqjBn9bqQBTgD0FE47fB8DHyQNFkE0HAB8bBV8HB
QFtpHEFLvr/BZkmTQDvVX0BymITB3gHIQC+EMkCbxIPBTHfBQIyDkUCwOYbBEupHQH9ojUDiot7B
nPGOQF04cUB7o9bBiBQ9QJO2ikCtWNDB4LFaQG7nOkAUyabBtlkTQN6jVECkepfBYRhLQG8EaEDq
v4vB21jSQFUrAD8VNbHBJhnVQI8rYr+W2LLB8KOxQCbvhz/6tarB+Qa4QArn3r9Owq3BZCOUQLwJ
ND5lpaXBhtKpQOEW50CuDszBPBuYQEhIm79cD6fBqNObQL5zvEAvrszBDVm/QEvQ9EAAw8LBlE64
QFHhr0AMtLvBArPZQFQMTEDeCZnBigSMQDh+UECe55jBmW3YQCIulUAu4KnBePurQFAETUA0s7TB
hdnYQCCRTkBsTaXB106vQCZpJkBgqKnBFUCBQHN+rEBj+tXB2yOzQAwzSkD3eofB8mPhQPwZFkEh
hbjBNCSjQB8JokBffcTBd5vGQLSS2EDXr7rBLhy9QC0skkDGnLPBhg6zQAQTSkDKUZPBpFKKQIpB
R0CgU6PBYDtLQMIiXUDoipPBGFf8QDTFTkB0c5TBCijLQCC2D0HVHsLBQw67QAbgRMCDPq/B+FJn
QE/eGj80YJ/BXz6iQPVaAUEZK9TBWpRqQLVcEsDySqDBi3/pQEh0kz/58rTBHpHtQEvkpL+HBLjB
A5PKQHu3q0AJEqTBvwD5QMeJn0AR+qvBiRS/QIP4J0BFdrrBiW2KQBPMTkCRWbfBcJ30QHueK0D+
fajBladuQKNEi0Aad9TB6G1JQATKwEDp39bBPWKUQIbUrUBiW93BxP2RQHl8SEAoh4TBvYHEQDCk
EUDci4TB8P7CQDpIgkCNkITBVQbpQOBCJ0G78rjB5erMQMgPE0FXhrHBQS7/QCjZDEErxLfBi6Re
QA/CVkBnKKfBrDwUQL/nXkDioJfBd+tKQHB4ZEBtmIvB2R+PQJUvlj64Fq/BDeSOQEdnjr+6vK/B
XD2yQG0pfD/leqrBAcmxQOkN7b+cyqvBJzfVQGYZXz71bKbB5iCvQFtx7kCPBMvBTNLUQCyll7+k
K6fBAJWcQK3JxUCdp8zB+BfGQD7c9UDxfsHB8Gm3QN+Mr0A1JLzBeA3aQP9VU0Dcf5nBYwqMQIFw
TEAP+JjBpDzTQIHdlUDpRarBJdGqQI+CR0DsL7XBh8DXQH8JUkCPv6XBwrmvQIndIUBX3qnBIoKD
QBkxvEDHu9bBstm0QC8wYkAN4IfBb9rvQAhLEUEZwLXBYx+hQKgEp0C3LcXBA6LJQC4S1kDTPLrB
UQW8QGP/j0BYeLTBQNazQL9wUkBWlJPB5aCJQH31OUA6PqPBsYNLQNHmWUDCgZPB3xb9QFyoW0DK
L5XBtajYQATIDkHFvr/BlJOxQGn5TMBTZ6zBnLv3QF3/RT9/sKHB//+qQOziBkEVb9LBszUAQXwh
BsCPOqLB/GloQLVgWj8XJLLBXtFnQCvJz7/+Q7PBotPAQBhTqkCFyaTBjd/yQKU4pEBusKvBzD69
QP+wIUC6AbvB6+6IQDeXSEA/kbfBbbf0QN2VM0DF/ajBqYxvQL8Fm0DtdtbBjFRQQGg80kAYUdfB
cVyYQEJawEAUv93BGCOUQEL6XkC3poTBzc/IQFtIMUAe+4PBjl3CQN39kEC7UIbBqAv9QAWVIUFn
RbXB0PPZQICYDkGS/q7B4Q8FQRqZBUF5arXBmuxZQCkhPEC4yabBUrsTQJRmVUBSY5fBY1lMQEsQ
aEC1tIvB

>  <OMEGA_E>  (28) 
IIlrPZBzOT4oRYc+cKC9Pg==

>  <OMEGA_NBR>  (28) 
     91732

$$$$
220602
     RDKit          3D

 54 58  0  0  1  0  0  0  0  0999 V2000
    6.6313    0.4185  -21.9837 C   0  0  0  0  0  0  0  0  0  0  0  0
    6.7211   -0.9724  -22.1286 C   0  0  0  0  0  0  0  0  0  0  0  0
    4.6384   -1.2292  -20.8982 C   0  0  0  0  0  0  0  0  0  0  0  0
    5.5443    1.0156  -21.2909 C   0  0  0  0  0  0  0  0  0  0  0  0
    5.7273   -1.7962  -21.5805 C   0  0  0  0  0  0  0  0  0  0  0  0
    4.5278    0.1653  -20.7596 C   0  0  0  0  0  0  0  0  0  0  0  0
    5.3555    7.3479  -25.3537 C   0  0  0  0  0  0  0  0  0  0  0  0
    5.9087    7.6662  -24.1024 C   0  0  0  0  0  0  0  0  0  0  0  0
    4.9407    6.0287  -25.5882 C   0  0  0  0  0  0  0  0  0  0  0  0
    5.7372    5.4411  -23.4662 C   0  0  0  0  0  0  0  0  0  0  0  0
    6.8194    3.1863  -19.1542 C   0  0  0  0  0  0  0  0  0  0  0  0
    4.3948    3.2775  -19.1350 C   0  0  0  0  0  0  0  0  0  0  0  0
    7.7317    9.4839  -24.1701 C   0  0  0  0  0  0  0  0  0  0  0  0
    7.3448    9.3299  -22.6953 C   0  0  0  0  0  0  0  0  0  0  0  0
    6.7551    4.6012  -21.2788 C   0  0  0  0  0  0  0  0  0  0  0  0
    5.3943    3.1082  -22.6302 C   0  0  0  0  0  0  0  0  0  0  0  0
    6.3061    9.0805  -23.7991 C   0  0  0  0  0  0  0  0  0  0  0  0
    6.7833    3.1895  -20.6851 C   0  0  2  0  0  0  0  0  0  0  0  0
    5.4828    2.5536  -21.2191 C   0  0  2  0  0  0  0  0  0  0  0  0
    5.6253    3.2270  -16.9564 C   0  0  0  0  0  0  0  0  0  0  0  0
    3.6011    4.4687  -26.8212 C   0  0  0  0  0  0  0  0  0  0  0  0
    6.1074    6.7039  -23.1858 N   0  0  0  0  0  0  0  0  0  0  0  0
    5.1381    5.0966  -24.6312 N   0  0  0  0  0  0  0  0  0  0  0  0
    5.9439    4.4653  -22.5207 N   0  0  0  0  0  0  0  0  0  0  0  0
    5.6155    3.1826  -18.4358 N   0  0  0  0  0  0  0  0  0  0  0  0
    4.3361    3.1043  -20.4354 N   0  0  0  0  0  0  0  0  0  0  0  0
    3.2038    3.5305  -18.4676 N   0  0  0  0  0  0  0  0  0  0  0  0
    7.9049    3.2467  -18.5877 O   0  0  0  0  0  0  0  0  0  0  0  0
    4.3148    5.7266  -26.7835 O   0  0  0  0  0  0  0  0  0  0  0  0
    5.8102   -3.1361  -21.7209 F   0  0  0  0  0  0  0  0  0  0  0  0
    3.4227    0.6358  -20.1365 F   0  0  0  0  0  0  0  0  0  0  0  0
    5.1770    8.5711  -26.5904 Cl  0  0  0  0  0  0  0  0  0  0  0  0
    7.4014    1.0471  -22.4059 H   0  0  0  0  0  0  0  0  0  0  0  0
    7.5533   -1.4087  -22.6609 H   0  0  0  0  0  0  0  0  0  0  0  0
    3.8789   -1.8706  -20.4760 H   0  0  0  0  0  0  0  0  0  0  0  0
    7.9294   10.4835  -24.5845 H   0  0  0  0  0  0  0  0  0  0  0  0
    8.4048    8.7522  -24.6407 H   0  0  0  0  0  0  0  0  0  0  0  0
    7.7377    8.4868  -22.1079 H   0  0  0  0  0  0  0  0  0  0  0  0
    7.2623   10.2182  -22.0518 H   0  0  0  0  0  0  0  0  0  0  0  0
    6.2824    5.3076  -20.5806 H   0  0  0  0  0  0  0  0  0  0  0  0
    7.7731    4.9446  -21.5147 H   0  0  0  0  0  0  0  0  0  0  0  0
    5.9916    2.5007  -23.3260 H   0  0  0  0  0  0  0  0  0  0  0  0
    4.3494    3.1372  -22.9728 H   0  0  0  0  0  0  0  0  0  0  0  0
    5.5320    9.8523  -23.9216 H   0  0  0  0  0  0  0  0  0  0  0  0
    7.6509    2.6390  -21.0779 H   0  0  0  0  0  0  0  0  0  0  0  0
    4.5911    3.2165  -16.5818 H   0  0  0  0  0  0  0  0  0  0  0  0
    6.1651    2.3511  -16.5670 H   0  0  0  0  0  0  0  0  0  0  0  0
    6.1275    4.1462  -16.6206 H   0  0  0  0  0  0  0  0  0  0  0  0
    3.1462    4.3343  -27.8137 H   0  0  0  0  0  0  0  0  0  0  0  0
    4.3017    3.6438  -26.6244 H   0  0  0  0  0  0  0  0  0  0  0  0
    2.8129    4.4713  -26.0540 H   0  0  0  0  0  0  0  0  0  0  0  0
    3.4950    3.3494  -20.9177 H   0  0  0  0  0  0  0  0  0  0  0  0
    2.3447    3.5749  -18.9774 H   0  0  0  0  0  0  0  0  0  0  0  0
    3.2052    3.6682  -17.4771 H   0  0  0  0  0  0  0  0  0  0  0  0
  1  2  2  0
  1  4  1  0
  2  5  1  0
  3  5  2  0
  3  6  1  0
  4  6  2  0
 19  4  1  6
  5 30  1  0
  6 31  1  0
  7  8  2  0
  7  9  1  0
  7 32  1  0
  8 17  1  0
  8 22  1  0
  9 23  2  0
  9 29  1  0
 10 22  2  0
 10 23  1  0
 10 24  1  0
 11 18  1  0
 11 25  1  0
 11 28  2  0
 12 25  1  0
 12 26  2  0
 12 27  1  0
 13 14  1  0
 13 17  1  0
 14 17  1  0
 15 18  1  0
 15 24  1  0
 16 19  1  0
 16 24  1  0
 18 19  1  0
 19 26  1  0
 20 25  1  0
 21 29  1  0
  1 33  1  0
  2 34  1  0
  3 35  1  0
 13 36  1  0
 13 37  1  0
 14 38  1  0
 14 39  1  0
 15 40  1  0
 15 41  1  0
 16 42  1  0
 16 43  1  0
 17 44  1  0
 18 45  1  6
 20 46  1  0
 20 47  1  0
 20 48  1  0
 21 49  1  0
 21 50  1  0
 21 51  1  0
 26 52  1  0
 27 53  1  0
 27 54  1  0
M  CHG  1  26   1
M  END
>  <OMEGA_C>  (29) 
wTPUQHBL1j6x3q/BIRPXQDnseL9ZB7HB0W2UQOpVnb+CL6fBiGqxQLEAgj++U6rBpUW3QGTq5b/L
pKzB6+OQQABNKT6zE6bB41+rQJ4h60Bl1MrBxRO9QBxR9UDB0cDBHRqeQALrwECvtMzBTZe3QIId
rkDYurvBfDjaQKHsS0DNO5nB66GMQD3CUUBpFJnB+Wn3QDS+F0FJXMHB1wjrQC1HFUH3j7XBlCnY
QAA9k0AGO6rBHp6sQNfsRkCUCrXBzsvJQKpJEUGlZL7B4xDZQDcgTEANe6XBa3OvQH9tI0CrwKnB
zgK0QK2GTkC1pofB0XhmQKT/jkDekdbBMXDDQDqG1kCefLnBEGukQAQXo0DHDMXBOzS+QKjjjkBZ
KrTBNbKzQJ+vS0CFfJPBGsGKQFmsRkC1e6PBfQtNQCfzYUCovZPB//T8QDnJT0CCs5TB0xKKQCZA
t0CDRNbB8ey5QJW1SMB/xK3BugxbQNrCIj+DF6HB8amlQAgjCUESudTBgtjsQIEIhj88P7PB+bTx
QO9QtL97SbXBXkB4QB5v77/zzqPBpr39QHW8J0EQrcTB+nkGQeYIDEEVIMXB5pr3QBvKB0ET3bDB
mWToQKp9I0EParDBKQnJQAjYqUARpaTBkL34QB46nkAJHqzBHLu/QJILIECnm7rBcS6LQG7ISEA8
yLfBAQaxQAqjHUFpX7/Bz9P0QBflKECen6jBg+qSQJjbTUCgp4TBKUjFQA15FkA8iYTBrRTEQP2t
hED/9oTBuFpJQMWyikBmgt7BLqeJQJIzaUDJ/tTBVwY0QA0Vj0CJbtDB1a5fQMVbVkBzV6fBVA8W
QKXLZEC80ZfBASJNQALEakAu0YvBPuSRQHAkhT6iRqXBDpWSQBnYkb/O26XBYhrSQGJohb85GrHB
OpuxQP2LhD93hqrBaquyQEUc5b+4vavBxOrRQHD0uD5djLDBXLWsQBQD60CXMcvBPHW9QIr49UBo
IsHBF9yeQJDpwEAB38zBhf63QEULr0CizbvBT3LaQHKPTECUSJnB2s6MQBi/TkBEAJnBYZbzQJY2
GkF9q8DBs/DjQF9HF0HxJbXBnqbXQJA7lED7J6rBFUSrQKQ4SkBXAbXBdlbGQKMIEkFMl77BlSDZ
QBbATUCViKXBPMyvQNx7JEBM4KnBcqm0QChvTEADpYfBgERiQJszkEDpRNbBGs3DQB+Z10AIrLnB
64KkQA6to0AJD8XBV5K+QGfZj0BzOrTBvxO0QK5fSkCZe5PBI7uKQNgOREBfZ6PBtGxNQEB0XUDp
lpPB+zf9QBh6UUCPyJTB2H2KQE/qtkA3XNbBQESzQEzVSMDAPqzBj/PwQKOFgz+b8LXBr6qnQIuv
CEF/S9XBK+hxQLzyQD+HyKDBUMl0QJjh27+lxqHB14rqQB08xr+qrLXBsXn4QBRnKkH05cPB0fwF
QdhdD0Hu9sPBqwLxQHNPCkEuLbDBuYLdQK5YJUE0HLDBkKDHQG1AqkCOlKTBliL4QAr6n0CI2avB
wWm8QJvfIkAW6brBPFeJQJnmTkArR7fB3jWsQM9xHUEGFcDBzhj1QGeIK0BCvKjBJaiTQBc5SkAn
mYTBF5PGQP7iFECYnYTBZDPEQNvcg0Cs64TBoQBFQA1xi0AQL97B5MaFQNp1aUCRXNTBh6svQL76
kkCmMNDBkJBeQJKNUUB2J6fB3i8WQJKSX0AJn5fB/8hNQMztZUD6qIvBhOWQQG0RhT4Tm6XB0JKR
QNL5kb80NqbBdN3QQNYUhb8QhbHBMaWwQBD3hD+O1KrBrqexQBkh5b9LGqzBR6rQQNmTuj4l87DB
lgOsQE1m6EDZ3MvBUTugQKJPvUDl98zBv8O8QLMx9kDKBcLBNtu4QN8nsEAWqrvBIGLaQOGlS0A0
XpnB9rOMQMNzTUB4A5nBFWA1QHK0mUB1FNTBrFx/QHPyekAP49fBiGLYQI1ylEA5E6rB9ySrQCGz
TECZ6rTBM3OGQCsErkBkeNbB4/nYQPRLTUC2laXBPGWvQD/sJEAI9KnBm8e0QObyS0DTuYfB/wHl
QAFgF0FGSbrBM3GmQNh8okD0ycTBYPDDQNeL2UAYELrBMAO9QHnUkUBvvrPBrhG0QNzGSEChjJPB
+3GKQJzvQ0DRbKPB/nVNQB2QW0BLhpPBfQP9QHC+VEA255TB5K/AQEnLEEEudsDBanqyQA3iSMAs
j6zBOZvvQCTrgz+jXbbB2uSjQEaXBkHmM9bBU9xvQHWBQD+fHKHBOr9yQOMZ3L+vI6LB4ynpQBKu
xb+kJrbBwZP9Pwvsn0BQatnBh5oeQIxVl0AsxsvBOuSOQJa7TUDaUNLBzfd9QJPoXkD+9N/BlqPK
QAzPqkA0NqTB++n4QPPgnkCcMqzBWGq9QGneJ0BR3brB5liJQB2hT0A8WbfBZ8yIQC4GwUCI2t3B
UL70QMibKkBF0ajBTtWTQNv5SEBxpoTBvSrHQFlCFUCloYTBIuHDQHv8g0CWGYXBnhLlQN/oKEFX
h7nBj0/jQGgbEEFoSLLBBkQBQeAnEkEgTr7BS/FdQBL1UUApIqfBNwwWQCwmXkCig5fBDyxOQPoj
Y0DTlIvB

>  <OMEGA_E>  (29) 
gMKnPYAUZj2Yy2Q+

>  <OMEGA_NBR>  (29) 
     94730

$$$$
220601
     RDKit          3D

 54 58  0  0  1  0  0  0  0  0999 V2000
    4.6167    0.2230  -20.5858 C   0  0  0  0  0  0  0  0  0  0  0  0
    4.6764   -1.1775  -20.6344 C   0  0  0  0  0  0  0  0  0  0  0  0
    6.5459   -1.0507  -22.1857 C   0  0  0  0  0  0  0  0  0  0  0  0
    5.5323    1.0144  -21.3273 C   0  0  0  0  0  0  0  0  0  0  0  0
    5.6406   -1.8138  -21.4314 C   0  0  0  0  0  0  0  0  0  0  0  0
    6.5073    0.3529  -22.1345 C   0  0  0  0  0  0  0  0  0  0  0  0
    5.4240    7.3579  -25.3783 C   0  0  0  0  0  0  0  0  0  0  0  0
    5.9870    7.6713  -24.1276 C   0  0  0  0  0  0  0  0  0  0  0  0
    4.9781    6.0461  -25.6024 C   0  0  0  0  0  0  0  0  0  0  0  0
    5.7295    5.4675  -23.4632 C   0  0  0  0  0  0  0  0  0  0  0  0
    6.8256    3.1936  -19.1830 C   0  0  0  0  0  0  0  0  0  0  0  0
    4.3991    3.2325  -19.1207 C   0  0  0  0  0  0  0  0  0  0  0  0
    7.5066    9.7166  -24.5404 C   0  0  0  0  0  0  0  0  0  0  0  0
    7.6646    9.3350  -23.0567 C   0  0  0  0  0  0  0  0  0  0  0  0
    6.7433    4.6005  -21.2966 C   0  0  0  0  0  0  0  0  0  0  0  0
    5.2962    3.1606  -22.6211 C   0  0  0  0  0  0  0  0  0  0  0  0
    6.3444    9.0829  -23.7836 C   0  0  0  0  0  0  0  0  0  0  0  0
    6.7675    3.1874  -20.7122 C   0  0  2  0  0  0  0  0  0  0  0  0
    5.4640    2.5501  -21.2402 C   0  0  2  0  0  0  0  0  0  0  0  0
    5.6716    3.2670  -16.9674 C   0  0  0  0  0  0  0  0  0  0  0  0
    3.5899    4.5048  -26.8079 C   0  0  0  0  0  0  0  0  0  0  0  0
    6.1338    6.7210  -23.1922 N   0  0  0  0  0  0  0  0  0  0  0  0
    5.1429    5.1225  -24.6331 N   0  0  0  0  0  0  0  0  0  0  0  0
    5.8805    4.5008  -22.5026 N   0  0  0  0  0  0  0  0  0  0  0  0
    5.6349    3.1819  -18.4446 N   0  0  0  0  0  0  0  0  0  0  0  0
    4.3139    3.0292  -20.4142 N   0  0  0  0  0  0  0  0  0  0  0  0
    3.2174    3.4803  -18.4358 N   0  0  0  0  0  0  0  0  0  0  0  0
    7.9153    3.3233  -18.6359 O   0  0  0  0  0  0  0  0  0  0  0  0
    4.3385    5.7444  -26.7913 O   0  0  0  0  0  0  0  0  0  0  0  0
    5.7048   -3.1618  -21.4641 F   0  0  0  0  0  0  0  0  0  0  0  0
    7.4264    1.0318  -22.8631 F   0  0  0  0  0  0  0  0  0  0  0  0
    5.2757    8.3068  -26.3312 F   0  0  0  0  0  0  0  0  0  0  0  0
    3.8656    0.7046  -19.9772 H   0  0  0  0  0  0  0  0  0  0  0  0
    3.9792   -1.7672  -20.0577 H   0  0  0  0  0  0  0  0  0  0  0  0
    7.2761   -1.5453  -22.8090 H   0  0  0  0  0  0  0  0  0  0  0  0
    7.4600   10.7755  -24.8346 H   0  0  0  0  0  0  0  0  0  0  0  0
    8.0365    9.1436  -25.3156 H   0  0  0  0  0  0  0  0  0  0  0  0
    8.3066    8.4888  -22.7706 H   0  0  0  0  0  0  0  0  0  0  0  0
    7.7301   10.1207  -22.2896 H   0  0  0  0  0  0  0  0  0  0  0  0
    6.3170    5.3112  -20.5734 H   0  0  0  0  0  0  0  0  0  0  0  0
    7.7583    4.9227  -21.5725 H   0  0  0  0  0  0  0  0  0  0  0  0
    5.8329    2.5677  -23.3764 H   0  0  0  0  0  0  0  0  0  0  0  0
    4.2319    3.2228  -22.8922 H   0  0  0  0  0  0  0  0  0  0  0  0
    5.5125    9.7537  -23.5226 H   0  0  0  0  0  0  0  0  0  0  0  0
    7.6319    2.6371  -21.1122 H   0  0  0  0  0  0  0  0  0  0  0  0
    4.6451    3.2433  -16.5726 H   0  0  0  0  0  0  0  0  0  0  0  0
    6.2388    2.4147  -16.5651 H   0  0  0  0  0  0  0  0  0  0  0  0
    6.1585    4.2063  -16.6663 H   0  0  0  0  0  0  0  0  0  0  0  0
    3.1269    4.3687  -27.7964 H   0  0  0  0  0  0  0  0  0  0  0  0
    4.2686    3.6640  -26.6022 H   0  0  0  0  0  0  0  0  0  0  0  0
    2.8056    4.5400  -26.0375 H   0  0  0  0  0  0  0  0  0  0  0  0
    3.4399    3.2026  -20.8681 H   0  0  0  0  0  0  0  0  0  0  0  0
    2.3478    3.4983  -18.9293 H   0  0  0  0  0  0  0  0  0  0  0  0
    3.2356    3.6408  -17.4489 H   0  0  0  0  0  0  0  0  0  0  0  0
  1  2  2  0
  1  4  1  0
  2  5  1  0
  3  5  2  0
  3  6  1  0
  4  6  2  0
 19  4  1  6
  5 30  1  0
  6 31  1  0
  7  8  2  0
  7  9  1  0
  7 32  1  0
  8 17  1  0
  8 22  1  0
  9 23  2  0
  9 29  1  0
 10 22  2  0
 10 23  1  0
 10 24  1  0
 11 18  1  0
 11 25  1  0
 11 28  2  0
 12 25  1  0
 12 26  2  0
 12 27  1  0
 13 14  1  0
 13 17  1  0
 14 17  1  0
 15 18  1  0
 15 24  1  0
 16 19  1  0
 16 24  1  0
 18 19  1  0
 19 26  1  0
 20 25  1  0
 21 29  1  0
  1 33  1  0
  2 34  1  0
  3 35  1  0
 13 36  1  0
 13 37  1  0
 14 38  1  0
 14 39  1  0
 15 40  1  0
 15 41  1  0
 16 42  1  0
 16 43  1  0
 17 44  1  0
 18 45  1  6
 20 46  1  0
 20 47  1  0
 20 48  1  0
 21 49  1  0
 21 50  1  0
 21 51  1  0
 26 52  1  0
 27 53  1  0
 27 54  1  0
M  CHG  1  26   1
M  END
>  <OMEGA_C>  (30) 
6buTQBtkZD6hr6TB7qSVQBO4lr9XE6XBuXfRQFp8hr9bfLHB4QixQP/WgT9PnqrB0H+0QBsp6L9+
c6vBgjvQQIy1tD57E7HBN5GtQLZz60C8BsvB5pW/QE979UBMBcHBpkyfQIB5wUCp0czBuVe3QML1
rkCLtLvBuWvaQKxkTECydpnBrsWMQAjiTkBI95jBNDbwQAR3G0HNUsTBvET1QFhcFUExdLjBYsnX
QGA3k0B7X6rBanqpQBRHSkAE+LTBNAXLQKFTEUHqRL7BVo/YQMb+S0CqsqXBMdmuQII0I0Dp66nB
lH21QLAWUUAvvYfBysBlQH8nkECmdtbBcUjEQKsS10CaibnB3pKkQHLro0ClEMXB3yy8QEoGkEA+
BbTByVC0QNmkS0CcjpPB2AuKQFHeQUBWUKPBLOlNQP68XkCBfJPBCEr9QKKwVEBTFpXBTNWKQBzS
t0CoVNbBUY22QD1bSsCJtqvBZqXtQGQThD+h57bBb9KoQHPoBEFcptLB/2V3QJNjND9W0Z/Bhat+
QHcz4r81dqDBG9boQCXNxb++eLbBYrjuQEZoLEFWrcbBbJUAQSlMEkFxhsrBw+cEQUzSB0FEKrbB
EF33QGjuIUEoUbLBgCTKQF71qUA6lqTB1kP4QGGGnUB2lKzB5qa6QNxUJEDPArvBAGyHQK9CTkAr
I7fBwWawQPQOHEFALrzBbTj0QD/GKEDK5ajB/KSUQMORT0ColITBS6THQDeKGkBkhYTBEBLFQDia
hkCcVIXBcR5IQI7Mi0AKX97BHpiIQC1+akBD0dTBc44zQHNHkUDBTNDBgCdcQMP3TEDW8abB90EW
QJPjX0Aeb5fBxBRPQEwCaUBll4vBs1ySQPgvdT5lLKXBgJWTQJuklL/ymaXBZ1nRQH1uh78lbbHB
U+KwQOuJgj800KrBwCGzQMCf57/VravBV5DQQAdosT7JDbHBgaqsQNIv6kBEVMvB1sagQHxHv0DO
5czBOAO9QDU19kDWR8HB2D+4QE2Lr0BNprvB2FvaQNYYTEABkZnBx6uMQJV3T0D1MJnBJuQ1QGkZ
nkArgtTB9+h+QJnEgUBei9jBJLDYQCVck0AMZ6rBsLCqQJH3SkBZFbXB+y+HQADnsUD6mtbB0eDY
QEn4S0CYxaXB7jKvQNmhI0BYE6rB7gW1QORbUkCE64fBuZ7uQPDVFkE04r7BeXSmQLMWo0Dv9cTB
h03DQBuC2EBgnrnBvlq8QPzfkEB04bPByhe0QAABTEDtuZPBxziKQErNQkApjaPBh4RNQJx5X0Ac
wZPBNy79QChxU0D1JJXB8qDCQMRTEEFx977B6mm0QKYjSsCs/qvBSMvuQMiqgT+3t7bBdZymQIzj
A0HcE9PBX9NzQIT/Oj+Df6DBSG94QCD23r+NP6HBZlXpQMr+x78fKbbBYc//P4zFpUAl0tnBFYIe
QOeRmkBOQczBQgWOQM7cU0CqMNPBHnB9QBhEakCCweDBr/nLQL5IqkCDh6TBLjH5QKAInUCjwqzB
UgK9QLE/JkB/CLvBRN+IQByRTUDTgLfBGyGKQLINxkB5yN3Bd4b0QPl2KEDw7ajBuRuUQMFDUUDS
zYTBoQfHQPf2G0CXnITBkKLEQJJJh0BXkIXBk6rwQKr8J0EC+rzBuhEAQeeXDUELz7jBqNH8QITq
E0FuzcbB5eFcQKF9TkBJPqfByQsWQHoAYUBivZfB9GFOQAl6aUB22ovBz7DSQKLH9z4ii7DBN5fW
QBT7Z78YqrHBOoGUQHi3mr8gr6fBGgSwQAZuhz8qzarBq7y3QLZe4L+9Ia3Bjw2QQMgrPD7uj6bB
ZseuQNsw5kCSfMzB7/WhQCdWu0DgMM3B016/QLtB9UBAvMLBpla3QJmusEDqhLvBHuzZQGBeS0Cl
UpnBcD+MQNbCTkBNxZjBho07QPpemEBOT9XBFd+CQCDuc0C8wdfB/H7XQKQflUBY/qnBsaeqQEuf
TUAFuLTBM+6KQEeUqkBC9dbBgfzXQM5ATkC3h6XB0A6uQClAJkBcv6nBYOS0QFCtSUBKlIfB3CHj
QC7HFkE2YrnBW86lQGf9oUACpsTBjDzEQOfX2UBTXLrBr/e5QC5Ek0AUTbPBD82zQPXWSEBmaJPB
GauJQIL3RkBdM6PBw9JMQBo3W0C9KJPBK/H8QP0aUEAp8pTBqzzHQC9LEEHU7MHBXLu7QL7lRcCZ
FK7BThpZQPHPID9mfKHBV3ipQD+QAEHF2tTBxXTqQE2MkD9PG7TBXk3xQPZ4qb+CArbB+TF5QJfT
7r/XUqTBkLUJQFoHnkB+XNvB5YMeQCCbmEAfS83BKAyPQLvWSEC7f9HB/aSEQC+vU0Abkd/BBo7L
QEa3q0AG8aPBasH3QE/UnkCIi6zB5u6+QCcHK0CHd7rB0EqJQCL6TEAEhrfBmL2QQPNvu0Cfi97B
O3XzQCpbK0Ah4qjB0AOUQMpeR0DicoTBS9bGQFa0EUAHsITB06XEQEBKgkBTzYTBQf7mQOREKEHh
ibnB3zbVQAzrEUG1rLHB1EYBQW0bD0FEZbrBQ+5cQGN4V0DD36bBfBgVQF7zXUAAFJfBKQ1OQApz
YUDbMovBmp7TQGQugz5W/qvBoZzTQML2kr/Nl6zB9HCGQAaolb80FqrBJRCtQJrkeT8vKqrBgSCt
QGNW7r8Ii6vBEQGGQCUYcz5FianBo0inQJzS7UDQs8rBXPGvQGAY+EDu7r/B9w+lQNRZwkAZpM3B
I2myQO9Kr0Ci1bvBVhDdQJ7uTEB8DJrBGWmPQKuhT0C2OJjBJBXRQEtcIkHxfMHB3kHYQKnKGkGj
4rXB75zTQMjuk0CWpKrBjEunQIx7RkDQA7XB80SxQAsHE0HeM7zB/2/XQL/cTEBxMqbBqA2tQJK1
IUC3uKnBzR29QDYuX0CC04fBZZ6dQMphikCLwdrBZl61QGSh2ECKsrjBnCaqQM3bo0CLD8bBMW24
QHOBj0CUS7TBLZS4QLEpUEDSfZPBjxuKQF1TQkBIi6LBzcdVQHoAXkBQFZLBKaoAQXriUkChW5bB
E9+dQGO8t0DtQdjBmzmtQKKbTcAXE6zB2f0+QI36WD/ggqjBXkqhQOp7BkFLGNLBGFPxQDOmSz9p
76zB8kXxQEzv1r8n3a3BnapRQLQR3L91YqnBKc7HQBYIM0EcGMPBjyzmQCCfHEEt7MfBAHnyQHil
D0FSCLTBmxrUQG4OJkFBNK/BOWLEQN44qUBiwqTBaFDzQNiioEBOxqzBG3a5QI/AIEAD5brBbkaF
QCtDR0CwRbfBQmmSQKkUGkEZ3LnBnZ7yQHbyK0Ce+6nBVkidQPWRX0A2EoTBB53QQKreK0DOSITB
dNTMQKGejkAPeYbB06aXQBn3hUCrW+PBD8q8QAqyeEBEqNjBzTmEQCbldEDdJNbBzeJaQKqFTkC+
waXB5RQcQFTyXUB0i5XBoA9bQMJeaEBxN4rB

>  <OMEGA_E>  (30) 
gOZePXBeXj548IA+vDmiPg==

>  <OMEGA_NBR>  (30) 
     98623

$$$$
220613
     RDKit          3D

 50 53  0  0  1  0  0  0  0  0999 V2000
    4.4878    0.2912  -21.8615 C   0  0  0  0  0  0  0  0  0  0  0  0
    4.4359   -1.1127  -21.9528 C   0  0  0  0  0  0  0  0  0  0  0  0
    6.6072   -1.2574  -20.8782 C   0  0  0  0  0  0  0  0  0  0  0  0
    5.6025    0.9544  -21.2783 C   0  0  0  0  0  0  0  0  0  0  0  0
    5.4991   -1.8865  -21.4598 C   0  0  0  0  0  0  0  0  0  0  0  0
    5.4963    7.3845  -25.4048 C   0  0  0  0  0  0  0  0  0  0  0  0
    6.6778    0.1430  -20.7754 C   0  0  0  0  0  0  0  0  0  0  0  0
    6.2040    7.6415  -24.2129 C   0  0  0  0  0  0  0  0  0  0  0  0
    4.9290    6.1071  -25.5925 C   0  0  0  0  0  0  0  0  0  0  0  0
    5.7680    5.4575  -23.5067 C   0  0  0  0  0  0  0  0  0  0  0  0
    6.8067    3.3214  -19.1492 C   0  0  0  0  0  0  0  0  0  0  0  0
    4.3721    3.1780  -19.1147 C   0  0  0  0  0  0  0  0  0  0  0  0
    6.6049    4.6775  -21.2562 C   0  0  0  0  0  0  0  0  0  0  0  0
    5.3852    3.0878  -22.6270 C   0  0  0  0  0  0  0  0  0  0  0  0
    6.7559    3.2809  -20.6811 C   0  0  2  0  0  0  0  0  0  0  0  0
    5.5266    2.5055  -21.2057 C   0  0  2  0  0  0  0  0  0  0  0  0
    6.8398    8.9926  -23.9618 C   0  0  0  0  0  0  0  0  0  0  0  0
    5.6137    3.5463  -16.9637 C   0  0  0  0  0  0  0  0  0  0  0  0
    3.6675    4.5047  -26.8753 C   0  0  0  0  0  0  0  0  0  0  0  0
    6.3252    6.6729  -23.2855 N   0  0  0  0  0  0  0  0  0  0  0  0
    5.0810    5.1661  -24.6334 N   0  0  0  0  0  0  0  0  0  0  0  0
    5.9086    4.4784  -22.5397 N   0  0  0  0  0  0  0  0  0  0  0  0
    5.6044    3.2910  -18.4250 N   0  0  0  0  0  0  0  0  0  0  0  0
    4.3195    2.8800  -20.3979 N   0  0  0  0  0  0  0  0  0  0  0  0
    3.1642    3.3830  -18.4509 N   0  0  0  0  0  0  0  0  0  0  0  0
    7.8892    3.4951  -18.5973 O   0  0  0  0  0  0  0  0  0  0  0  0
    4.2257    5.8400  -26.7570 O   0  0  0  0  0  0  0  0  0  0  0  0
    5.4611   -3.2358  -21.5384 F   0  0  0  0  0  0  0  0  0  0  0  0
    5.3629    8.3445  -26.3510 F   0  0  0  0  0  0  0  0  0  0  0  0
    8.1328    0.7374  -20.0080 Cl  0  0  0  0  0  0  0  0  0  0  0  0
    3.6640    0.8767  -22.2423 H   0  0  0  0  0  0  0  0  0  0  0  0
    3.5795   -1.5940  -22.4015 H   0  0  0  0  0  0  0  0  0  0  0  0
    7.4218   -1.8587  -20.5021 H   0  0  0  0  0  0  0  0  0  0  0  0
    6.0074    5.3115  -20.5846 H   0  0  0  0  0  0  0  0  0  0  0  0
    7.5901    5.1399  -21.4166 H   0  0  0  0  0  0  0  0  0  0  0  0
    5.9756    2.4990  -23.3444 H   0  0  0  0  0  0  0  0  0  0  0  0
    4.3299    3.0929  -22.9374 H   0  0  0  0  0  0  0  0  0  0  0  0
    7.6744    2.8159  -21.0684 H   0  0  0  0  0  0  0  0  0  0  0  0
    7.3457    8.9846  -22.9851 H   0  0  0  0  0  0  0  0  0  0  0  0
    7.5738    9.2050  -24.7531 H   0  0  0  0  0  0  0  0  0  0  0  0
    6.0617    9.7702  -23.9652 H   0  0  0  0  0  0  0  0  0  0  0  0
    4.5875    3.4808  -16.5729 H   0  0  0  0  0  0  0  0  0  0  0  0
    6.2445    2.7960  -16.4645 H   0  0  0  0  0  0  0  0  0  0  0  0
    6.0163    4.5514  -16.7697 H   0  0  0  0  0  0  0  0  0  0  0  0
    3.1360    4.4125  -27.8340 H   0  0  0  0  0  0  0  0  0  0  0  0
    4.4789    3.7632  -26.8332 H   0  0  0  0  0  0  0  0  0  0  0  0
    2.9647    4.3266  -26.0480 H   0  0  0  0  0  0  0  0  0  0  0  0
    3.4307    2.9049  -20.8554 H   0  0  0  0  0  0  0  0  0  0  0  0
    2.3004    3.3023  -18.9483 H   0  0  0  0  0  0  0  0  0  0  0  0
    3.1612    3.6109  -17.4773 H   0  0  0  0  0  0  0  0  0  0  0  0
  1  2  2  0
  1  4  1  0
  2  5  1  0
  3  5  2  0
  3  7  1  0
  4  7  2  0
 16  4  1  6
  5 28  1  0
  6  8  2  0
  6  9  1  0
  6 29  1  0
  7 30  1  0
  8 17  1  0
  8 20  1  0
  9 21  2  0
  9 27  1  0
 10 20  2  0
 10 21  1  0
 10 22  1  0
 11 15  1  0
 11 23  1  0
 11 26  2  0
 12 23  1  0
 12 24  2  0
 12 25  1  0
 13 15  1  0
 13 22  1  0
 14 16  1  0
 14 22  1  0
 15 16  1  0
 16 24  1  0
 18 23  1  0
 19 27  1  0
  1 31  1  0
  2 32  1  0
  3 33  1  0
 13 34  1  0
 13 35  1  0
 14 36  1  0
 14 37  1  0
 15 38  1  6
 17 39  1  0
 17 40  1  0
 17 41  1  0
 18 42  1  0
 18 43  1  0
 18 44  1  0
 19 45  1  0
 19 46  1  0
 19 47  1  0
 24 48  1  0
 25 49  1  0
 25 50  1  0
M  CHG  1  24   1
M  END
>  <OMEGA_C>  (31) 
S5yPQHUXlT5v5K7BKfONQBZsjr9qn6/BY27TQBL0oL+LBqfBf0ezQKFQdD8MOqrBVvivQCp58b+f
ravBWeGvQNdN7ED0PMvBMbDVQAV5Ej78M6bBSofGQPWG9ED+s8HBPrqdQIRtw0CFvczBZpO4QIuj
rkDBDbzBXtDZQOeRVECVMZnBTOiLQJhjS0AA65jBk1vTQHiulUCqDKrBjlOsQCCfRUAMBLXB9S/Y
QPj6UUDgcqXBv9mwQDBaIEA3panBfN/aQOHhD0Hcsb/BF6OzQKb2YkCUtYfB97dqQIYmkECgANfB
B2jKQFeI1UDKSLrBmpeiQKVQpUA8EcXBdBO9QBBPj0BFUbTB/FazQC6gUkBgZpPBhTmKQDpSOEDS
LqPBfoJKQHeDWECKm5PBtXT8QEKvX0BXx5TByTiHQAjhukBbDtbBrcGuQOkWT8ChTqzBtpyrQDWD
BUHHztLB8x8CQQrDPD9JEKDBvn9qQMxuYD878LHBJxdlQKQHzL9ZNrPBH3/tQBPq7b9nBKTBODzA
QIv3qUA6raTB1OHyQBJ6pEAvVavBBzi/QBbvH0BMwbrBmY6KQJjxRUCyf7fBzJT1QLw3NEAGjKjB
1g/rQA3BD0GF4bfBtVzyQNlHE0FYBsbBPfnBQJtSHEHOuL/BlcySQArGXkBllYTBvNLHQA7yMkBS
t4PBZIXAQE+lkUBeKIbBVbRIQD0zjUD4q97B81KPQNfXcEB8qtbBK749QGtzikBRYtDBDZBbQKTq
OUDO16bB2jkTQHBZU0ALlpfB11BKQLEYZ0Bs0YvB8MuOQPz5oD6qF6/B/wWNQM5Ji7/V6q/Bad7S
QD6En7/chKfB+bWyQKhceD9Ie6rBOCuvQIka77/pHqzBqAmvQCpb7kAl/srBST/VQJjBHD7kmqbB
fIGcQNmwxUD6oMzBKg3GQB/D9UCgesHBNXy3QGxmr0BXIrzBCzXaQDGKVEC5cJnBVlCMQBi3S0A8
85jBAw/TQPn9lUAIParBg2WrQDrvRkD4KLXByQTYQLN4UkDYsqXBO22wQKtHIUAz0anBv1WDQNYj
vEAGstbBndu0QM71YUDI1IfBi+zvQFg6EUHFv7XBDyWhQEXgpkAPKsXBwKbJQAr01UCDOrrBrDy8
QPbYj0B7drTB/f+zQIxqUkCuiZPBOiOKQGEzOUDcOaPBnNlLQC/MWEA3hZPBRw/9QEYuX0BzHJXB
U5rYQKG8DkEWur/BzdatQDXYTcB816zBi9eqQL7aBkGoZtLBYwwCQQ4FPT9ii6DBSqtoQFecZz+b
BbLBqN9iQDc0yL82d7PBywXtQBUY7b9gn6TB6DzAQJU5qkCFyaTBA43yQGO+pECmmavBifu9QERe
IUBJ+brBZoOJQK12R0Aki7fBkDr1QDKtNEAj5qjBKz9vQFT2mkBubtbBPPJPQPAr0kDMQNfBMR2Y
QM5awEBOuN3B8CiUQGG9XUCdnYTBUijJQOCPMUB58oPBdefBQP8NkUC6P4bBIRf9QJuFIUF9RLXB
HR7aQHN/DkEy+q7BbxwFQXuLBUEacrXBJhJbQD40O0ABzqbB5DEUQBUEVEC+bJfBp2dMQMz3ZkAg
uIvB

>  <OMEGA_E>  (31) 
KAErPsDDtj4=

>  <OMEGA_NBR>  (31) 
    100610

$$$$
220612
     RDKit          3D

 51 54  0  0  1  0  0  0  0  0999 V2000
    4.5457    0.2385  -20.6542 C   0  0  0  0  0  0  0  0  0  0  0  0
    4.5830   -1.1621  -20.7064 C   0  0  0  0  0  0  0  0  0  0  0  0
    6.5546   -1.0625  -22.1296 C   0  0  0  0  0  0  0  0  0  0  0  0
    5.5237    1.0166  -21.3283 C   0  0  0  0  0  0  0  0  0  0  0  0
    5.5891   -1.8120  -21.4376 C   0  0  0  0  0  0  0  0  0  0  0  0
    6.5308    0.3421  -22.0841 C   0  0  0  0  0  0  0  0  0  0  0  0
    5.4390    7.3554  -25.3902 C   0  0  0  0  0  0  0  0  0  0  0  0
    6.0027    7.6846  -24.1388 C   0  0  0  0  0  0  0  0  0  0  0  0
    4.9681    6.0463  -25.5940 C   0  0  0  0  0  0  0  0  0  0  0  0
    5.7328    5.4801  -23.4589 C   0  0  0  0  0  0  0  0  0  0  0  0
    6.8248    3.1939  -19.1858 C   0  0  0  0  0  0  0  0  0  0  0  0
    4.3983    3.2056  -19.1238 C   0  0  0  0  0  0  0  0  0  0  0  0
    6.7332    4.6104  -21.2876 C   0  0  0  0  0  0  0  0  0  0  0  0
    5.3185    3.1563  -22.6316 C   0  0  0  0  0  0  0  0  0  0  0  0
    6.7672    3.1945  -20.7124 C   0  0  2  0  0  0  0  0  0  0  0  0
    5.4679    2.5532  -21.2462 C   0  0  2  0  0  0  0  0  0  0  0  0
    5.6668    3.2287  -16.9714 C   0  0  0  0  0  0  0  0  0  0  0  0
    3.5799    4.4841  -26.7794 C   0  0  0  0  0  0  0  0  0  0  0  0
    6.4702    9.0860  -23.8439 C   0  0  0  0  0  0  0  0  0  0  0  0
    6.1593    6.7336  -23.2014 N   0  0  0  0  0  0  0  0  0  0  0  0
    5.1242    5.1350  -24.6151 N   0  0  0  0  0  0  0  0  0  0  0  0
    5.8997    4.5024  -22.5103 N   0  0  0  0  0  0  0  0  0  0  0  0
    5.6341    3.1550  -18.4487 N   0  0  0  0  0  0  0  0  0  0  0  0
    4.3177    3.0408  -20.4237 N   0  0  0  0  0  0  0  0  0  0  0  0
    3.2157    3.4238  -18.4301 N   0  0  0  0  0  0  0  0  0  0  0  0
    7.9104    3.3566  -18.6396 O   0  0  0  0  0  0  0  0  0  0  0  0
    7.6607    9.3433  -24.5753 O   0  0  0  0  0  0  0  0  0  0  0  0
    4.3388    5.7209  -26.7838 O   0  0  0  0  0  0  0  0  0  0  0  0
    5.6256   -3.1608  -21.4784 F   0  0  0  0  0  0  0  0  0  0  0  0
    7.4840    1.0090  -22.7801 F   0  0  0  0  0  0  0  0  0  0  0  0
    5.3345    8.2809  -26.3715 F   0  0  0  0  0  0  0  0  0  0  0  0
    3.7642    0.7312  -20.0949 H   0  0  0  0  0  0  0  0  0  0  0  0
    3.8366   -1.7415  -20.1833 H   0  0  0  0  0  0  0  0  0  0  0  0
    7.3197   -1.5683  -22.6998 H   0  0  0  0  0  0  0  0  0  0  0  0
    6.2795    5.3096  -20.5698 H   0  0  0  0  0  0  0  0  0  0  0  0
    7.7485    4.9509  -21.5394 H   0  0  0  0  0  0  0  0  0  0  0  0
    5.8674    2.5611  -23.3763 H   0  0  0  0  0  0  0  0  0  0  0  0
    4.2581    3.2147  -22.9182 H   0  0  0  0  0  0  0  0  0  0  0  0
    7.6353    2.6524  -21.1155 H   0  0  0  0  0  0  0  0  0  0  0  0
    4.6403    3.1834  -16.5787 H   0  0  0  0  0  0  0  0  0  0  0  0
    6.2486    2.3835  -16.5751 H   0  0  0  0  0  0  0  0  0  0  0  0
    6.1363    4.1742  -16.6619 H   0  0  0  0  0  0  0  0  0  0  0  0
    3.1267    4.3279  -27.7694 H   0  0  0  0  0  0  0  0  0  0  0  0
    4.2501    3.6436  -26.5463 H   0  0  0  0  0  0  0  0  0  0  0  0
    2.7875    4.5430  -26.0187 H   0  0  0  0  0  0  0  0  0  0  0  0
    5.6922    9.8041  -24.1422 H   0  0  0  0  0  0  0  0  0  0  0  0
    6.6703    9.1884  -22.7671 H   0  0  0  0  0  0  0  0  0  0  0  0
    3.4537    3.2495  -20.8818 H   0  0  0  0  0  0  0  0  0  0  0  0
    2.3453    3.4507  -18.9217 H   0  0  0  0  0  0  0  0  0  0  0  0
    3.2343    3.5540  -17.4388 H   0  0  0  0  0  0  0  0  0  0  0  0
    7.9602   10.2262  -24.3930 H   0  0  0  0  0  0  0  0  0  0  0  0
  1  2  2  0
  1  4  1  0
  2  5  1  0
  3  5  2  0
  3  6  1  0
  4  6  2  0
 16  4  1  6
  5 29  1  0
  6 30  1  0
  7  8  2  0
  7  9  1  0
  7 31  1  0
  8 19  1  0
  8 20  1  0
  9 21  2  0
  9 28  1  0
 10 20  2  0
 10 21  1  0
 10 22  1  0
 11 15  1  0
 11 23  1  0
 11 26  2  0
 12 23  1  0
 12 24  2  0
 12 25  1  0
 13 15  1  0
 13 22  1  0
 14 16  1  0
 14 22  1  0
 15 16  1  0
 16 24  1  0
 17 23  1  0
 18 28  1  0
 19 27  1  0
  1 32  1  0
  2 33  1  0
  3 34  1  0
 13 35  1  0
 13 36  1  0
 14 37  1  0
 14 38  1  0
 15 39  1  6
 17 40  1  0
 17 41  1  0
 17 42  1  0
 18 43  1  0
 18 44  1  0
 18 45  1  0
 19 46  1  0
 19 47  1  0
 24 48  1  0
 25 49  1  0
 25 50  1  0
 27 51  1  0
M  CHG  1  24   1
M  END
>  <OMEGA_C>  (32) 
nXaRQFE2dD7JO6XB1aeSQFzAlL+9pqXBmr/RQBX/h79WCbHBiMKwQC8fgj9ToKrB5dmyQJDw5783
gKvBGPzQQKQqrz43rLDBPAyuQElf60AxH8vBZxbAQHzo9UAtHMHBtvqeQCN7wUCDwMzBRnO3QDdd
r0Drq7vBy2TaQH5pTEBtfJnBqL6MQJ0oTUCO/ZjBuHbXQEeIk0ADTarBHTGqQEcASkCDDbXB44zY
QOxxTEDxsqXB7/iuQFtnI0Ak+KnBz1a1QF+jTkCFxYfBvxxlQBZ+j0AmPNbBHwzPQCpgEUE4wL7B
CRnFQIR510CQnLnBVPmjQBtSpEDN68TBqcq8QHITkEAoFbTBw0q0QInrSUDglpPB7iqKQAedQkCk
Y6PBBc5NQDofW0DFcJPBAyL9QFbSVkD7HZXBEiT1QEB+FUEjmsTBT9eKQFIRt0AlRdbBogS0QAtL
SsC+06vBo3zvQHYngT+ePbbBjbSqQGN+BEHG+NLB4uhwQLcwOz9DwqDBFop1QOHn3r95d6HBTzvq
QO29yL8rmbXB0vHIQPXnqUDkjqTBWvP3QH9tnkC9UKzBWMG7QCzpI0CbArvBaEKIQMm9TUCKWLfB
gFT0QGDAKUCO7KjBt32UQHO8S0AzoYTBrPTHQPyKGEC9mYTBZlzEQKqShUCoS4XBIxtIQGd+ikDC
J97BDwGIQDoxaUDlXtTBQ2YyQJBgkUBAJtDB5Sa2QKHdHEFPI8HByHLVQOADE0HxIrbBlgldQK33
T0D1DafBWRkWQKvYXECTX5fBgv5OQJx0Y0CQgovBALr+QLWeI0HnJMPB13SSQDBieT5KGaXBRjCU
QHoWlL++a6XBwt/SQAjGhb+V77DBwECxQLWhgz8enKrBz3C0QOB/5r8GS6vBTJnRQOAfuD4bqLDB
BzWuQHse60DFZMvBXWvBQDcG9kA8j8HBk3aeQCNewUBGyczBbjW3QHsJsED+q7vBoybaQL7+S0AR
cJnBmH+MQNqGTUCtApnB/QzXQBNTlEDyLarBXVuqQJIgS0AECLXBrHTYQFKNTUA4qaXBohSvQKAx
JEBB+KnBXeG0QHAeTkAMvofB9XtlQHmBjkDcLNbBfQ3TQAlMEUFW0r/BRhDGQPH010B05bnBcj6j
QEa2pEAl1cTBOku8QJ32kEBM+rPBv/WzQJzgSUB/kZPB7xWKQF7bQkA0aaPB1BlNQHB/W0BrgZPB
BAf9QDZPUkB6BJXBAKXbQIL/FEH8xbTB5lmKQL90tkD0RNbBNii2QMKPScC3havBaOLvQBYThD95
QbbBib+qQBMeBEEkW9PBLc1yQIE0Oz8Km6DBJ1p5QG/R3r8kJaHBNWbrQFftxb8phLXBk2nIQMRr
qkCKY6TB63P3QCKAn0DqLqzBqmK8QFPQJUCL+rrBWHiIQKTvTUD0YrfBLl70QJmHK0AU7ajBuPuT
QHydS0CYoITBQT7HQGKbF0All4TBShzEQP8khUDGN4XBv2hIQHEmiUC5E97BqKmIQJ3+Z0CqTtTB
YeYyQNoOkEAxEdDB/OjwQE0UE0GAZcTBlH67QAEZHUGoo8LBgddcQLa8T0BiGKfBH4kVQI8hXUBL
eJfBvP9NQIDtY0B3k4vBl6nmQEsMI0HN3bPBtOjSQJOK3D7HY7DBrYTXQJ67db+dH7HBDlSXQOcL
oL+UXabBS7OwQEWAgT8vharBN9i5QGBs5r+mD6zB31GSQHqSEj7ZkKXBKQGuQDXv6kDnDcvBLNu/
QBJx9UCXBsHBNPyeQCoLwUABtszB9zu3QJferkDenLvBNefZQB/bSkDafJnB/kuMQBA7UUBYE5nB
X7nXQOTqkkAuVqrBf/uqQAZQSEBOErXBxSXYQA5IS0CvsKXBHj+uQHcwI0D/4anBl7a0QHK+TkDk
zIfBODxnQItojkAfUNbBFo7PQHEFEUFyuL7B0cHEQHX/1kCsh7nBjyCkQO3Do0BI6MTBRdm7QDbd
j0CK7LPBy7CzQEkmS0C0n5PBZ7uJQNaMRUDadqPBhBJNQKZWYUBtk5PBa978QPDhT0A/FpXBmtj3
QPHsE0FSx8PBDyGKQPYDt0AEKdbBGmq+QFD3SMCer6zBRgFgQKivFz+FCKDBi4+qQJJTBEFk4NLB
asDpQNI5iT+YWrTBNtrxQMoWsb9gk7XB72mAQMDD879KkKLBhW3KQHfEqUDGhqTBrzv4QIrynEBT
mKzBhWi+QHIfI0D5v7rB+oSJQAx2SUBJzLfBIqHzQACqJ0DY6qjBysyTQI9qTkA6roTBtBvGQH/Q
FkCSsYTBAgHFQGHWhEC2O4XBd8JIQHnkiUA6Kt7BeHGKQFaCaEDk2tTBde01QCBJjkAwCNDB1IW4
QPHCHEHv2sHBnAbTQFQ1E0EsCLbBmdBcQPAmVEDYNKfBvXwVQBKyY0C7h5fB+UVOQK+UakBCqYvB
lggBQXf2IUEDYMLBzE/TQIIa5z4OVbDB7AvYQNAucL8fJ7HBdJ6WQKVIn7+S5abBT4qwQGztgj/v
nKrBs+i5QJCW5L9KWKzBT1uRQK6AFz5fEabBQ/uwQGff6UBdX8vBF7bEQG0D9EBEisHBI1ufQAXU
wEBYu8zBySG2QJlVr0CGdrvBH9XZQN5XTED/c5nBFzWMQOi+T0Cr6ZjBKk3XQGpek0DUV6rBZDmq
QP99SUCs8LTBttTXQA5PTEBbqKXBoe6tQPDCI0Bf0qnBUfi0QMqcTkDWtYfBUipoQMwmjkDvYdbB
YjvVQJE5EEFrYb/B4ovGQIee1kC9trnBPpGiQH9BpEDZs8TBhKC5QLDdkEA6nLPBVMWzQNcdS0Ai
iJPB1X+JQN4fRUA2T6PBsuZMQLgWXkAwV5PB3tH8QGFXU0DoGpXBms+xQChlHkHga77BsDKKQA/3
tkC9J9bBjJu+QPj6R8BKDK3BDrJbQDuGFz+s/aDBs/GtQNeqA0GSQ9PBKnvqQHmkjD9EHLTBLtTy
QAZ6rb/AebXB5p5+QJCz87+nT6PBZ4LLQEF/qkB4ZqTBRYn3QIXJnEDh+qzB/Vm+QM4sJkAMp7rB
FM+IQIG3SEB4tLfBDlPzQAHAKECD46jBNB+UQMH9TEDZjYTBgPPGQHBSF0AyooTBnL3EQA0QhUBp
JoXBnS5JQH/giUA/Nt7ByzeLQClPaECJD9XBAlg3QJZ4jUByC9DBcMXnQL9IEEFq5rfBIdTpQGVl
FUErCMbB3ChcQC/kU0Bp/6bBkB8VQFUEYECEQZfB00lOQNN9ZkBnaYvBX+O7QDp5LEF6Dr3B9pKQ
QORKlj78fKbBvPOPQIK3jL+8wqfB+qTRQOYpfL/uKrLB9iCyQAGYiT8l66rBj3+wQJyN3r9ej63B
p9XSQMyo0j5m5bDBKN2sQJDU5UBlbMzBgUGgQPvJukCJ5szB+5q/QDJD9UA07sLBrHu5QErNsEDu
hbvBr+PZQLDOTECM5ZjBWzaMQLzgTEA2BpnBywTZQH04lkBbo6nBdoutQEzlTkBKprTBF9DZQOAu
UECuJaXB0eewQPgFJ0C6wqnB70eyQETERUCTgYfBoRDiQG4ZF0FcYbnBjISGQDgEqUBxFdbB47am
QE6KoUC2ecTBnQTGQIoj2kDhjbrBWti8QO22k0DMPbPBQvuyQHJwR0BuVZPBoSuLQBI4RUAAdqPB
zEpLQHTOWUCzwJPBFRv8QPI7U0BxK5TBPLk1QDdtpkA/2dLBNSjJQFU2EEHLcMLBOO+vQHAxRcD2
sa7Bl3/zQGljij9gm7XBYaCmQF4hAEHM2NTBGG1uQGpDRz85FaLBgsdsQAAn17/KRaTBrV7qQKWY
vb8qt7bBmLfLQF2QrEDxtKPBK2z5QLuZoEBl5KvBOMPBQGFsLEAdbLrBOSqMQM9wTkAvcbfB5BL2
QNxgLkCfQajB8fyQQJdvQUBfs4TBSGDEQDXwDUAkoYTBLPjAQGVXgEB3Y4TBrornQKt0KEFw4rnB
XKzQQAtjE0FC9bHBX4EAQTu2DkH/X7nBEmeJQFNDvkAREN3BclqSQAfyiEB2LtjB02RgQIYXVEDR
V6fBAb4UQJL5XED16pfB+khKQETzX0BqyovBaFEUQE5Em0CQjdjBbBrTQHJw/D7DW7HBw5rWQCRw
ZL/G5bLBVb+ZQJIWn79cH6fB50+yQHylhT9M1KrBkN25QBBN4b8myq3BqpSVQNyoEz6GmqXBtpqw
QHWB50AsJ8zBEiWgQKi7vUC9vczBJDzEQIfX9EABlsLBVZy3QN0SsUCwULvBoy/ZQJsqS0BdIJnB
S4eLQJ8RUUCvKpnBc0HYQFMJlUBm1KnBt4GsQJE4TUBwzLTBe6zYQLsDTkBuWqXB5GWvQEtnJUCh
zanBmBKyQHuCSkAFrIfB6sPYQLDYF0GEg7fB72CLQL9ZrECLwNbB+eOjQNato0BRUsTBAIbHQDwn
2UARPrrB62G7QEwCk0APR7PB3VuyQIkMSkABgJPBofCJQE04RUARjaPBdHtKQPsiYUB25ZPBJ7L7
QD0nTkAFe5TBwLNEQGtim0CpJ9TB5+jTQMwND0GZGcLBuRm9QMQERsC/Q6/BOjFrQFVJDj/JHJ/B
wSitQK5kAUFJg9TBELzpQBmKkz9jNLXB2mTvQD0gpb8dArjB/gKEQOBg9b80HqPBFcPLQFiTq0DR
1aPBIKT4QL/onkDEPKzBCz/BQNsbK0AOfbrBqlGLQF44TECKurfBSaP0QL2GK0Awg6jBfdOQQN95
SUC1yITBdhfDQN+5EUDlrYTBUxnCQMlVgkAwwITBiWLlQMM8KEGVFLjBEnu5QNkgGEGMe7PBRyLv
QPnhDUGs5LLBFMKHQEFCxkDfo9zBjIefQODhkkCDJdrBY09dQEL2UUBeaqfBd6gTQD9TY0DGA5jB
uipKQKSEakCc+4vBMHgqQCdvkEDecNrBXGXUQBDs9T4zIrDBd1HWQE4TZ7/T7rHBcw+SQJKOlr+J
2qjBHFKxQJhgiD/enqrBJU+1QNOu3b/7Nq7BWmiPQIDgVz6vI6fBHWioQDYo6EBYdMvBQpeXQOZ4
vkCTmcvBxF3AQFJS9UDvfMLBFfW3QCrmsEADKbvBpWraQEctS0Bo1JjB97SMQN+cTkDgsJjBZxrZ
QMxqlUBfianBE3etQPkWTUCCfLTBwZLZQC2mTkAiEKXBaQKwQDiYJkBteanBrPGzQMVvR0BISYfB
RwviQK6ZFkEVWbjBvkRxQFKor0AZGtTBSW+gQFbJo0BAmcPBPMvHQJor2UCKYbrBXWC9QLq+kkBA
MbPB9cizQC8gSEBGHpPBCy2LQFnpR0ChI6PBVqNMQKX1WkACUJPBQRH9QMEiTkAfQJTBJrSNQFLm
q0BWG97Bl/bNQO65D0HqJsLBQ0e3QOwpRMCm2a/BISpXQPi/Kz97TKLBVTegQGHiAUERidPB3wPu
QINAjj/A/LLB6irxQNsLqr+SLLbBWXxxQKEC6b8FBabBq4/LQCXNq0ArpqPBj5z5QKDCn0CatKvB
pLjBQOdGKUAgH7rB/zqMQLQ5TUC4YrfB21r1QNMELEAzTKjBu9KSQGXvREC3UoTB/pPFQK/8DkCJ
a4TBmY/DQBvwgEBWUITBimPrQKmCJ0EaDbnB2mnLQLu7FEE0rLHBo6X+QLPLDEEF17bBb+1WQHJT
kEDWz9HBLek8QLkEx0DUztTBAA1hQCqqWUCi+KbB9McVQJZsXkAOaZfBxjRMQOJiYEBuV4vBy8Bz
QCmRokDRX+PB

>  <OMEGA_E>  (32) 
cChKPuBcSz4YWGA+YElhPkhysT7oHLU+yFW5Pg==

>  <OMEGA_NBR>  (32) 
    106924

$$$$
220603
     RDKit          3D

 53 56  0  0  1  0  0  0  0  0999 V2000
    4.5528    0.2635  -20.6781 C   0  0  0  0  0  0  0  0  0  0  0  0
    4.5840   -1.1367  -20.7488 C   0  0  0  0  0  0  0  0  0  0  0  0
    6.5785   -1.0269  -22.1379 C   0  0  0  0  0  0  0  0  0  0  0  0
    5.5438    1.0476  -21.3265 C   0  0  0  0  0  0  0  0  0  0  0  0
    5.5973   -1.7817  -21.4741 C   0  0  0  0  0  0  0  0  0  0  0  0
    6.5618    0.3776  -22.0721 C   0  0  0  0  0  0  0  0  0  0  0  0
    5.4630    7.3133  -25.4765 C   0  0  0  0  0  0  0  0  0  0  0  0
    6.0453    7.6943  -24.2492 C   0  0  0  0  0  0  0  0  0  0  0  0
    4.9741    6.0095  -25.6171 C   0  0  0  0  0  0  0  0  0  0  0  0
    5.7045    5.5289  -23.4456 C   0  0  0  0  0  0  0  0  0  0  0  0
    6.8227    3.1856  -19.1631 C   0  0  0  0  0  0  0  0  0  0  0  0
    4.3963    3.2030  -19.1094 C   0  0  0  0  0  0  0  0  0  0  0  0
    6.7136    4.6704  -21.2487 C   0  0  0  0  0  0  0  0  0  0  0  0
    5.3412    3.2002  -22.6112 C   0  0  0  0  0  0  0  0  0  0  0  0
    6.7702    3.2363  -20.6930 C   0  0  2  0  0  0  0  0  0  0  0  0
    5.4818    2.5860  -21.2339 C   0  0  2  0  0  0  0  0  0  0  0  0
    7.1261    9.3666  -22.6654 C   0  0  0  0  0  0  0  0  0  0  0  0
    5.6511    3.1474  -16.9501 C   0  0  0  0  0  0  0  0  0  0  0  0
    3.4796    4.4979  -26.7207 C   0  0  0  0  0  0  0  0  0  0  0  0
    6.4817    9.1355  -24.0439 C   0  0  0  0  0  0  0  0  0  0  0  0
    6.1588    6.7865  -23.2517 N   0  0  0  0  0  0  0  0  0  0  0  0
    5.1043    5.1424  -24.5954 N   0  0  0  0  0  0  0  0  0  0  0  0
    5.8327    4.5805  -22.4498 N   0  0  0  0  0  0  0  0  0  0  0  0
    5.6283    3.1319  -18.4301 N   0  0  0  0  0  0  0  0  0  0  0  0
    4.3243    3.0629  -20.4128 N   0  0  0  0  0  0  0  0  0  0  0  0
    3.2097    3.4039  -18.4168 N   0  0  0  0  0  0  0  0  0  0  0  0
    7.9141    3.2478  -18.6083 O   0  0  0  0  0  0  0  0  0  0  0  0
    4.3427    5.6558  -26.7947 O   0  0  0  0  0  0  0  0  0  0  0  0
    5.6256   -3.1302  -21.5364 F   0  0  0  0  0  0  0  0  0  0  0  0
    7.5322    1.0474  -22.7401 F   0  0  0  0  0  0  0  0  0  0  0  0
    5.3272    8.1970  -26.4934 F   0  0  0  0  0  0  0  0  0  0  0  0
    5.3906    9.9414  -24.1522 F   0  0  0  0  0  0  0  0  0  0  0  0
    7.3856    9.4668  -25.0045 F   0  0  0  0  0  0  0  0  0  0  0  0
    3.7651    0.7518  -20.1235 H   0  0  0  0  0  0  0  0  0  0  0  0
    3.8273   -1.7193  -20.2445 H   0  0  0  0  0  0  0  0  0  0  0  0
    7.3507   -1.5285  -22.7023 H   0  0  0  0  0  0  0  0  0  0  0  0
    6.2846    5.3575  -20.5044 H   0  0  0  0  0  0  0  0  0  0  0  0
    7.7189    5.0164  -21.5307 H   0  0  0  0  0  0  0  0  0  0  0  0
    5.9511    2.6533  -23.3453 H   0  0  0  0  0  0  0  0  0  0  0  0
    4.2894    3.1969  -22.9332 H   0  0  0  0  0  0  0  0  0  0  0  0
    7.6455    2.7161  -21.1092 H   0  0  0  0  0  0  0  0  0  0  0  0
    7.4219   10.4218  -22.5706 H   0  0  0  0  0  0  0  0  0  0  0  0
    6.4022    9.1165  -21.8758 H   0  0  0  0  0  0  0  0  0  0  0  0
    8.0148    8.7262  -22.5643 H   0  0  0  0  0  0  0  0  0  0  0  0
    4.6214    3.0986  -16.5664 H   0  0  0  0  0  0  0  0  0  0  0  0
    6.2204    2.2805  -16.5832 H   0  0  0  0  0  0  0  0  0  0  0  0
    6.1290    4.0744  -16.6005 H   0  0  0  0  0  0  0  0  0  0  0  0
    3.0328    4.3093  -27.7081 H   0  0  0  0  0  0  0  0  0  0  0  0
    4.0678    3.6215  -26.4111 H   0  0  0  0  0  0  0  0  0  0  0  0
    2.6816    4.6820  -25.9864 H   0  0  0  0  0  0  0  0  0  0  0  0
    3.4648    3.2827  -20.8741 H   0  0  0  0  0  0  0  0  0  0  0  0
    2.3414    3.4374  -18.9118 H   0  0  0  0  0  0  0  0  0  0  0  0
    3.2234    3.5150  -17.4231 H   0  0  0  0  0  0  0  0  0  0  0  0
  1  2  2  0
  1  4  1  0
  2  5  1  0
  3  5  2  0
  3  6  1  0
  4  6  2  0
 16  4  1  6
  5 29  1  0
  6 30  1  0
  7  8  2  0
  7  9  1  0
  7 31  1  0
  8 20  1  0
  8 21  1  0
  9 22  2  0
  9 28  1  0
 10 21  2  0
 10 22  1  0
 10 23  1  0
 11 15  1  0
 11 24  1  0
 11 27  2  0
 12 24  1  0
 12 25  2  0
 12 26  1  0
 13 15  1  0
 13 23  1  0
 14 16  1  0
 14 23  1  0
 15 16  1  0
 16 25  1  0
 17 20  1  0
 18 24  1  0
 19 28  1  0
 20 32  1  0
 20 33  1  0
  1 34  1  0
  2 35  1  0
  3 36  1  0
 13 37  1  0
 13 38  1  0
 14 39  1  0
 14 40  1  0
 15 41  1  6
 17 42  1  0
 17 43  1  0
 17 44  1  0
 18 45  1  0
 18 46  1  0
 18 47  1  0
 19 48  1  0
 19 49  1  0
 19 50  1  0
 25 51  1  0
 26 52  1  0
 26 53  1  0
M  CHG  1  25   1
M  END
>  <OMEGA_C>  (33) 
ZLCRQKzlhj67bKXBRbCSQBp/kb+c/aXBeYPSQK9yg79bGrHBA2exQNgYhj+XnKrBFR2zQAwP5L8J
y6vBFfrRQIpQwT6Uk7DBMdGuQMUG6kDpz8vB23LBQAo49kBY/sHB8iufQClOwEDO78zBhYu2QG7s
sECDkLvBl1PaQGvhS0APTpnBga6MQI/+TEAT4JjBeNXWQNNzlUBZ/anByeqqQI/QTEDO47TBPqXY
QMsfT0BFi6XBrGqvQJGAJUDt3qnBIgnkQGbdFUG6UrXBHNa0QFNuSUC/mYfBCrJeQBbvj0AUxNXB
smnPQNMqEkH2WcDBzBTFQB4r2UCMA7rBPlajQF2OpEBHw8TBdaW6QCiTkkBKmbPBIxu0QC1xSEC/
cJPBAmGKQNgFREBcTaPB72tNQCvZWUCsVZPBI0D9QJvcT0DC3ZTBtPeKQI/8tECPW9bBpQS0QMBU
SMCiSqzBjAfxQHARhj+m67XBXHiqQAgnA0Fj8tPBrn+sQOMPH0GsN8HBE1fsQO53F0EkCcjB2Pdw
QG52QD8C/aDBRPJ0QIkQ3L+u9KHBMznrQBamw79GnrXB0hvJQJlwq0AcCaTBPwH3QJ2GoEDuPqzB
TG++QLXPKUAvw7rBX0KJQCSaTEBGd7fBx6f0QFfULUCU36jBj4DtQJu/JkGdkLTBD9/MQBvdEUGl
Aa/BpTwAQa2eC0Gcg7TBKOKTQBtQRkANiITBIw3HQCj0EUBlqoTBByHEQJdhgkDdzYTBCxpCQP7l
iUAgqt3BjSuCQIXGZ0D3SdPByp4rQKTSlUAo5M/BvL5dQAoYUkAX/qbB4dkVQGz+W0BHS5fBu0xO
QMb1YECNYovB5LTSQKoJ4D47M7DBFBvWQPDfc7+ePrHBf3KUQKN8nL/kAqfBc0uwQCqEgz/PdqrB
Vi+3QCQ25L+Mj6zB6mCQQMP1Lz7qA6bBEzKsQAYc60CYzMrBnOi7QK6K9UAnf8DBW06fQLa8wEAn
x8zBW7y3QHbqrUATxbvBw2raQHgeTECicJnBrcyMQMLiUUD77pjBhrLXQEgOk0DqVKrBUtmqQJH6
R0AbBbXB0WzYQHz7S0DfpKXB92CuQEkGJEA8yKnB/L/yQNOFF0E9SsHBrZS1QCpsUEDGtIfBYRNm
QHhwj0D+e9bB3RfGQE6IEUFANL3BAK3CQDBI1kD+VLnBZiOlQEnxokBvIcXBVeW9QPnBjkDsPrTB
y1K0QCZ7TEAsh5PBVSWKQKUdR0BLVaPBcg9OQNDYYECBY5PBo3r9QDK+UECjFJXBRbuLQNy4tkAP
Y9bBw6K6QFLkR8AkeK3BlXVaQIMEIz8I56DBMCeoQGmFBEHfjtLBP6LFQHwzE0EUVLLBLkmoQHxC
H0FAJ8HBaqXqQL82iT/R0LPBHXXwQFIhsb+2pLXB0kp5QEo/778zeqPB7Y7IQFWjqUD8vaTBgk/4
QKIBnkC3MazBwq68QJsKIECvu7rBhCmJQPARTEBMhbfBntbzQJ9GKEBp5KjB2UP6QBcMKEH46b7B
p0kFQUKTDEFy073B4njzQMI9FkGVEMrBDruUQPMYUECFi4TBYhPHQGChGECOmITB+eHFQFK8hUCu
L4XBXAVKQNSxikDAd97BGxGIQP2TaECPjdTBlZoyQIKGkUDegNDB/updQFPvVkCMD6fBiWAWQFYW
Y0CLUpfB4VdPQI9haUA1dovB0TjTQOLw8z51TbDBoPPWQIvSab9waLHBRGqVQCiCmr9mLqfB2LWw
QOgKhz8niKrBJTC4QOyp4L/hyKzBbRqRQPzlPT44FabBS6uuQCOR6UDLwsvB7evBQKGI9UCv/sHB
i5yeQDv4v0Dl2czBiqS3QNoTsEAdp7vBo8vZQHqES0BaLZnBGCSMQDELT0Af0ZjBEoTXQBjDlEAJ
/KnBN1urQBqvS0Cp2rTBg03YQN0aTkAMbqXBaJKuQEz8JUACtqnBRurhQNS+FUHTBbXBkCy0QDGM
SEDNgIfBhn1gQJskjkCCutXBGFvRQGubEUE7cMDBgWbGQGA22EAWHbrBt2ijQJ0IpEBAvcTBbHC8
QNSKkUBCxbPBRHezQPXVSEBOWJPB3w6KQEC9R0B9RKPBDfFLQGV4WkC0T5PB4ar8QAeOTkC5s5TB
4U+JQCIItUB6KNbBrdC7QP4IRsDzy63BigVcQOMYIj+/2qDBq2SqQFfsAkGK5dPBn1iwQIxIH0Fg
XMLB0YXxQPqCFUGyfcfBQ/7qQDsvjz9Q5rPB7XPxQIvjqr8+z7XBdIN7QB5L7r+PrqPB9k3JQM4k
q0AjMqTB7gj4QLZyn0BTCazB3pq+QLpaJkBOjrrButuJQEg1TUD7jLfBV+/zQKpDK0B+tajBV6Ts
QNlzJkH0VrTBzQrIQHbGEkFpPq/BOeT8QMP1CkGvU7PBuTCTQJdLRkBfcYTBzODFQPgdEEB7qITB
7f3DQDKCgUB+m4TBY7dBQLCxiEBwht3BEUaFQMvrZUBK09PB6hYvQCozkUB0gc/BCmpeQA5QWUA7
BqfBbZMUQK3cXEApUJfBBVVMQKZOYEBHWIvBd+eRQHGXbT5oS6XBS3SSQO5vlb8P2KXBytbRQOg7
ir/mI7HBNY2xQEFYgD/znKrB0GmyQJlQ6b8HvKvBm7vRQOS4pT7xpLDB++WsQO9H60BMzcrBv768
QBrR9UA8hsDBRJOfQMQDwUDtuMzB1wq2QOawrkBVgbvB7tvaQAr5S0CuiJnBVkqNQKxDUEASMJnB
6gbYQNYLk0C0c6rBATerQNwsSEDfFLXBej3ZQLGzS0DYv6XBx8avQCVJIkAL/6nBgevxQNhkGEEv
TcLBH2W1QB8sUkCt5IfB4TRmQEIZkECSetbBPRzHQFK1EUHCVb3BKTrCQCvX1kCEN7nByECkQOOB
o0C588TBD4a6QJYNkEAyxLPBRpq0QIjOS0CBspPBIsGKQOn4QUCHg6PBJEhPQK6hY0C+0ZPBc7X9
QOjPUkBtHJXBL2uMQIX0tkA2YdbB2NayQCTwSsB1OazBvLjwQPaxez8QGrbBYtqoQBiUBEEAk9LB
QDPKQCNAE0GGerLBe1ynQHcLH0E/nsDBXkByQJTFOj86xqDBKIV0QHQB37/xuqHB2TfqQGqWy7/7
s7XB8r/LQG7+qUDehqTB/iX4QNr8nEAcDq3BTf++QKImJUCA5brBNJ2JQMhER0CRs7fBPhf1QHX6
KEBO7qjBwVz5QAz0KEHt+L/BwrAFQSSvDUHubb/BxL7vQHhWF0GdEcvBGnKUQFb/UEDxzITBA2bH
QI/TG0BPkoTBKvHEQPs2h0DhhoXBbPVKQCFHi0DAgN7BfpCHQDpeaUCkZ9TBjRkyQGXVkkDZmdDB
t8ZdQNG2TEDTNafBgfAXQJ5DZkDk0pfBYl5QQCj0bkBY8ovBOL2OQIS2Vj70oKTBc8GOQCLYmL+o
K6XBpOXLQLLBj7+PNbHBYZWtQOtOej+cU6rBOFWtQHxA7r++cKvB8jrMQC6vkT7CubDBdB6nQA73
7UBOtsrB/bSwQK+F+ED38r/B0dOkQIp0wkAIns3BVROzQKx+r0C537vBi+DcQEqUTEAcE5rB/0GP
QIT1T0DwLZjBElHUQHhUk0BmvKrBBSalQN4LSUAY57TBRizXQB6kS0DINabBo4KsQAnHIUDzvqnB
7tiDQDl+GkH84rjBIFe9QNddYECA2YfBjhOdQP5SikAHsdrBinSxQH1mE0ER/rvBxoS2QGXK2EAu
wrjB00KqQAMMpEBaDsbB8vm4QO+Rj0CjX7TB9Ya4QIWwUECpf5PBgoGJQMOIQEDec6LBIexVQPI4
X0B0/5HBypgAQYn6UkBra5bByiKdQFW0t0AUNdjBDEGtQMmRTcCH86vB8A7qQPP7cD/Ik7bB5y+g
QAxOBkF/L9LBP1HBQFbSIEHmlsPBLkPLQBYFFUFCPrPBaPNtQFuMNj+U0Z/BW25uQHhe4b8RwqDB
GkvjQI3J0b8XDLbBGKjFQGETqUDE3aTBh0z0QP45n0BZ5azB36S0QGDwIUBIHLvBQbiCQOopTkCS
nrbBLxryQNSWKUCU86nBL5aEQMYlK0ESDLbBaItdQNBRGUEd6b/BtUhvQBUREEG9fLLBnpSdQD1t
YUC8DoTBW7rQQNIBLUALSITBzkrNQOUkj0Aik4bBhKyWQJjRhUBnRePBlnW8QN8NeUDcsdjBmQ2E
QC92dEAU/dXBJLlYQOTGSUApjKXBYPMbQG42XkCRYpXBL8hbQHgwa0BULIrBVDmQQA7+iT4b667B
9hiQQPKVkb+3gK/B43jVQB2Jmb+Bs6bB6RGzQMG1dz8nO6rBZtKyQFZ+779/ZqvBY+bVQC+UUD6o
BqbBbJSvQHFu7EDiQMvB+mjHQClk9EAQ0sHBbWedQECRw0ApuszBRFy4QDG4rkDsE7zBw73ZQPiP
U0AXQZnBnLaLQJkrTEDF85jB6rzTQMOHlUD+HarBROirQJcMRkAwDLXBehLYQDR/UUD5f6XBF1Sw
QCPaIECdsqnBn266QKdoHkEYvLnB4aOzQNKXY0AbxIfBiXVqQFw7kECyBNfB4F/bQEYAEEGIbL/B
l4zKQMNl1UDpWrrB+WCiQBFspUB0FMXBTKq8QAx8j0BVULTBmDuzQEXmUkCuc5PBn9iJQBz6OEBF
NqPByUVKQCqZWUAknpPBXYn8QBm0XEAS2ZTBA6WGQO4cu0CBAtbBc/uyQJowTsB26avBQTr4QFpf
Qj/yNaHB+PupQPSGBUGZzNLBLSvpQGu7GUFdh8jBoBH+QOl8DUE077jBo9pqQEVCUz/gFLLBPbFq
QIWG07+IGbPB7RbwQFkZ4r8LkqPBZ1HBQI8yqkCnrqTB/G/zQNi/o0AIiKvBpdm+QHlmIEDLx7rB
jimKQMJpRkAZjbfB8jz1QEMAM0AOn6jBi/TIQOYSLkFzB7jB6FeeQDOXIEHN7L7BQXqwQEjXFkGM
MLLBL8aSQPxuYEDMo4TBIHvHQE0hM0Cuv4PBp/rAQEbMkUCyPobBUfBHQJ1ijUCap97BN3iPQCCS
cUC/zNbB0hw+QEwGikC9XNDB2bFaQPaYOkBH2KbB6eISQI6LVECAk5fBIktKQI5JaEDQ1IvBvaHM
QBt7oT75cbDBB/fNQB5Ui79eQbHBRPKPQJVAoL+HlqXBr+asQPIpdz8lK6rBaK2vQPyc779LyqvB
jQ2OQG4SGT4RxaTBrKSmQHXC7UDwlsrB/eGvQD1F+EBrzr/BfcKkQOlDwkDphs3BlZqyQLwyr0Ce
w7vBcdzcQGKBS0DJF5rBFEOPQMrKUUDwTJjBC47VQL9NkkBW7qrBNaSmQMLLRkDSBLXBf1rXQG6m
SUCTQabB3EusQGVWIUAnuKnBZl+CQDEoGkE0xbjB2/68QNG7XkB034fB67WdQBJIikDsqdrBHyqw
QKJCE0HF0bvBxLa1QAWA2ED3n7jB3jGqQCzLo0CG+cXBcSK4QKNYj0BzNrTBX2K4QPRrUEDEjZPB
6NGJQA+xREB1o6LBbp5VQDLdX0ACIJLBA44AQRHhUUASZpbBB2edQGudt0BuI9jBdtawQNggTsBD
gqzBS7RbQC57KD9Yy57BlKWfQAw4BkFXDdLBYPq/QDbKIEEAYMPBi77JQIzwFEEWCLPBWRjkQG5w
aD8VqbTBCUbmQG0nyL8sFLbBtXlxQPG27b83ZqHBfxPJQI/5qEA996TBjo31QGqlnEAMiK3B/6C4
QBIOIUCF7rrBgZ+EQLBOSECZRbfB1vLxQK8MJkDD66nBVMiCQLjMKkHQ6LXBv/RaQGbvGEFq07/B
o19sQJimD0G/ZrLBRCOdQPqqYEBUI4TB48PPQIdDKkDUWYTBjoPNQKHwjUBxeIbB3YyXQEzchUDV
QePB4CK9QDdVeUCWodjBY66EQJLmc0CxA9bBkvJaQL30UkD/5KXBLNMbQEbFX0DGj5XBaBhbQD4O
akDAQYrB

>  <OMEGA_E>  (33) 
AGScPWDCyz1gIc49YKibPVgklD4QzlU+zKahPg==

>  <OMEGA_NBR>  (33) 
    113414

$$$$
220614
     RDKit          3D

 54 58  0  0  1  0  0  0  0  0999 V2000
    4.5186    0.2557  -20.6997 C   0  0  0  0  0  0  0  0  0  0  0  0
    6.5557    0.4158  -22.0410 C   0  0  0  0  0  0  0  0  0  0  0  0
    4.5432   -1.1404  -20.8418 C   0  0  0  0  0  0  0  0  0  0  0  0
    6.5736   -0.9790  -22.1837 C   0  0  0  0  0  0  0  0  0  0  0  0
    5.5265    1.0492  -21.2999 C   0  0  0  0  0  0  0  0  0  0  0  0
    5.5657   -1.7560  -21.5867 C   0  0  0  0  0  0  0  0  0  0  0  0
    5.3482    7.3481  -25.3634 C   0  0  0  0  0  0  0  0  0  0  0  0
    5.8494    7.6825  -24.0943 C   0  0  0  0  0  0  0  0  0  0  0  0
    4.9780    6.0181  -25.6077 C   0  0  0  0  0  0  0  0  0  0  0  0
    5.7213    5.4567  -23.4616 C   0  0  0  0  0  0  0  0  0  0  0  0
    6.8416    3.1897  -19.1720 C   0  0  0  0  0  0  0  0  0  0  0  0
    4.4122    3.2479  -19.1118 C   0  0  0  0  0  0  0  0  0  0  0  0
    7.4935    9.6487  -24.3094 C   0  0  0  0  0  0  0  0  0  0  0  0
    7.3356    9.3833  -22.8056 C   0  0  0  0  0  0  0  0  0  0  0  0
    6.7560    4.6118  -21.2864 C   0  0  0  0  0  0  0  0  0  0  0  0
    5.3638    3.1369  -22.6221 C   0  0  0  0  0  0  0  0  0  0  0  0
    6.1739    9.1067  -23.7664 C   0  0  0  0  0  0  0  0  0  0  0  0
    6.7859    3.1971  -20.7010 C   0  0  2  0  0  0  0  0  0  0  0  0
    5.4796    2.5716  -21.2204 C   0  0  2  0  0  0  0  0  0  0  0  0
    5.6831    3.2314  -16.9565 C   0  0  0  0  0  0  0  0  0  0  0  0
    3.5168    4.5458  -26.7948 C   0  0  0  0  0  0  0  0  0  0  0  0
    6.0388    6.7300  -23.1668 N   0  0  0  0  0  0  0  0  0  0  0  0
    5.1692    5.0938  -24.6440 N   0  0  0  0  0  0  0  0  0  0  0  0
    5.9219    4.4870  -22.5124 N   0  0  0  0  0  0  0  0  0  0  0  0
    5.6482    3.1746  -18.4351 N   0  0  0  0  0  0  0  0  0  0  0  0
    4.3311    3.0797  -20.4112 N   0  0  0  0  0  0  0  0  0  0  0  0
    3.2313    3.4838  -18.4209 N   0  0  0  0  0  0  0  0  0  0  0  0
    7.9341    3.2727  -18.6219 O   0  0  0  0  0  0  0  0  0  0  0  0
    4.3958    5.6939  -26.8172 O   0  0  0  0  0  0  0  0  0  0  0  0
    5.5742   -3.0971  -21.7362 F   0  0  0  0  0  0  0  0  0  0  0  0
    5.1996    8.2922  -26.3208 F   0  0  0  0  0  0  0  0  0  0  0  0
    3.7295    0.7258  -20.1316 H   0  0  0  0  0  0  0  0  0  0  0  0
    7.3314    1.0116  -22.4988 H   0  0  0  0  0  0  0  0  0  0  0  0
    3.7760   -1.7431  -20.3786 H   0  0  0  0  0  0  0  0  0  0  0  0
    7.3597   -1.4552  -22.7508 H   0  0  0  0  0  0  0  0  0  0  0  0
    7.5516   10.6820  -24.6822 H   0  0  0  0  0  0  0  0  0  0  0  0
    8.1451    9.0028  -24.9162 H   0  0  0  0  0  0  0  0  0  0  0  0
    7.8721    8.5464  -22.3345 H   0  0  0  0  0  0  0  0  0  0  0  0
    7.2787   10.2256  -22.1005 H   0  0  0  0  0  0  0  0  0  0  0  0
    6.3008    5.3175  -20.5760 H   0  0  0  0  0  0  0  0  0  0  0  0
    7.7717    4.9500  -21.5393 H   0  0  0  0  0  0  0  0  0  0  0  0
    5.9428    2.5322  -23.3356 H   0  0  0  0  0  0  0  0  0  0  0  0
    4.3121    3.1743  -22.9420 H   0  0  0  0  0  0  0  0  0  0  0  0
    5.3325    9.8143  -23.7299 H   0  0  0  0  0  0  0  0  0  0  0  0
    7.6466    2.6455  -21.1069 H   0  0  0  0  0  0  0  0  0  0  0  0
    4.6559    3.2093  -16.5638 H   0  0  0  0  0  0  0  0  0  0  0  0
    6.2420    2.3665  -16.5697 H   0  0  0  0  0  0  0  0  0  0  0  0
    6.1779    4.1604  -16.6370 H   0  0  0  0  0  0  0  0  0  0  0  0
    3.1090    4.3758  -27.8021 H   0  0  0  0  0  0  0  0  0  0  0  0
    4.0814    3.6582  -26.4733 H   0  0  0  0  0  0  0  0  0  0  0  0
    2.6913    4.7299  -26.0914 H   0  0  0  0  0  0  0  0  0  0  0  0
    3.4724    3.2989  -20.8746 H   0  0  0  0  0  0  0  0  0  0  0  0
    2.3621    3.5202  -18.9142 H   0  0  0  0  0  0  0  0  0  0  0  0
    3.2498    3.6172  -17.4300 H   0  0  0  0  0  0  0  0  0  0  0  0
  1  3  2  0
  1  5  1  0
  2  4  1  0
  2  5  2  0
  3  6  1  0
  4  6  2  0
 19  5  1  6
  6 30  1  0
  7  8  2  0
  7  9  1  0
  7 31  1  0
  8 17  1  0
  8 22  1  0
  9 23  2  0
  9 29  1  0
 10 22  2  0
 10 23  1  0
 10 24  1  0
 11 18  1  0
 11 25  1  0
 11 28  2  0
 12 25  1  0
 12 26  2  0
 12 27  1  0
 13 14  1  0
 13 17  1  0
 14 17  1  0
 15 18  1  0
 15 24  1  0
 16 19  1  0
 16 24  1  0
 18 19  1  0
 19 26  1  0
 20 25  1  0
 21 29  1  0
  1 32  1  0
  2 33  1  0
  3 34  1  0
  4 35  1  0
 13 36  1  0
 13 37  1  0
 14 38  1  0
 14 39  1  0
 15 40  1  0
 15 41  1  0
 16 42  1  0
 16 43  1  0
 17 44  1  0
 18 45  1  6
 20 46  1  0
 20 47  1  0
 20 48  1  0
 21 49  1  0
 21 50  1  0
 21 51  1  0
 26 52  1  0
 27 53  1  0
 27 54  1  0
M  CHG  1  26   1
M  END
>  <OMEGA_C>  (34) 
OpiQQPnrgj4UmaXBcsjRQAfg1D7rU7DB1GGRQJz5kb8RvKbBwlrSQD6ier8jeLHBH9mwQGZLhj9D
ZqrB3RmyQL7D4L93sazBfSSrQFUj60At6MrBbS67QB3X9UAUwcDBk0ufQF+UwECq3MzBrxS3QFyd
rkBEsbvBvO7aQLkjTEBPYJnBuTCNQFbeT0D55JjByMrvQAlhGkGnecLBK73qQN8hFkHHcbbBJjHY
QHyTk0CLSqrBoqSrQBzDSEAL+rTBvpDFQOy0EUGvIb7BAybZQNOdTECym6XB21ivQKaVJEBZw6nB
Pdy1QIrOTkADp4fBMBNhQGl3kUCoW9bBoD3BQGBc10ClVbnBsGmlQE0Ao0DmJsXBJ4C9QIWVj0B3
GbTBqb20QCItS0Ade5PBI5iKQJQaRUA5SqPB8sxOQM31XkAQXpPB3eP9QJxzUUCZ+ZTBYKqMQM40
tkCtidbBwV+yQA43RsDV463BAWOmQMesBEEBkdLBKbBuQJjOOT+TDaHBEpvqQJd9gT+N/bPBlalx
QEce379vB6PB2oLrQBZEur+iAbbBBqfxQFbpKkEXdcXBMlICQVELEEFxVMfBNOj7QDe+CEEWrbLB
1uroQD2cI0G8zbDB/p/JQAkpqkCfm6TByrH4QCRmnkB7UKzByiu+QBkQIkBbr7rBbPyJQDYoS0A/
ibfBzKOqQCwHHUHf1r3BWLH0QEpPKUD82qjBzfyUQMtlTUC+goTB3L7HQPp0F0C2joTBG7HFQPsh
hUCOGIXBxvlGQL8GjEDBat7BqpqCQNMfakBCydPBej4sQF1bl0A1u9DBazxeQBYhU0A7/6bBUC0X
QD1KYUBEUJfBTPxPQCGAZ0C8cIvBvR2QQFYVgD546qXBaTrRQG7X2T6Mp7DB8l+RQJfIkr9F/6bB
HjjSQCpdeL92wrHB8kGwQEKlhj9IsKrBk1uyQFi74L856KzBEUmrQBNa6UDNW8vBm46gQAcyvkAw
7szBDEK7QMvW9UBgU8HBtXG5QOXvrkBgw7vB73jaQNXlS0AvcJnBYq2MQFmUTkDq9ZjBIEg1QHh1
mkBwuNPBfsx+QAjDgEAvo9jBwGTYQFuxk0A6MqrBO2urQOWUSkCE97TBQTWFQLzVsECTV9bBNL/Y
QPptTEA5oaXBzOGuQEPaJECj3KnBCFC1QCWrTkCDv4fBPeHmQDJ4GEHwW73BBM+nQEACokCiEMXB
lgHDQC1E2EBhtLnBK5a9QHGFkECV7bPBGUK0QP0pSkCWj5PBsw+KQPB6REACXaPBTOFNQFGRXUBq
Z5PBmz79QFdvVUC0DpXBCou8QNZBEEGt3b7B/lWzQK9SRsAj9K3BEYijQB55A0EYAtPBAyptQPv9
Nj8+b6HBb8PpQAB9gz87YLTBhfRxQKef4L/4SKPBXWfrQLNWuL8GVLbB96v3P3V8oUCSftjBKdAi
QC8UlUD7VcvBg5KQQFvkUUCiyNPB2Cp6QOe0akA48eDBAkrKQGFDqkDkb6TBWAT5QJ8ZnkDnO6zB
cN+9QL1lJEBvvrrB0cmJQDW1TUAlibfB5ymFQF8wxkB7Vt3BHD30QEntKEAU36jB+nGUQMR2TEAr
nITBkp3HQHQaGEC4loTBa6zEQEtlhUBzQYXBZC/lQJWdKUFJa7vBR4D2QNvYD0GGwbbBQ3/5QJ9A
FkGtvsTBXBFdQI5pUkBXDafBzDcWQExUYEBTVpfBuC9PQKyZZUAKeIvB

>  <OMEGA_E>  (34) 
ACiVPdCVcT4=

>  <OMEGA_NBR>  (34) 
    115515

$$$$
220615
     RDKit          3D

 53 56  0  0  1  0  0  0  0  0999 V2000
    4.5288    0.2363  -20.6960 C   0  0  0  0  0  0  0  0  0  0  0  0
    6.5416   -1.0527  -22.1770 C   0  0  0  0  0  0  0  0  0  0  0  0
    5.5143    1.0169  -21.3493 C   0  0  0  0  0  0  0  0  0  0  0  0
    4.5554   -1.1617  -20.7737 C   0  0  0  0  0  0  0  0  0  0  0  0
    6.5199    0.3506  -22.1148 C   0  0  0  0  0  0  0  0  0  0  0  0
    5.5686   -1.8082  -21.5030 C   0  0  0  0  0  0  0  0  0  0  0  0
    5.3911    7.3663  -25.3466 C   0  0  0  0  0  0  0  0  0  0  0  0
    5.9234    7.6875  -24.0789 C   0  0  0  0  0  0  0  0  0  0  0  0
    4.9916    6.0412  -25.5935 C   0  0  0  0  0  0  0  0  0  0  0  0
    5.7277    5.4639  -23.4540 C   0  0  0  0  0  0  0  0  0  0  0  0
    6.8336    3.2021  -19.1967 C   0  0  0  0  0  0  0  0  0  0  0  0
    4.4085    3.2252  -19.1148 C   0  0  0  0  0  0  0  0  0  0  0  0
    6.7472    4.5910  -21.3100 C   0  0  0  0  0  0  0  0  0  0  0  0
    5.2938    3.1550  -22.6241 C   0  0  0  0  0  0  0  0  0  0  0  0
    6.7651    3.1830  -20.7215 C   0  0  2  0  0  0  0  0  0  0  0  0
    5.4576    2.5486  -21.2451 C   0  0  2  0  0  0  0  0  0  0  0  0
    7.5903    9.5185  -24.3337 C   0  0  0  0  0  0  0  0  0  0  0  0
    5.6946    3.2683  -16.9742 C   0  0  0  0  0  0  0  0  0  0  0  0
    3.6124    4.4946  -26.8044 C   0  0  0  0  0  0  0  0  0  0  0  0
    6.2583    9.1097  -23.7038 C   0  0  0  0  0  0  0  0  0  0  0  0
    6.1168    6.7205  -23.1694 N   0  0  0  0  0  0  0  0  0  0  0  0
    5.1655    5.1146  -24.6320 N   0  0  0  0  0  0  0  0  0  0  0  0
    5.8504    4.5040  -22.4877 N   0  0  0  0  0  0  0  0  0  0  0  0
    5.6493    3.1778  -18.4501 N   0  0  0  0  0  0  0  0  0  0  0  0
    4.3133    3.0324  -20.4099 N   0  0  0  0  0  0  0  0  0  0  0  0
    3.2358    3.4750  -18.4144 N   0  0  0  0  0  0  0  0  0  0  0  0
    7.9220    3.3860  -18.6629 O   0  0  0  0  0  0  0  0  0  0  0  0
    4.3760    5.7271  -26.7923 O   0  0  0  0  0  0  0  0  0  0  0  0
    3.5982   -1.8788  -20.1440 F   0  0  0  0  0  0  0  0  0  0  0  0
    7.4735    1.0233  -22.8048 F   0  0  0  0  0  0  0  0  0  0  0  0
    5.6068   -3.1571  -21.5643 F   0  0  0  0  0  0  0  0  0  0  0  0
    5.2081    8.3190  -26.2888 F   0  0  0  0  0  0  0  0  0  0  0  0
    3.7483    0.7248  -20.1316 H   0  0  0  0  0  0  0  0  0  0  0  0
    7.3110   -1.5531  -22.7462 H   0  0  0  0  0  0  0  0  0  0  0  0
    6.3541    5.3112  -20.5773 H   0  0  0  0  0  0  0  0  0  0  0  0
    7.7590    4.8948  -21.6163 H   0  0  0  0  0  0  0  0  0  0  0  0
    5.8520    2.5759  -23.3745 H   0  0  0  0  0  0  0  0  0  0  0  0
    4.2322    3.1971  -22.9089 H   0  0  0  0  0  0  0  0  0  0  0  0
    7.6255    2.6270  -21.1221 H   0  0  0  0  0  0  0  0  0  0  0  0
    7.8254   10.5562  -24.0545 H   0  0  0  0  0  0  0  0  0  0  0  0
    8.3869    8.8521  -23.9714 H   0  0  0  0  0  0  0  0  0  0  0  0
    7.5171    9.4412  -25.4285 H   0  0  0  0  0  0  0  0  0  0  0  0
    4.6711    3.2328  -16.5726 H   0  0  0  0  0  0  0  0  0  0  0  0
    6.2753    2.4247  -16.5728 H   0  0  0  0  0  0  0  0  0  0  0  0
    6.1713    4.2149  -16.6795 H   0  0  0  0  0  0  0  0  0  0  0  0
    3.1703    4.3463  -27.8006 H   0  0  0  0  0  0  0  0  0  0  0  0
    4.2763    3.6498  -26.5685 H   0  0  0  0  0  0  0  0  0  0  0  0
    2.8113    4.5524  -26.0528 H   0  0  0  0  0  0  0  0  0  0  0  0
    5.4638    9.7785  -24.0663 H   0  0  0  0  0  0  0  0  0  0  0  0
    6.3336    9.1894  -22.6092 H   0  0  0  0  0  0  0  0  0  0  0  0
    3.4384    3.2167  -20.8579 H   0  0  0  0  0  0  0  0  0  0  0  0
    2.3609    3.5027  -18.8979 H   0  0  0  0  0  0  0  0  0  0  0  0
    3.2662    3.6271  -17.4265 H   0  0  0  0  0  0  0  0  0  0  0  0
  1  3  2  0
  1  4  1  0
  2  5  2  0
  2  6  1  0
  3  5  1  0
 16  3  1  6
  4  6  2  0
  4 29  1  0
  5 30  1  0
  6 31  1  0
  7  8  2  0
  7  9  1  0
  7 32  1  0
  8 20  1  0
  8 21  1  0
  9 22  2  0
  9 28  1  0
 10 21  2  0
 10 22  1  0
 10 23  1  0
 11 15  1  0
 11 24  1  0
 11 27  2  0
 12 24  1  0
 12 25  2  0
 12 26  1  0
 13 15  1  0
 13 23  1  0
 14 16  1  0
 14 23  1  0
 15 16  1  0
 16 25  1  0
 17 20  1  0
 18 24  1  0
 19 28  1  0
  1 33  1  0
  2 34  1  0
 13 35  1  0
 13 36  1  0
 14 37  1  0
 14 38  1  0
 15 39  1  6
 17 40  1  0
 17 41  1  0
 17 42  1  0
 18 43  1  0
 18 44  1  0
 18 45  1  0
 19 46  1  0
 19 47  1  0
 19 48  1  0
 20 49  1  0
 20 50  1  0
 25 51  1  0
 26 52  1  0
 26 53  1  0
M  CHG  1  25   1
M  END
>  <OMEGA_C>  (35) 
TOyQQIfrcT5VkaXBI1XRQNu9hr9qarHB4XSwQBcrgj9Ry6rBN8aRQF2xlL+SMKbBtKLQQMKEsz4l
67DBrDGyQJB0578LBqzB1YOsQGO460DVxcrBSIy9QJv/9UCGocDBQrufQLZRwUBlv8zBe0m3QELY
rkC0obvBE63aQILvTEDjkpnBLxKNQH5qTkAt65jB0ejXQG/pkkDleqrBHWepQPDqSUAi/rTBhHvY
QIS2S0CjxaXBDKWuQIUbI0D49anBs+PyQPJLGEFXq8LBxDm2QI0sUUApy4fBEjJnQOXTj0BWb9bB
AETIQILBEUFPob3BwLzDQJwO10DaWrnBZ0ulQDGro0BZDsXBgDa7QJcgkEDZ5rPBJce0QO9gS0C0
mZPBRgaKQOwSQkBgR6PBDBhPQOhlXkDAUJPBxYD9QJKzWECnTZXBYAiMQGZEt0C1VtbBqElmQJN9
8L/3JqHBFSfvQLf7gj9CcLbBnWqzQDcOSsCfg6zBEqmmQJQaBUF4T9LBqeRvQKKNOT+HDaHBgPPp
QGrNxr9B+LXBJFXLQEb1qUBTnqTBHkr4QA2inEAx7qzB4UO7QKvbJED2/rrBBm6HQA+eTEBjRbfB
YgT0QCUhKEAV+qjBgWn6QEjmKEGHb8DByDAGQQiiDUGCxb/B2YvwQAIPF0GNbcvBqXmVQEzmTkCt
lITBKs/IQAkvG0AvlYTBJHvFQA/ghkCYb4XBkeZKQMIUi0CuZ97BQNeIQMqWaUA8jNTB4OwzQFat
kUAPbNDBGteuQNp0HEHFh8DB0azKQOAHE0G537TBQg9cQBXeTUDj3KbBTxkXQBcsYEDkLpfBNQpR
QFUiaECLaYvBBUTRQLKX1D6ibbDBmkiTQFzfnb/7+qbBiGevQBaYgT/ykqrB113UQLPBeb9OdbHB
h4SPQNZLJj5JBKbB7qy1QDLB5r9lmazB3UiuQMqL6kA/CMvB4Vy9QLuw9UCGw8DBn2igQCpbwEBo
yszBTUi2QNTdrkDlc7vBBsvaQGB4S0CFhpnBWzCNQCumUEAF5pjBp5/YQCdskkAzgarBlcmqQOlx
SEA8+LTBwYvYQGN+SkDiuqXB2y+uQDwvI0D2z6nBDcr2QB1TFkGSysDB5W22QMUeT0BovofBzzFm
QCB5j0A9TtbBdB/IQLexEUHa9r3BekLCQH1V10ClP7nBt6KkQPFPo0Ah5cTBKYe6QGUokEBvr7PB
HNm0QHkmS0Bqj5PBxzyKQF1KRkCFS6PBFSxPQLjVX0BXTJPBfMf9QKhYVEB5OpXBjBWNQFLntUBC
ZtbB1Rn1QApZwb/zF7fBUZBZQEMHIj8RxKDBkgO5QHRgScCsVK3BLIarQMUDBEFo7dLBjBLpQKGr
hT8OKLTBGAN3QNLY77+rXaPBjH3NQGTtqUAnk6TB3Of4QMQxm0AsPq3Blte+QFeFJECEo7rBxWiJ
QCgeSECFw7fBsq/zQNXbJUC49ajB5Xn+QB4AJ0FIvL7BMuMFQYR7C0G6QrzBfrf7QMHRE0EEasnB
mqyVQCI2TkD5hYTB/ULIQN6kF0BJqoTBNIrGQLc6hUDlQIXB48BKQAJBikDJTd7B+BaHQAHDZ0D6
GNTBcDYyQDAek0D/cNDBPSyzQLqNHEGyfsLBIzvDQH03FEFnV7XBXfldQJl3VkAd+KbBS1cXQP+F
YkDSMZfBadRQQM4VaEAfXovBoYuTQE2Whj51tqTBThbRQGDnh7/aNrHBPV2xQKn+gz90qqrBEsGU
QK6fkb8N76TBrInQQND9rz4Q9bDB9WuzQGmf5r/XM6vBVDutQIBD6kCbgcvBGsSgQL9zv0Ak/8zB
Cb68QP2z9kB0a8HBQmi3QKMusEAkn7vBKoHaQLJTTUBxmZnBer2MQFUTUkCiUZnBCwPZQCXsk0Bt
garB6mCrQCh+S0DaH7XBuDvZQL4OTUCez6XBk66vQPx7JEAJGKrB/FhWQOOwjUBwmdXBgJa0QGEk
U0BU94fBWUvvQBY1FkEEtL3BVaiNQOAwsECEfNfBA6ymQBdHo0CGC8XBWTTCQG5M2UDVoLnBW1O7
QDG7kUDJwrPBPiq0QGlLU0Bj0pPBwo+KQGoQREALqKPBYsdMQLB9XkAu75PB2W/9QG+1TkArJJXB
D0TDQPumEEHfYL/BqrVwQJXE67+YCJ/BOoTuQBNPfz+UyLbBkIy0QKG8ScCScavBO/GpQHObA0Gs
gdPBRS93QNyVQz9M8p/BonroQDOtyb88EbbBTGrNQD8cq0CjjaTBZE/5QFEbnUBEJa3Bfea+QLtS
KEAI+7rB+8KJQEuiS0DXu7fByfH0QF6OKUAV76jBI/E7QAtPg0A9Vd3BZSlzQCU4ZEBbfNHBcL8i
QNYLm0BlodDBTJ2TQOpJWEA39ITB6f3CQKc0F0DvE4XBrHvHQJDohECaEIXBF97xQBZ5J0ExH7zB
69r7QLw8DUFX0LbByvcAQdYqEkGq48TBmBd+QDKVy0BIotvBxkCnQG6lokA9fdzBIKFdQL8AT0BU
ZqfBTGgVQM6KXEBI8JfBWuVMQDNiaUAQDYzBdODPQCqY9T6JirHBoK+XQCV1nr8Du6bBW0CwQB5n
hT96varBPpnSQJUNaL/tH7PBrt2TQDT4Gj68TKXBRL+2QN5F4r/Poa3BNA6tQA2K5kCLPszBbiKh
QFVOu0AWEc3BLQC/QAgk9UDLlMLBy0a3QEJPsEDYeLvBL+3ZQMp3S0A6SpnB+TyMQP00UECwyZjB
civYQD1ulECCFarBoUiqQBmNTUDWorTB3iHYQHIOTUDkgqXBvB6uQGRpJUAwrqnBrVI8QELDnEBR
zdTBzdi0QBi8S0BBkYfBNvPhQPxFFkHKmbjBpPmMQL3NqEArDdfBST+mQFt2oUDyqsTBeU/EQBZn
2UDVS7rBKrW5QPwSk0B1NbPBsb6zQIwySkAPZZPB3JaJQMjTRUDALaPB6bFMQDrZXUCaPpPBjtj8
QJeBUUAq45TBf7bJQET+D0Fk48HBBAbwQJnus78p+bnBIQRpQJOxEj/fq57BVbO5QHfHRsBq867B
AKmnQHDjAEFFjNTBkD/mQDDCkD+4kbXBkXuCQGS887+XeKLBNVjNQHl2q0AkAaTBoGD4QGxTnUAU
2qzBF0W+QBspK0Bxd7rBXcyIQIMuTUBFWbfBiYDzQAtkKUAPyqjBa1kfQKhVj0D3FdzB4uc5QNnX
hEBfWs7Bu6sYQOh9uUCKWtLBv/WTQK5lSkA6b4TBInbGQGqFE0BRn4TBaPPEQA43g0DP2ITBvX7o
QIaNJ0Gs8bjBjnzPQDmgEkF3VbHBejAAQaBuDUErbrjB1yKOQI2zwECMgd3B68CeQH4NjEBhgdnB
AzdcQEUpVEBc3abBWgQVQDNyX0AxL5fBY8pNQJMTZkDmT4vB

>  <OMEGA_E>  (35) 
wIkNPqDDIz6A+ZU+1PykPg==

>  <OMEGA_NBR>  (35) 
    119354

$$$$
330376
     RDKit          3D

 50 53  0  0  1  0  0  0  0  0999 V2000
    4.5342   -1.2276  -20.6370 C   0  0  0  0  0  0  0  0  0  0  0  0
    5.4969   -1.9127  -21.3950 C   0  0  0  0  0  0  0  0  0  0  0  0
    4.5177    0.1760  -20.6217 C   0  0  0  0  0  0  0  0  0  0  0  0
    6.4413   -1.1932  -22.1460 C   0  0  0  0  0  0  0  0  0  0  0  0
    5.4684    0.9236  -21.3675 C   0  0  0  0  0  0  0  0  0  0  0  0
    6.4352    0.2137  -22.1418 C   0  0  0  0  0  0  0  0  0  0  0  0
    5.5248    7.3477  -25.3567 C   0  0  0  0  0  0  0  0  0  0  0  0
    6.1678    7.6380  -24.1333 C   0  0  0  0  0  0  0  0  0  0  0  0
    4.9648    6.0692  -25.5406 C   0  0  0  0  0  0  0  0  0  0  0  0
    5.7409    5.4625  -23.4234 C   0  0  0  0  0  0  0  0  0  0  0  0
    4.3402    3.2061  -19.0909 C   0  0  0  0  0  0  0  0  0  0  0  0
    6.6969    4.5244  -21.2595 C   0  0  0  0  0  0  0  0  0  0  0  0
    5.3079    3.1026  -22.6672 C   0  0  0  0  0  0  0  0  0  0  0  0
    6.7925    3.0646  -20.8331 C   0  0  2  0  0  0  0  0  0  0  0  0
    5.4559    2.4638  -21.2976 C   0  0  2  0  0  0  0  0  0  0  0  0
    6.7657    9.0032  -23.8774 C   0  0  0  0  0  0  0  0  0  0  0  0
    5.4767    3.1906  -16.8541 C   0  0  0  0  0  0  0  0  0  0  0  0
    3.5525    4.5152  -26.7171 C   0  0  0  0  0  0  0  0  0  0  0  0
    6.2654    6.6853  -23.1854 N   0  0  0  0  0  0  0  0  0  0  0  0
    5.0915    5.1536  -24.5643 N   0  0  0  0  0  0  0  0  0  0  0  0
    3.1877    3.4297  -18.5094 N   0  0  0  0  0  0  0  0  0  0  0  0
    4.3176    2.9881  -20.4697 N   0  0  0  0  0  0  0  0  0  0  0  0
    5.8674    4.4650  -22.4878 N   0  0  0  0  0  0  0  0  0  0  0  0
    5.5291    3.2041  -18.3377 N   0  0  0  0  0  0  0  0  0  0  0  0
    7.2814    1.4088  -18.8610 O   0  0  0  0  0  0  0  0  0  0  0  0
    8.0038    3.8474  -18.6447 O   0  0  0  0  0  0  0  0  0  0  0  0
    4.2783    5.7743  -26.7075 O   0  0  0  0  0  0  0  0  0  0  0  0
    7.3710    0.8469  -22.8892 F   0  0  0  0  0  0  0  0  0  0  0  0
    5.4292    8.2825  -26.3296 F   0  0  0  0  0  0  0  0  0  0  0  0
    7.0274    2.8391  -19.0792 S   0  0  0  0  0  0  0  0  0  0  0  0
    3.8049   -1.7815  -20.0645 H   0  0  0  0  0  0  0  0  0  0  0  0
    5.5114   -2.9926  -21.4009 H   0  0  0  0  0  0  0  0  0  0  0  0
    3.7730    0.6941  -20.0357 H   0  0  0  0  0  0  0  0  0  0  0  0
    7.1778   -1.7242  -22.7309 H   0  0  0  0  0  0  0  0  0  0  0  0
    6.2085    5.1311  -20.4827 H   0  0  0  0  0  0  0  0  0  0  0  0
    7.6928    4.9382  -21.4757 H   0  0  0  0  0  0  0  0  0  0  0  0
    5.8767    2.5424  -23.4239 H   0  0  0  0  0  0  0  0  0  0  0  0
    4.2499    3.1501  -22.9647 H   0  0  0  0  0  0  0  0  0  0  0  0
    7.6313    2.5688  -21.3435 H   0  0  0  0  0  0  0  0  0  0  0  0
    7.2279    9.0205  -22.8794 H   0  0  0  0  0  0  0  0  0  0  0  0
    7.5300    9.2173  -24.6390 H   0  0  0  0  0  0  0  0  0  0  0  0
    5.9742    9.7654  -23.9280 H   0  0  0  0  0  0  0  0  0  0  0  0
    6.4685    2.9329  -16.4540 H   0  0  0  0  0  0  0  0  0  0  0  0
    5.1811    4.1851  -16.4887 H   0  0  0  0  0  0  0  0  0  0  0  0
    4.7414    2.4438  -16.5200 H   0  0  0  0  0  0  0  0  0  0  0  0
    3.0497    4.3886  -27.6873 H   0  0  0  0  0  0  0  0  0  0  0  0
    4.2565    3.6851  -26.5581 H   0  0  0  0  0  0  0  0  0  0  0  0
    2.8020    4.5186  -25.9130 H   0  0  0  0  0  0  0  0  0  0  0  0
    3.2879    3.5850  -17.5266 H   0  0  0  0  0  0  0  0  0  0  0  0
    3.4664    3.2003  -20.9496 H   0  0  0  0  0  0  0  0  0  0  0  0
  1  2  2  0
  1  3  1  0
  2  4  1  0
  3  5  2  0
  4  6  2  0
  5  6  1  0
 15  5  1  6
  6 28  1  0
  7  8  2  0
  7  9  1  0
  7 29  1  0
  8 16  1  0
  8 19  1  0
  9 20  2  0
  9 27  1  0
 10 19  2  0
 10 20  1  0
 10 23  1  0
 11 21  2  0
 11 22  1  0
 11 24  1  0
 12 14  1  0
 12 23  1  0
 13 15  1  0
 13 23  1  0
 14 15  1  0
 14 30  1  0
 15 22  1  0
 17 24  1  0
 18 27  1  0
 24 30  1  0
 25 30  2  0
 26 30  2  0
  1 31  1  0
  2 32  1  0
  3 33  1  0
  4 34  1  0
 12 35  1  0
 12 36  1  0
 13 37  1  0
 13 38  1  0
 14 39  1  6
 16 40  1  0
 16 41  1  0
 16 42  1  0
 17 43  1  0
 17 44  1  0
 17 45  1  0
 18 46  1  0
 18 47  1  0
 18 48  1  0
 21 49  1  0
 22 50  1  0
M  END
>  <OMEGA_C>  (36) 
ChiRQCQjnb+MGKXBSuavQP3T9L8HKavB45CQQFIsND5C+aTBih/OQJS7mL/yKrHBbP2uQL9xbD+S
8KrBTe3NQN7YWj5eIrHBfMuwQBgg60Cf2srB7F7FQK5q9EAWEcHBgN+eQNc2wkAwU8zBHLW3QPvM
rkAUY7vBBeOKQBgwTUAUupjBqUzWQPDHkEB3E6rB/tmpQGGRRkB0VrXB2FvZQLUhREAxqqbBnJau
QB6vHUCAYarB5oDYQDMNEEEABb/BSkGvQGUyTEAn1YbBdVxjQF58kEC1vNXBNX7IQEfu1UCze7nB
0+2iQILqpEDFg8TBcANMQJuAW0A2E5TB8ymKQMc8P0DzwaPB28G7QEHhjkD+5rPBNu6wQJ4PTUCr
s5LB1ADpQAhTtD9F45bBjg8AQWs7dkBUKJXB0ueIQHPHuEAJqdXBS9/rQLPLWD8dHbfBLLytQCWF
BEEDo9LBYuDgQHKzNUAfopjBRINzQM8H5L8KhKDBSV2wQNqGP8AaNavBeHhxQB+vMT81SaDBULDl
QP2w3L/72LXB4avGQMkxpECN3KPBzSv2QP0FnkBOzqvB9A28QOy2IkApZLvBMv+HQBWbSUCct7fB
8zP0QANnJEB1v6rB+ErnQMtTEEH+CLfBEfbwQN55E0HBHMXBdyy/QPs+HEGdbL/Bo/3OQC61O0DH
oYPB2culQHrshUDQ6IPBlbmXQJRmHEANKYTBey5DQC9vjECKf93BojWIQJDYa0D6dtTBgVMzQEKY
kEDLTc/BMmxSQG9wZUB4NozB4thdQBvRTEDcmKfB37rXQCPvZr+yVrHB/W+6QLNa4L8NPqzB2ibT
QF7Y+j4xc7DBhGaYQCmzmr8xVabBLmOxQB2diD8fYarB42OTQA7EPj5RZKXBCG2uQJeO6kDEqMvB
S6HCQIMf9UBv68HBS6+dQIwNwUDa9czBGqm1QJnlr0CQyrvBBRiJQLEtT0D2UJjBXHfiQMNHjUDx
1K3BJoqpQC96S0BNA7XBhYPaQMqBT0DPIabBG8uuQCdjJ0ASwKnBFtnSQP3+EEHK3r/BuFetQMrs
QkBzhobBnDJjQJsfjkB6Q9bBPcLFQBWH10A6IrrBJaOhQHWWpEAM7sTBqt9HQIbiWUBRqJPBGvOJ
QG/0SUBMaqPBX4a6QGxckUBj9LPBvMauQMGtR0CaYZLB1E8AQRrPQUDgZ5PB0HrYQKREpkBwapfB
GKyIQDdvtkDLWNbB+VZiQIWkHz/+x5/B8zOqQB38A0H/htPB3v7bQNPobkBaJZjBmMfxQN6nqL8M
8bXBmgu+QMG9NMBd3KzBr7zpQBJhkT+KdbTBcc6BQJcJ778Nd6LBjxrpQG3XqkATWqnBSX39QMY6
hkA2MLPBQCC8QD41JkA627rBRq6HQOdgTECLarfBivDzQNOHH0C1KqfBUszfQIoCEkEDtLfB7TLs
QKzbFEF6qcXB0la4QEBwHEEAwsDBL6DLQKgJW0DmM4PBzqmSQDQrakAti4PBX6qoQEMJAEDTCoTB
j5FEQHsXiUApFt7BLhGIQCqaZ0Dtp9TB3OoxQHLrjkB5+8/BxhNNQKy/W0D4r4vB9ZJgQMigXkB1
b6fB/k/SQKJojL/afrHBMjW0QFKC87/BOKzBoiXPQFrbmT4W5bDB8bOSQKmJp7+AbabB9PutQOKK
bD8T8arBhRePQAjruj3BxKXBxW+wQD3S6kDovsrBpkLFQK3280AF+8DBnrWeQDrYwUC2QczBdrG3
QJRJrkATWLvBqKWKQCo4T0CEq5jBb6/WQJMMkEBgGKrB7TqqQPg5RUALU7XBktnYQJanQkADoqbB
AJetQJjIHUA3Q6rBq/HXQF/kD0GP2r7BggWvQKbhSkD2yIbBBsNkQLzDj0C/0dXBOmPIQEpt1UC1
abnBRt6iQK52pEAzeMTB+KBLQJoHXUAo+JPB1tCJQPiRQkBnu6PB9g28QHtAjkCt57PB2LawQFBF
TUCJppLBtqjnQDOOsD8i3ZbBuyYAQXJuc0BhKpXByxKJQK1auEBfo9XBCRxbQNa/FD+pJ6DBrwmt
QHByBEEhe9LBPWbgQJAbNECtnJjBlOjrQFS1xr/VA7bBIcu2QL2bPsDbnazBblPmQFyXaT/JB7XB
vfB2QDyF97/jb6LBjXHHQMTmo0BO6KPB8sf2QGirnEA826vBfyG9QIKTIECAKrvBILCIQPMWSEAX
+LfBi0TzQOiqIUDju6rBR3HmQAwtEEEN1rbB/I7wQIZ2E0HA4sTB3Gu+QAT7G0FrS7/BvoXOQDJC
OEBYn4PBmGumQCVOhUDhuYPBItuWQMoCHEB+NoTBDg5FQI+4i0BpnN3BzzmJQDXtakBAj9TBiW00
QCJhj0D8a8/BfxtSQN85ZUChE4zB90heQHh1U0BtnafBBwiLQOTAk7/dN6jBRHGpQM+s6L9bjq7B
dPiNQIiEbT74oabBAe7KQGsVjL8QUrPB7a2vQOZeez9jUqvB52TOQGS+lj4nw7HBiZasQEsa50Ar
hcvB/aOcQEUvvUDgNczBfCPCQOPR80AZI8LBknO4QMQRr0CDQ7vB1XSLQBzdS0BRZ5jB2LHXQPXY
kkCwjanBL9KrQO47SkDizbTBNOvaQL5vR0BRJ6bBm2GwQNrSIEATBKrBaYSAQK0Gr0D/ZdXBj++t
QP4PPUDza4bBB4HpQHRoFEHhTbjBsrqiQL1SokDpD8TBzCjIQIsh10DHHrrB8HhMQHi1WUAb55PB
p7SLQNq0QUAWd6PBZUO8QKT5kEC7SbPB7uSwQNRlSEBHMZLBnfPrQBtkuD8XkJbBuBH/QBzseUC3
PZTBCE3OQPMcD0FCP8HBXR/vQKY2bz/QsrbBk1mmQLuXAUGumNPB+7XhQHoqN0CzEZjB2aJiQDEj
278CjqTB3RanQIScOMDHxK/BEptsQIoAPD9lyaHByi7iQCLbzb8VN7jBp5jIQDdEpkA7QqPBgXP3
QIcIoECbb6vB4dq+QB7bJ0Dp1LrB8BGKQDuGS0BFTLfBFQP2QPJFKECoM6rBvyFpQNKAjkAN2dPB
/JhKQDEgxUBdLtbBgjqTQLQor0Ah2tzB4WfNQAVmKkBjPoPBlcujQCCXeUAFtoLBFWeWQA3OCkCg
loTBhOrwQDucJUHbd7jBjPPYQDR6EEFryrDBvbEDQSQrC0FY1bjBkHVRQNHLYED4+YvBCwxiQFLJ
UUDIZafBkN7OQIRpfL/Lu7PBZvStQGrm5b/0s6/BvBTPQGhCxz7LhrHBcFmNQEJ3nb/WbanBrFKu
QFCAfD9oQavBYxyNQDi7Fz7pKqfBfsepQMaK50BYPMvBqjCcQArfvEBWL8zBaxDAQOwb9ECB8cHB
RYm5QP5urkBPabvBag2LQN+MTUAAOZjB0W7XQI5GkkB6hanBoRGrQD33SUBpvbTBSdHZQA0HRkBS
LabBObKuQM9BIUBo3qnBJH9/QPxWrkAOR9XBOD2uQI/bO0DYXobBKgLnQA2tFEE2GrjBIHykQJ5n
oUAtScTBZwnIQDTl1kBAJrrB1PhLQBlPWkBsl5PBS9KKQJvKREBjT6PBWma8QFyhkECyU7PBrsiw
QBWpSEDKHpLBVGvpQDKvsD8YzJbBGOr/QDshdEC3WJTBWcPKQLBqD0Gq2cDBfK1YQGSaHT/FKaHB
x8egQFsrAkEY/dLB+v7gQK00NED1J5jBHAXoQCnctb/0h7jBva6tQESvNsA7bLHBepXoQLyegD/H
pbTBG2VoQL8O7r/lTqbBk0vIQBnTpUD9QaPB8233QGoWn0AHT6vBJvy9QPwvJkCMqbrBwXKJQEx0
TEDjU7fB8VH0QFPXJUDEV6rBzy9rQCQajUC34dPBm8tGQEUhw0DNttXBHJGRQFE6sEAi2tzBrHjN
QP8vJkAIWYPBf4ylQFmbeEB/fYLBucyVQLFLC0CBkITByR/tQBYCJkGJELjBbv/XQIP6D0E/f7DB
+LcCQYcLDEFcE7nBwoNRQIePX0ANpovBgRBhQGrOV0D+M6fB

>  <OMEGA_E>  (36) 
4ONIPpAfVj5AUVs+FH3IPjh30j4=

>  <OMEGA_NBR>  (36) 
    126712

$$$$
50491820
     RDKit          3D

 50 53  0  0  1  0  0  0  0  0999 V2000
    6.6997   -1.0502  -22.1265 C   0  0  0  0  0  0  0  0  0  0  0  0
    5.7624   -1.8564  -21.4690 C   0  0  0  0  0  0  0  0  0  0  0  0
    5.5527    0.9811  -21.3224 C   0  0  0  0  0  0  0  0  0  0  0  0
    6.6043    0.3505  -22.0653 C   0  0  0  0  0  0  0  0  0  0  0  0
    4.7110   -1.2646  -20.7555 C   0  0  0  0  0  0  0  0  0  0  0  0
    4.5919    0.1343  -20.6804 C   0  0  0  0  0  0  0  0  0  0  0  0
    5.4503    7.3473  -25.3945 C   0  0  0  0  0  0  0  0  0  0  0  0
    6.0570    7.6710  -24.1619 C   0  0  0  0  0  0  0  0  0  0  0  0
    4.9549    6.0435  -25.5848 C   0  0  0  0  0  0  0  0  0  0  0  0
    5.7109    5.4834  -23.4443 C   0  0  0  0  0  0  0  0  0  0  0  0
    6.8092    3.1805  -19.1748 C   0  0  0  0  0  0  0  0  0  0  0  0
    4.3891    3.2613  -19.1435 C   0  0  0  0  0  0  0  0  0  0  0  0
    6.7185    4.6109  -21.2747 C   0  0  0  0  0  0  0  0  0  0  0  0
    5.3359    3.1380  -22.6332 C   0  0  0  0  0  0  0  0  0  0  0  0
    6.7621    3.1918  -20.7015 C   0  0  2  0  0  0  0  0  0  0  0  0
    5.4700    2.5359  -21.2428 C   0  0  2  0  0  0  0  0  0  0  0  0
    6.5516    9.0731  -23.8863 C   0  0  0  0  0  0  0  0  0  0  0  0
    5.6272    3.2388  -16.9726 C   0  0  0  0  0  0  0  0  0  0  0  0
    3.6088    4.4486  -26.7850 C   0  0  0  0  0  0  0  0  0  0  0  0
    6.1689    6.7317  -23.2034 N   0  0  0  0  0  0  0  0  0  0  0  0
    5.1005    5.1373  -24.5992 N   0  0  0  0  0  0  0  0  0  0  0  0
    5.8727    4.5048  -22.4914 N   0  0  0  0  0  0  0  0  0  0  0  0
    5.6115    3.1761  -18.4505 N   0  0  0  0  0  0  0  0  0  0  0  0
    4.3213    3.0639  -20.4406 N   0  0  0  0  0  0  0  0  0  0  0  0
    3.2027    3.5183  -18.4697 N   0  0  0  0  0  0  0  0  0  0  0  0
    7.8976    3.2653  -18.6171 O   0  0  0  0  0  0  0  0  0  0  0  0
    4.3077    5.7212  -26.7674 O   0  0  0  0  0  0  0  0  0  0  0  0
    7.5414    1.0561  -22.7439 F   0  0  0  0  0  0  0  0  0  0  0  0
    3.7975   -2.0483  -20.1388 F   0  0  0  0  0  0  0  0  0  0  0  0
    3.5274    0.6095  -19.9927 F   0  0  0  0  0  0  0  0  0  0  0  0
    5.3193    8.2775  -26.3679 F   0  0  0  0  0  0  0  0  0  0  0  0
    7.5024   -1.5086  -22.6851 H   0  0  0  0  0  0  0  0  0  0  0  0
    5.8493   -2.9320  -21.5117 H   0  0  0  0  0  0  0  0  0  0  0  0
    6.2699    5.3072  -20.5508 H   0  0  0  0  0  0  0  0  0  0  0  0
    7.7304    4.9545  -21.5353 H   0  0  0  0  0  0  0  0  0  0  0  0
    5.9223    2.5630  -23.3650 H   0  0  0  0  0  0  0  0  0  0  0  0
    4.2819    3.1637  -22.9468 H   0  0  0  0  0  0  0  0  0  0  0  0
    7.6372    2.6592  -21.1022 H   0  0  0  0  0  0  0  0  0  0  0  0
    6.9612    9.1243  -22.8667 H   0  0  0  0  0  0  0  0  0  0  0  0
    7.3376    9.3335  -24.6105 H   0  0  0  0  0  0  0  0  0  0  0  0
    5.7159    9.7820  -23.9816 H   0  0  0  0  0  0  0  0  0  0  0  0
    4.5946    3.2247  -16.5935 H   0  0  0  0  0  0  0  0  0  0  0  0
    6.1756    2.3723  -16.5748 H   0  0  0  0  0  0  0  0  0  0  0  0
    6.1233    4.1662  -16.6503 H   0  0  0  0  0  0  0  0  0  0  0  0
    3.1370    4.3023  -27.7679 H   0  0  0  0  0  0  0  0  0  0  0  0
    4.3245    3.6347  -26.5972 H   0  0  0  0  0  0  0  0  0  0  0  0
    2.8353    4.4444  -26.0029 H   0  0  0  0  0  0  0  0  0  0  0  0
    3.4654    3.2755  -20.9125 H   0  0  0  0  0  0  0  0  0  0  0  0
    2.3385    3.5478  -18.9721 H   0  0  0  0  0  0  0  0  0  0  0  0
    3.2123    3.6740  -17.4819 H   0  0  0  0  0  0  0  0  0  0  0  0
  1  2  2  0
  1  4  1  0
  2  5  1  0
  3  4  2  0
  3  6  1  0
 16  3  1  6
  4 28  1  0
  5  6  2  0
  5 29  1  0
  6 30  1  0
  7  8  2  0
  7  9  1  0
  7 31  1  0
  8 17  1  0
  8 20  1  0
  9 21  2  0
  9 27  1  0
 10 20  2  0
 10 21  1  0
 10 22  1  0
 11 15  1  0
 11 23  1  0
 11 26  2  0
 12 23  1  0
 12 24  2  0
 12 25  1  0
 13 15  1  0
 13 22  1  0
 14 16  1  0
 14 22  1  0
 15 16  1  0
 16 24  1  0
 18 23  1  0
 19 27  1  0
  1 32  1  0
  2 33  1  0
 13 34  1  0
 13 35  1  0
 14 36  1  0
 14 37  1  0
 15 38  1  6
 17 39  1  0
 17 40  1  0
 17 41  1  0
 18 42  1  0
 18 43  1  0
 18 44  1  0
 19 45  1  0
 19 46  1  0
 19 47  1  0
 24 48  1  0
 25 49  1  0
 25 50  1  0
M  CHG  1  24   1
M  END
>  <OMEGA_C>  (37) 
MmTWQBBthr8SA7HBfWW4QOed7b+QwKvB/K+xQBAnez9blKrBrFbTQHZvsz7LhbDBzcCWQOXeob8w
C6bB3vCSQMd9CT6DcaXBJWmuQGQd60D6J8vB1dLBQL149UCLS8HBTI6eQIVkwUCqrczBYb+2QCF4
r0ACjrvByeTZQB+OS0DpZZnBUnOMQEK5UED1JZnB3f3WQLCMk0B9MqrBD8CqQEPUSEDIELXBaGPY
QAZHTEC3nKXB9AmvQKxMIkBW8anB8abRQIkrEUE6F7/BvBG0QElJT0Dqx4fB3vVmQCJbjkC4R9bB
tmfFQCtq10CgoLnBVDejQLVkpEAvy8TBGe27QAgnkEB27rPBfJGzQAhGS0CkmpPB50eKQCAXREBa
hqPBPPhMQFAsYUDiwZPBb7n8QLj6UEDe75TBnNiJQCwUt0C1I9bBflPxQFcthz9o87XBpglzQJgX
A8BGHKHB8MBhQAoJHD8j8Z/BxDeqQJlwBEFe8dLBxhPwQNIYwb8Fe7XB3S27QGKmO8DeF6zB96LI
QLvUqUATaKTBmF/3QJ6LnkA9SKzBMIO9QHsHJECd67rBYAWJQNd6SkADk7fBAWT0QLIvKkA10ajB
E8LeQP78EUEH77bBs83qQN5VFUFh4sTBlOi2QPmCHEFd2r/BUAeTQN5hTkCRv4TBSJ7FQCLTF0Ai
mYTBBPLDQIlRhUDeM4XBqcRIQNmsiUCoJN7BRmKKQDafaEAXx9TBx3Q1QM04jkD8BdDBMsldQP2g
UUDmTKfBjKoVQEoPY0DbxpfBupVNQEgia0Dv2ovBhISVQDhXob+vfqbBtpO3QJfa7L8bCqzB52Cx
QNmFfD8toKrB1M2RQNMPDT4p06XB/CPWQM9whb/bFrHBblHTQEDwtz71erDB8p2uQFa/6kB6QMvB
LP7BQEJT9UBPZsHByqSeQHQLwUCFtMzBMvO2QJJyr0DakLvB+NvZQDfQS0AVU5nByW2MQDZJUEBW
D5nBUgvXQOOwk0CcJarBiaWqQEk/SUDmALXBV1zYQDCRTEBki6XBmPSuQLidIkBJ5KnBdC/RQNoz
EUGOMb/BXyu0QAomTEB4sofBBjdmQEwGjkCQLdbBFpjFQCxu10CrsLnBNU+jQBo4pEAvyMTBRSq8
QDE5kEC96rPBU5CzQMRySkAqh5PBX0KKQB48REDLcaPBNA1NQG5wYUDXrJPBSqT8QEHhUUAl2pTB
mrGJQKWftkASINbBt8ZdQKwDHD9IqaDBwmX2QPorz7+DpLbBj4PxQENKiT96yrXBI32qQJEnBEH4
FtPB7Kt7QDCK8b/FsKLB4Ue6QFVEO8AobKzBv5DIQI//qUC8YaTBrHb3QOevnkDoMazBDSi9QOwc
JEAi4LrBHeGIQAppS0BOebfBclf0QMhgKkC1vqjBT+fdQGwoEkGBALfBrn7qQLl5FUGX7MTBzjW2
QNlgHEFKDcDBqieTQH2ySkBppoTB0LnFQMsOFEDBsYTB+xbEQGJ6g0B38oTBg6lHQG89iUDrA97B
M+aJQFrIZ0A7qtTBMvU0QF4sjkAO5M/BRchdQPggUkB4NafBKdgVQMQ8ZED6tJfBfalNQLf+akDk
w4vB3LbVQETtcb8HG7LB3/q0QCAI4L/Q+63BXeayQHmwiD8ktqrBxBjVQKRP5D4YiLDBTveSQDsg
lb9xXqjBLzWRQJjGZz5B2KbBc+mpQKch5UCBg8zB5kibQG6zukDOuszBGSK/QBUj9ECzS8PBts23
QBg8sEDwpbvBCvfZQMrGTkDRvpjBylqMQMC1UUAL7JjBzGjYQCvklkBSpanB+JOtQObHTUD+jrTB
vNbZQLbsUUCEA6XBdQuxQJCHJ0DrjqnBgVCAQC7pqUDT3dXBoguyQIZwRkB5XofBAGbfQAC7FkFM
WbnBnVOiQE9xoUCdTcTBMw7GQK0P2UBJ8rrBOBG9QOQjk0CLarPB/AezQEgyUEBRKJPB/q2LQJjP
SEDZWaPBjYxKQH5+WkCrv5PBWGD8QGIRS0B6D5TBzgvLQDZkD0FxCsPBAHP1QH+fkz8pBLXBJZpm
QI8k+b+qdaTBfQZcQLYhND/60KHBw9qiQJ11/0CY6tTBoqTvQCbHsr+ih7bBQe+1QBSANMDFIK/B
CRHKQJk1rUCv3KPBfsD4QFrsoUC2wavBtZvBQPQrKkCUQ7rB3ySMQBwpTUBST7fBoDr2QHp/MED3
HKjBIq1rQEQYiUCUDtTBtD5IQIePvkAe7NbB/1+TQD/hqUDEQ93BbbqQQIpOSUBhjYTB3RrAQMhj
CEBAJoXBPZXEQBNgekDlpoPB3UrnQBLQJ0GYHrrBkoTJQFlxFEEUjbLBoub8QJyGDUFF/LfB/ipi
QKfxWEADUafBGjMUQFTfWUDy+JfBgp1IQPlwYUC2zIvBk5OTQFIRl78UmajBAfS1QJZq3r8wPa7B
q86xQOvCiT+P5arBtM6QQOB4VT75BKfBWc/VQHyzZ79qd7LBFxLUQCCC+D6m4rDB0furQGPL5ECK
vczBD9ydQKsvukDsDs3BUs+/QAUZ9EDgW8PBO+u3QDxJsEBkt7vBFKrZQKpHTUCW2JjBHSeMQJpW
TkAdl5jBcoDWQGMrl0CYhKnBs6KqQH61T0BnarTBx3PYQMQVUkC7F6XBpVevQPrOJ0CDiKnBw8aD
QDsnqUCGU9bB24GzQAwjRUDiQofBIzjgQMatFkHtZ7nBC+yjQPEgoUDljMTBzOHFQKkt2UBi8brB
R3m7QGaqk0DkVbPBdEKzQN7vR0DmFZPBiWqKQOonR0DxBqPBks5LQDKoWkBCJpPBQXT8QNJvTkBl
UZTBJurKQNF5D0Gn/sLBBoVaQPokKD+Q/aHBzTP2QDLJuL9JNbjB1UXzQDPonD+7j7XBFcSlQDsG
/0DOM9XBJth1QBKW6b8RbaXB4+a3QHCqM8ANVK/BwbPHQDfjrEDuqaPB5rv2QMjMokABiKvBJza9
QFSsK0B7YbrBEMeIQDYqUUDE0LbBcKL0QLlLMUDUaKjBXBByQCBtiECeg9TBEYNPQCLWvUB9mtfB
6ZOXQI/SqED0md3BrW6SQBIDQUBeS4TBzp/FQGXHDEBVj4TBRqnCQJ+Jf0CjIYTBc1PnQPLcJ0FP
FbrBbFTLQG3tE0E/dbLBpj7+QG+7DUFkXbjByapeQLNGV0AnyKbBrbIUQMrBXUDgMpfBrdNLQJpt
YECaLovB

>  <OMEGA_E>  (37) 
oGNjPQARZz1w540+kKCOPg==

>  <OMEGA_NBR>  (37) 
    138049

$$$$
50491826
     RDKit          3D

 50 53  0  0  1  0  0  0  0  0999 V2000
    5.7163   -1.7916  -21.4354 C   0  0  0  0  0  0  0  0  0  0  0  0
    6.6634   -0.9980  -22.1070 C   0  0  0  0  0  0  0  0  0  0  0  0
    4.6787   -1.1843  -20.7041 C   0  0  0  0  0  0  0  0  0  0  0  0
    6.5749    0.4023  -22.0456 C   0  0  0  0  0  0  0  0  0  0  0  0
    4.5860    0.2170  -20.6394 C   0  0  0  0  0  0  0  0  0  0  0  0
    5.5385    1.0275  -21.3074 C   0  0  0  0  0  0  0  0  0  0  0  0
    5.4389    7.3510  -25.4004 C   0  0  0  0  0  0  0  0  0  0  0  0
    6.0458    7.6796  -24.1692 C   0  0  0  0  0  0  0  0  0  0  0  0
    4.9480    6.0455  -25.5860 C   0  0  0  0  0  0  0  0  0  0  0  0
    5.7426    5.4820  -23.4606 C   0  0  0  0  0  0  0  0  0  0  0  0
    6.8103    3.1802  -19.1831 C   0  0  0  0  0  0  0  0  0  0  0  0
    4.3799    3.2334  -19.1414 C   0  0  0  0  0  0  0  0  0  0  0  0
    6.7425    4.6066  -21.2849 C   0  0  0  0  0  0  0  0  0  0  0  0
    5.3602    3.1390  -22.6420 C   0  0  0  0  0  0  0  0  0  0  0  0
    6.7648    3.1887  -20.7094 C   0  0  2  0  0  0  0  0  0  0  0  0
    5.4663    2.5561  -21.2427 C   0  0  2  0  0  0  0  0  0  0  0  0
    6.5512    9.0801  -23.9062 C   0  0  0  0  0  0  0  0  0  0  0  0
    5.6392    3.2410  -16.9770 C   0  0  0  0  0  0  0  0  0  0  0  0
    3.5625    4.4650  -26.7552 C   0  0  0  0  0  0  0  0  0  0  0  0
    6.1890    6.7348  -23.2190 N   0  0  0  0  0  0  0  0  0  0  0  0
    5.1115    5.1385  -24.6047 N   0  0  0  0  0  0  0  0  0  0  0  0
    5.9254    4.4960  -22.5180 N   0  0  0  0  0  0  0  0  0  0  0  0
    5.6121    3.1724  -18.4552 N   0  0  0  0  0  0  0  0  0  0  0  0
    4.3063    3.0478  -20.4396 N   0  0  0  0  0  0  0  0  0  0  0  0
    3.1941    3.4737  -18.4606 N   0  0  0  0  0  0  0  0  0  0  0  0
    7.8988    3.2729  -18.6268 O   0  0  0  0  0  0  0  0  0  0  0  0
    4.2964    5.7174  -26.7637 O   0  0  0  0  0  0  0  0  0  0  0  0
    5.3085    8.2760  -26.3790 F   0  0  0  0  0  0  0  0  0  0  0  0
    5.7854   -2.8684  -21.4810 H   0  0  0  0  0  0  0  0  0  0  0  0
    7.4582   -1.4651  -22.6695 H   0  0  0  0  0  0  0  0  0  0  0  0
    3.9517   -1.7963  -20.1911 H   0  0  0  0  0  0  0  0  0  0  0  0
    7.3026    1.0080  -22.5652 H   0  0  0  0  0  0  0  0  0  0  0  0
    3.7862    0.6779  -20.0788 H   0  0  0  0  0  0  0  0  0  0  0  0
    6.2801    5.3072  -20.5739 H   0  0  0  0  0  0  0  0  0  0  0  0
    7.7616    4.9452  -21.5231 H   0  0  0  0  0  0  0  0  0  0  0  0
    5.9409    2.5395  -23.3584 H   0  0  0  0  0  0  0  0  0  0  0  0
    4.3102    3.1829  -22.9668 H   0  0  0  0  0  0  0  0  0  0  0  0
    7.6312    2.6413  -21.1089 H   0  0  0  0  0  0  0  0  0  0  0  0
    6.9960    9.1272  -22.9012 H   0  0  0  0  0  0  0  0  0  0  0  0
    7.3119    9.3421  -24.6563 H   0  0  0  0  0  0  0  0  0  0  0  0
    5.7135    9.7901  -23.9699 H   0  0  0  0  0  0  0  0  0  0  0  0
    4.6098    3.2234  -16.5896 H   0  0  0  0  0  0  0  0  0  0  0  0
    6.1950    2.3786  -16.5801 H   0  0  0  0  0  0  0  0  0  0  0  0
    6.1334    4.1720  -16.6623 H   0  0  0  0  0  0  0  0  0  0  0  0
    3.0894    4.3099  -27.7360 H   0  0  0  0  0  0  0  0  0  0  0  0
    4.2548    3.6359  -26.5469 H   0  0  0  0  0  0  0  0  0  0  0  0
    2.7872    4.4999  -25.9756 H   0  0  0  0  0  0  0  0  0  0  0  0
    3.4438    3.2424  -20.9067 H   0  0  0  0  0  0  0  0  0  0  0  0
    2.3277    3.5003  -18.9593 H   0  0  0  0  0  0  0  0  0  0  0  0
    3.2062    3.6203  -17.4714 H   0  0  0  0  0  0  0  0  0  0  0  0
  1  2  2  0
  1  3  1  0
  2  4  1  0
  3  5  2  0
  4  6  2  0
  5  6  1  0
 16  6  1  6
  7  8  2  0
  7  9  1  0
  7 28  1  0
  8 17  1  0
  8 20  1  0
  9 21  2  0
  9 27  1  0
 10 20  2  0
 10 21  1  0
 10 22  1  0
 11 15  1  0
 11 23  1  0
 11 26  2  0
 12 23  1  0
 12 24  2  0
 12 25  1  0
 13 15  1  0
 13 22  1  0
 14 16  1  0
 14 22  1  0
 15 16  1  0
 16 24  1  0
 18 23  1  0
 19 27  1  0
  1 29  1  0
  2 30  1  0
  3 31  1  0
  4 32  1  0
  5 33  1  0
 13 34  1  0
 13 35  1  0
 14 36  1  0
 14 37  1  0
 15 38  1  6
 17 39  1  0
 17 40  1  0
 17 41  1  0
 18 42  1  0
 18 43  1  0
 18 44  1  0
 19 45  1  0
 19 46  1  0
 19 47  1  0
 24 48  1  0
 25 49  1  0
 25 50  1  0
M  CHG  1  24   1
M  END
>  <OMEGA_C>  (38) 
2Ou2QNVT5b+re6vBLzrVQOF7f78R27DBQ7iVQGGWl7/2oaXB2WXSQC34zT5uXbDBccCSQNY0Xj6K
HaXBazuxQJyEgz+DdarBeguuQKI760AdNMvB/nbBQFq/9UCYWsHBWVaeQLV0wUAmsMzBL8O3QD5s
r0Bcr7vB6+3ZQLmHS0DodpnBYyiMQJXwTkCCIZnBqsLXQCNpk0BiR6rBHYerQLLlSEC3IrXBHHnY
QHIUTEDzrKXB/OuuQDKXI0Aa8anBpKPRQP1HEUHQP7/Bp3S0QONsT0DY0IfBEQBkQGThjkCRCtbB
UQzGQOGD10CTwLnBp5GjQHBupEBf1sTBx5y9QBnfj0DpJLTBoJazQHkIS0BTpJPBnc2JQDsPQ0BD
hKPBUWtMQKNRXkA+r5PBrML8QL53UUDGA5XBd3yJQBP1tkAnHNbBF9+pQIJqBEEbCNPB0yG5QJiU
N8AE2avBW6nuQB2Hu788W7XBdeh8QEzu5b9Th6HBF6/pQPcFgT+QhbTBjVByQEqKLT91oaDB9vbI
QFnUqUBwl6TBDV/4QFM/nkBeL6zBQxy+QMOGIkAL3rrBPO2JQDG0S0Dwu7fB2zL0QMgKKUAa36jB
397fQAAJEkGbNbfBRPvpQHJ5FUEHQMXBCNW2QFCkHEFqwr/Bz4OTQP9MTkCWt4TBEj3GQKk7GEAd
pITBJEXEQAeBhUBRTIXBkLhFQBHriUBm493BEyeIQMCyaEAiYNTB/WAyQP/+j0Afzs/B6mdcQASD
T0D6QKfBX/kUQDUEYEC4rJfBsTJNQNWyZ0CCxYvBF9G1QH2w5b9IpavBAUiUQOWKl7+e8KXBTM/U
QJ12gL8tzLDBVa6RQF6jXj7xV6XBLGzSQENdyz6HM7DBr/GwQKo+gz/IbarBBL+vQCDe6kCCWMvB
x1fDQK4m9UBqgcHBVPeeQKB0wUBPxszB4ci2QF6Tr0DDnLvBohLaQJIrTECSf5nBm06MQMBRTUDp
A5nBXGPXQICHk0D5VarB/RurQGTbSECYFLXB60fYQCJdTEAptKXBVrKuQGR6I0B256nBBBHUQCPi
EEEgZL/BuQi1QEZSTUAqyYfBvw9lQCBCj0AlQNbBsk/GQFhG10Aux7nBa/aiQKKepECx0sTB7W+7
QBhzkECj6LPBAOmzQPrFSUA4nJPBzbuJQErQQkAra6PBp/JMQD9YW0CYdpPBteH8QPMsVUADHpXB
yhaKQA9Kt0CUONbBY0KsQMQ3BEGsM9PB58K3QJTFN8DUEazBpPR4QJ+R5b80AqLBdXDuQOuSvL8V
NrXBiIZvQNVLLj9p/qDBy0jqQKUPgD8mLLTBTPrJQJ8zqkCnf6TBCsr3QLLYnUA3nKzB1by+QKtU
JEBXyLrBCZ+JQIMvSUCEyrfB+PvzQPJqKUBj7ajBJTLhQAW0EUGKPLfBb2LtQIWzFEH7MsXBisi5
QEp6HEG6M8DBbjCUQLuzSkBUo4TBGWzHQAqXFkAItITBoFbEQOunhEAJOYXBJc5GQM2eikCBHN7B
QKGIQK8/aUDWpNTBWGkzQEIvkEAeBNDBzVBcQP42UECWHafBkz0VQG0lXUArZZfBUidOQEOlY0BC
iIvBaHayQPE+2799DK7BLwaRQPAtjr8PQKjB2QrUQNBBbb9aHrLBmOKQQKycjj6rj6bB8kHUQAjb
6z5NXrDB7JuyQMBiij/8l6rBWEaoQFn15UBGGczBb4+bQDHyukBMo8zBtsG8QBPM9EDtxMLB7oW4
QP7Br0Dco7vBNDXaQOq5TEB745jBUWiMQFxYT0BaCZnB7TDZQM3alUD+vqnBtaeuQKgSTEC2rrTB
8iDaQFDDT0COJaXBLB+xQOHHJkCWn6nBsj+AQFROqkCVudXBgLiyQOwfSUAlfIfBa83gQDy2FkES
cLnBNtajQF0EoUDxacTBoArFQJcT2UAUo7rBq8S9QGNhkkABe7PB/TWzQNy8SUCVUZPBkFaLQLDv
RUC3c6PBV6RLQIqsXUAw1ZPBdJT8QKxfTkDwKpTB/2LFQCQQEEHRFcLBwB+gQECDAEE4StTBZ1ey
QBTsMcA/YK/BFspuQLvo27/BFqXBpaXtQJbfsb8vlrbB/PJtQFmRPD8hLKLBzD/uQLKkhz+mcbPB
7SLLQKFKrEBl8qPBSqH5QCKOoEAD36vB6WPDQP9kKECmOLrB64aNQMrhSkBAp7fBVUn2QNKgLUAO
QqjB93ZtQFAWiUBRDNTBs/RGQP5VvkDChNbB+qySQHlnq0DAN93Bn3CRQNqqRkCoooTBVy/EQCmu
EECLjYTBOS/CQB/JgUAQd4TBDjflQGcpKEFqwLnBxRHSQNlHEkFJwrHBJQgAQRLEDkFwMrrBM8Fg
QLARVEDsYafB0DcVQMZ5YEARB5jB33lKQJgxZUC344vBaKWzQLjt2b/0K67BJ2bUQMahZb+BabLB
1QmSQIEWj7+VUajBnsTTQNCM+z7rtrDB+wSRQNSNiz6rsabBsCGyQOTtiz+rzarBZmGrQD4M5UAT
gszBLXacQNy0ukC7wszBfFvAQGbk80BkPMPB6LG3QLY9sED3jLvBpvvZQCrnTEAg65jBtDSMQJg3
TUCi2pjBX+LYQNoXlkCYyKnBNFetQMwKTkBxkLTBI4nZQIQlUECmLqXBZFawQHpuJ0B4nanBnWeB
QKIqqkCq6NXBCROzQNCXQUBddofBOxXhQItfFkGENrnB/c6iQMt5oUASTMTBXH7GQBja2EAB2brB
k2+7QHaPk0DYLbPBNT6zQDLURkBxRpPBhbaKQNZ+RUBqSaPBuclLQHReWkB4eJPBe2n8QLBtUUAW
QZTBM6LMQLc2D0F57sLBJ7ykQGx5/0CR6dTBQEm0QD5cMcCbaK/BtgPuQMs1rL9G+LbBqeZxQHal
3r+cEKXBcRntQLuLjT+N77PB18ptQIyfNz/US6LBMKTMQJLerEAW0KPBRST5QCvnn0DOT6zBpGvC
QFcYLEDpMLrBWzSMQFfAS0D1hLfBW4X1QF6zLUBDVqjBPJ1sQHqWiUAoENTBPDdLQA1Jv0CECdfB
mKCUQDGcqUCNR93BEeORQI9APUB7lITBk+/EQMB7CEC354TBXUnCQC4me0AGHYTBQkfpQHVtJ0HK
8LnBvyLLQK0dFEEWbbLB+Gr+QOMGDUFX3bfBMjFfQA4pVEBUHqfButwUQEimXUBvjpfBbIlLQBuP
YEAWgovB

>  <OMEGA_E>  (38) 
4PM5PQCHPj3o8YQ+IIuFPg==

>  <OMEGA_NBR>  (38) 
    145433

$$$$
