50225010
     RDKit          3D

 52 55  0  0  1  0  0  0  0  0999 V2000
    3.5807   -4.4430  -19.9329 C   0  0  0  0  0  0  0  0  0  0  0  0
    4.9480   -4.7769  -19.8462 C   0  0  0  0  0  0  0  0  0  0  0  0
    2.9246   -3.8449  -18.8391 C   0  0  0  0  0  0  0  0  0  0  0  0
    9.2669   -1.2767  -19.3434 C   0  0  0  0  0  0  0  0  0  0  0  0
    5.6605   -4.5208  -18.6618 C   0  0  0  0  0  0  0  0  0  0  0  0
    3.6324   -3.5962  -17.6525 C   0  0  0  0  0  0  0  0  0  0  0  0
   10.3299   -1.0411  -20.2291 C   0  0  0  0  0  0  0  0  0  0  0  0
    7.2889   -0.2129  -12.9838 C   0  0  0  0  0  0  0  0  0  0  0  0
    8.9317    0.5013  -21.5084 C   0  0  0  0  0  0  0  0  0  0  0  0
    8.1444   -0.2339  -14.0987 C   0  0  0  0  0  0  0  0  0  0  0  0
    6.0120   -0.7889  -13.1016 C   0  0  0  0  0  0  0  0  0  0  0  0
    8.0217   -0.6403  -19.5540 C   0  0  0  0  0  0  0  0  0  0  0  0
    7.8554    0.2478  -20.6398 C   0  0  0  0  0  0  0  0  0  0  0  0
    4.9972   -3.9442  -17.5602 C   0  0  0  0  0  0  0  0  0  0  0  0
   10.1606   -0.1571  -21.3113 C   0  0  0  0  0  0  0  0  0  0  0  0
    6.4955   -1.3598  -15.3044 C   0  0  0  0  0  0  0  0  0  0  0  0
    6.8671   -0.9374  -18.6918 C   0  0  0  0  0  0  0  0  0  0  0  0
    6.5204    0.9427  -20.8427 C   0  0  0  0  0  0  0  0  0  0  0  0
    5.3662    0.0314  -20.3451 C   0  0  0  0  0  0  0  0  0  0  0  0
    4.0580    0.8410  -20.2793 C   0  0  0  0  0  0  0  0  0  0  0  0
    5.1641   -1.1801  -21.2912 C   0  0  0  0  0  0  0  0  0  0  0  0
    5.7796   -3.4922  -16.3652 C   0  0  0  0  0  0  0  0  0  0  0  0
    6.0260   -1.9915  -16.5650 C   0  0  2  0  0  0  0  0  0  0  0  0
    7.7377   -0.8124  -15.2413 N   0  0  0  0  0  0  0  0  0  0  0  0
    5.6311   -1.3428  -14.2646 N   0  0  0  0  0  0  0  0  0  0  0  0
    5.6768   -0.4583  -18.9807 N   0  0  0  0  0  0  0  0  0  0  0  0
    7.0355   -1.7974  -17.6228 N   0  0  0  0  0  0  0  0  0  0  0  0
   11.4746    0.1110  -22.4200 Cl  0  0  0  0  0  0  0  0  0  0  0  0
    3.0342   -4.6468  -20.8418 H   0  0  0  0  0  0  0  0  0  0  0  0
    5.4479   -5.2294  -20.6899 H   0  0  0  0  0  0  0  0  0  0  0  0
    1.8806   -3.5785  -18.9133 H   0  0  0  0  0  0  0  0  0  0  0  0
    9.3995   -1.9423  -18.5033 H   0  0  0  0  0  0  0  0  0  0  0  0
    6.7106   -4.7647  -18.5964 H   0  0  0  0  0  0  0  0  0  0  0  0
    3.1331   -3.1389  -16.8111 H   0  0  0  0  0  0  0  0  0  0  0  0
   11.2773   -1.5378  -20.0803 H   0  0  0  0  0  0  0  0  0  0  0  0
    7.6063    0.2371  -12.0547 H   0  0  0  0  0  0  0  0  0  0  0  0
    8.8160    1.1991  -22.3246 H   0  0  0  0  0  0  0  0  0  0  0  0
    9.1255    0.2134  -14.0372 H   0  0  0  0  0  0  0  0  0  0  0  0
    5.3379   -0.7862  -12.2578 H   0  0  0  0  0  0  0  0  0  0  0  0
    6.5106    1.8853  -20.2758 H   0  0  0  0  0  0  0  0  0  0  0  0
    6.3801    1.1567  -21.9125 H   0  0  0  0  0  0  0  0  0  0  0  0
    3.2424    0.1927  -19.9265 H   0  0  0  0  0  0  0  0  0  0  0  0
    4.1831    1.6840  -19.5839 H   0  0  0  0  0  0  0  0  0  0  0  0
    3.8139    1.2250  -21.2808 H   0  0  0  0  0  0  0  0  0  0  0  0
    4.3421   -1.8067  -20.9149 H   0  0  0  0  0  0  0  0  0  0  0  0
    4.9176   -0.8195  -22.3008 H   0  0  0  0  0  0  0  0  0  0  0  0
    6.0895   -1.7735  -21.3296 H   0  0  0  0  0  0  0  0  0  0  0  0
    5.2045   -3.6658  -15.4437 H   0  0  0  0  0  0  0  0  0  0  0  0
    6.7361   -4.0324  -16.3078 H   0  0  0  0  0  0  0  0  0  0  0  0
    5.0812   -1.5206  -16.8739 H   0  0  0  0  0  0  0  0  0  0  0  0
    4.9727   -0.4240  -18.2714 H   0  0  0  0  0  0  0  0  0  0  0  0
    7.8883   -2.3162  -17.5633 H   0  0  0  0  0  0  0  0  0  0  0  0
  1  2  2  0
  1  3  1  0
  2  5  1  0
  3  6  2  0
  4  7  2  0
  4 12  1  0
  5 14  2  0
  6 14  1  0
  7 15  1  0
  8 10  2  0
  8 11  1  0
  9 13  1  0
  9 15  2  0
 10 24  1  0
 11 25  2  0
 12 13  2  0
 12 17  1  0
 13 18  1  0
 14 22  1  0
 15 28  1  0
 16 23  1  0
 16 24  2  0
 16 25  1  0
 17 26  2  0
 17 27  1  0
 18 19  1  0
 19 20  1  0
 19 21  1  0
 19 26  1  0
 22 23  1  0
 23 27  1  0
  1 29  1  0
  2 30  1  0
  3 31  1  0
  4 32  1  0
  5 33  1  0
  6 34  1  0
  7 35  1  0
  8 36  1  0
  9 37  1  0
 10 38  1  0
 11 39  1  0
 18 40  1  0
 18 41  1  0
 20 42  1  0
 20 43  1  0
 20 44  1  0
 21 45  1  0
 21 46  1  0
 21 47  1  0
 22 48  1  0
 22 49  1  0
 23 50  1  6
 26 51  1  0
 27 52  1  0
M  CHG  1  26   1
M  END
>  <OMEGA_C>  (1) 
+iplQF0tjsCDdp/BPVaeQIDcmMAJxZ7B0iw7QGoSdsCUtpbBSkUUQY5ro79bv5rBHCO1QKmqkMBh
S5XBWHloQIInZsBnOI3BbEclQWxChb8m1aHBrD7pQHT2Wb6pvU/BEugOQSpTAD86EazBok8CQQyE
b740lGHBemLAQHf3Sb8roFHB1VgAQd/pI7+hbpzBoF/7QMS3fT5RHqXBLumfQGJtfMAye4zB6JEi
QVzYIL6LfarBZNvPQNIOrr/N3nTBbr/bQJH5b7+1iJXBhafQQK1ScT/WvabBPbirQODDAD2uwqLB
/9qBQIxKVz8TPKLBo0ClQAwMl792VKrBUvK4QIx/X8Dw64LBTNXAQOrq/r8WhYTBlJv3QB37T79G
3HPB5DG0QPjfq7/SO2TBNqi1QBKo6r5z2JfB7SLhQCYQ5r99+4zBIpg3QVA/4z07XLPBkC9CQKay
lMD0u6bB3FSuQHlXp8DmhKXBYbfwP5AGZcBcTpfBhWQWQQSe+L/QBpTBWL3WQEZ4mMB7xZTBS4RI
QHLkSMAjfYbB9W80QRnWxL9zpKDBmmbzQNHQcj4k4EDBTw4NQaB6mT+5mLLBIgISQWGOWj6PmGDB
MtCqQGBGSb8GIETB6VbQQM1Q8T/NNKLB+SnMQIwPlD/NTK/B0oJPQGJTRT55aZ/BQ9yFQKKM1z+8
q5zBXRZ0QInMnD8WP6rB0PKKQOpC57/RUafBJF2dQHDMUb8TaLLBT93CQOMC478Uo6rBa4umQG6c
asBuGXfB5I3XQDIJgcBbdoLB/piiQAajwr/Q/YbBKCCfQCYW2b7hK5LB+2z8QBA9FMC5gYzBS+Jk
QOWrjsA/a5/BnEueQE0BmcBtyp7BOwk7QJhwd8AoopbBR1YUQQKNor/T9JrBSE+1QHh9kMBbXJXB
RbloQMQJZ8AMLo3BESIlQcNChb/jL6LBlhPqQCWOzL4Blk7B7ZkOQfRJAz8MOqzBHw/AQJRqX7/y
R1HBS88CQV+hxr79XGDBp2sAQRaiIL8Kf5zB/yn7QN49hz4gJqXB6S6gQF5JfMD6g4zB/jUiQRZ8
Ib4i1qrBGz7PQCDSqr/49XTBCBTcQPK5bb/FjJXBJUHQQBCRcz8fsabBDq+rQJC3yDz2uqLBY3iB
QIpSUD+IIqLBa6mlQPlbmL/kS6rB2lO5QJq7XsA7/ILBHNrAQNT+/L/blYTBjCSzQNKjqL83gmTB
Ms/3QBIxW7/jTHPBpuK1QEHq6r6Y15fBVIfhQOzG47+89YzBd9s2QeT+uT2i9bPBrqdBQEJQlcAm
qqbBbTauQON2p8DvjaXBQQzwPwsMZ8DGKpfBKZ8WQSWZ97/MPZTB9//WQBf4l8DO5ZTB+89IQMAr
SsAca4bBp0k0QXduxb+NHaHBxvn0QJsNVL0cKT/BxqMMQY+omz/atbLBMi6qQGnxYL+o50PB9OIS
QYsWhbuzz17BY8HPQAjR8T/8F6LB1pHLQKgplj85O6/Bum1PQFsBGz4KU5/BuiSFQDfB0z+OiJzB
wMJyQDWdmT9GH6rBhZiLQEDE6b8nSKfBHaKdQONSVb/cX7LBQn7DQGDw4r8emqrBGh6nQJcXasDI
LXfBExTYQHdpgMC/j4LBEp2iQD/twb+qKofBy2yfQJj+2r44JpLBBv78QJBpEsBsYozBjrRjQBw8
jsAXiJ/BaDY6QBlWdcCWzZbBVKKdQJzcmMAU4p7BPjkUQYDVpb8h0JrBGPxnQC2pZMDCXY3BWbK0
QJY1kMAVeJXBt0MlQVraiL8A5qHBJHvpQDTSgL4WPE/BfgoPQRSg8z6GMKzBzzHBQOL7Xb9E/FDB
DQICQdAIU77EX2HBdF4AQTi0Jr9SgpzBToj7QFw8aj4LQaXBnamfQGnvesB/qYzBDq0iQSzTPL6D
j6rBXczPQPATrr8UpXTBVdPbQBQVbr9ri5XBqt7QQAUUbT847qbB5dKrQFBp3Tz20qLBtRKCQLTM
Vz8/XaLBpxelQLwkmb/+QarBK7e4QFmoXsAiEYPBDLvAQNrd/L/5fYTBydW0QNVVs7/euGPB58v2
QB62Qr+Q0HPBbNG1QM7Z474x3JfBxS/hQBiY479W6ozBp+Q3QTg6vj3KTLPB4k5AQB4glcD9v6bB
gczuP703ZMCaXpfBh3OtQJOlp8APnqXB2EQWQcXt+r/FFJTBiV9IQB7ORsBlpobB91bWQHnhl8Ao
/ZTBP1s0QdFqyb9vtKDBCdbzQBwNNj6SP0DBoEANQRjFlT9Lv7LBmDCsQJMvab/2R0PBPngRQUvM
iz69f2DBgrnQQM848D/cgKLBxlPMQBgOkD+Pgq/BAtRPQDcLUD4KdJ/B+z6GQJL52D/x5ZzB5nd0
QA1hmz/oaarBpbmKQOkw6L+jKafBhyydQGo3Wb8tXrLBUpzCQJ+75b/jhKrBXEymQBhsasAkbXfB
RU7XQHCqgMDYp4LBV5eiQHaav79L8YbBJWmfQMfAyb7SKZLB/qP8QGxdEsCkWYzBcsJvQBQjjMAc
KKDB1clCQCWBdcCtaJfBWdSjQFmqlcDEPJ/BArYUQeEbhb+1FJrBO5NtQMZkZsDjto3Bb1q5QDP2
jcC1i5XBOEglQbK3Gr+S1KDBTmnoQAYppr5Guk3Bm/MKQdbaMj5W4q3BL32/QFLeYr9GRlDBMOYB
Qeitib7Pi1/BVHv+QDecVr+7N53B6Pb0QFbUqr4pbqfBw6qiQNE2esDxvozBnVQgQblKdj2pdqrB
eFnPQHOQqr+T73PByAHbQNewgb84rpXB9IzGQN/Pj74U4arBZ4CsQM3Uoz5eiqHBYki4QOoU6D9v
IaDBral4QDB0TT5Z66PBxyy6QM+0XcC65YLBsVPBQDUj+r//LoTBFHGzQGMsr78MaWPBQNz2QJDd
Rb+EaHLB0c+1QNgf3L7QepfBYQLiQFsn37/bfozBGbo0QUIXPD95PLLB7cZOQOgwksDimKfBGSn/
P1+DZsBqKJjBVfa0QMLgosCN+aXB/1kYQUsJw7/okpLBc1FLQOGZS8C+/4bB7xbbQKzqlMAI2JTB
WcQ1QUU2R7/3pJ7BE5vyQB8saD1qYj7B50AHQSxvJj8Oa7XBsMCpQD8Pbr+/20LBTZERQSaTNT6V
Fl7B5EPDQGNjtD4pB7LB8v66QJbFpb+Rr6zBFrOlQAdJD0BWepnB4qfaQESA8z+uX57B29+wQHgC
F0BQiqfBUOlTQIZBIT/NPp3BlJ1pQDoDPz9uU6vBtZdnQMIPXL/V46TBPuymQBG5asCebHfBQAzZ
QAclf8AxRILBOg6jQBIav79dvobBLACfQL5D/L5H5JHBCOP+QJTECcDhaovBfpFtQK7OicAGWKDB
QaCiQOwNlMC1mp/BXBtCQDEPccAFd5fBYdkUQXHIhr9eVJrBFcy4QFgvjcDS9pXB/TBuQJGeY8Ca
0Y3BUjclQfXXG7/FKqHBWZXgQEyv2zztPU/BXIQKQcjTIT5UEq7BYND9QPrHET2TVmDBKCq7QBhL
Pr/GJ1HBlo7+QHpbXb+CWZ3BQ370QCBNt778iKfB8t6iQF/5eMBkB43BufkfQcKIVD0dx6rBhH3Q
QAYFsr/+UnPB7nnbQLiUhr+3spXBIPnFQDwNnr4e4qrBCSusQAe2iz7fcKHBWAO4QJW54T/m0Z/B
a+d3QHT7JD7GyqPBVRu7QIuIX8CcJIPBN+3CQNjU/b87C4TBRlr1QOtDLL8sJHLBf7mzQOs0uL+5
KWPBfri1QLbXAL9chJfB2orjQMnS3r/fVIzBURk0QT22Oz+jr7LBGplLQKk5j8DXvqfBQS+zQBQu
ocD+cKbB3iL+PzXyYMDxEpjB2LgYQblPxL+71pLB5XbaQN6plMD9Z5XBoBpNQMbxSMBPAYfB68Q1
QaPnRb+HEJ/BN8LmQGKsGT+v7UDBYZkGQYwlIj8MlLXBS38NQQAYHD8AL1/BX2ikQIOeRr8tKUTB
qFTCQNtJqz6q9rHBHou6QD0+qb9Rw6zB642lQAshC0CoFZnBC2vaQAKL7D9rFp7BnHywQILwFEB6
I6fBiWRTQI+jEz/jCp3BBrNoQEcYOT9aHavBZLFmQP98Zb//5qTBGSCoQPDcbcBU53fBJMPZQID+
gMCDv4LBGcmkQEgEwb9RiYbBHaeeQJazHL+QCpLBcYoAQagDBsAvHYvBW2lyQPJWjMBiHqDBdS6l
QHeUlcBfGp/B35REQL1QdsCBapfBbHkUQfLHg79fCZrB8FK6QFSxjcCHXpXBwJtuQEbTZsC5rY3B
JjUlQXiNEb+mkqDBMBbpQPCXwr6sVU3BmjcLQSFhaz6Ctq3BLQm/QLnGV786W1DB9KkCQSt9x76E
1l7BdB3+QKNfVr+AU53BTSf1QLTOmL5EeafBdTujQLbdecCfn4zBmn8gQb4i5T17KarBCznPQIqU
p78P63PBbzjaQM2vhr9R85XBeALHQKf2dL6DJavB2tGrQCajkj5RuqHBcfG2QO+C4j+bfp/BheZ3
QIXRLz7McqTBmFq6QHxXXMB7xYLBlyXBQMJv97+CJ4TB96WyQEz9pL/uqmPBggf4QMy5W7+j3XHB
N0W0QH5KCb8fBZjBIcvhQFEI3L9Ke4zBthM1Qb2dTD9vvrHB8AxSQHl1ksAxmafBlKC2QL62osC8
zKXB6EoBQCvsZ8BqO5jBAfIXQd5fw79hkJLB4hPcQBFvlMDWl5TBE7BLQAJXTMBm/4bBqaM1Qck2
PL9KQZ7B8XvzQLN5xry23j3Bh7YHQaRTOT+AMbXBO7WoQBkAV7+5KkPBMs4SQf+DsLzuAF3BnRfE
QOKZ4T6qBrLBrA+8QNg4n79gda3BbnmjQGzPCEDBx5jBfhLZQJ9Z7T8gc53BXTGwQL23F0Baq6bB
EJ9RQNFADD8ytJ3BYO5pQMBjRD99o6vBTa5nQDPRYb+C86XBxvamQH8qacA7NXfBVVfZQIU9fcCl
DYLBLsKiQDw8vb/Ns4bBiU+cQO0PNL9o45LBujP/QPUIBcDIMIvBZGL1QIBwpT3pl1LBQ5HdQGxZ
ir+w7k3Be7jwQEymOj8cfGbB0pgUQbzekb+TFZrBlg3BQKA4zL+NLV3BLo3TQGBxbT6Yj3XBHngl
QWDmd797ZKHBqU1nQCXMlMDn3Z3BWVcOQcA6wT5D3KzB/uifQDPWm8C51JzBpqw/QAhLb8Ax6ZbB
v0sAQTjRE7+nQZzBSp76QEB2RT41pqXBypy7QHBubL9Bw3DBX0YiQeCDZL4p0KrBmEeiQAZ5U8Av
Bo/BWTTbQBAoZb+CbZXBSHjPQBgkUz9u36fBzlarQECErL2xgqPBSLSAQDB6MD8Tz6PBbsmmQGSa
rr/3aarBv0mgQMRIxb9ut4DB0ra8QEpTIMCDPofBY4i2QNt0hsBOX5XB48duQFZYRcA4nI/BxOO0
QCBu8L5XO5jBpVTgQEhv5b9Q5ozBlwk3QUCRUL2lALTB9KsFQSjr8z7O2EbBMUbhQONWyb+dqT7B
BccBQcyQzT+1GWrBUSMXQfep2b+bz5LBImavQH4SIMDI51nB73bPQJ0wOz+EX4LB5eg0QaNhtL8X
x5/BLJ1CQHZ4pcAP46PBKB0MQTuPej9D87PB8MuvQHhtssBsBqLBiCb3P28yZMD3bJfBwNHNQBA+
5z8S7aPBsmzLQMHecz/vjbDBNsFNQOuESj1AuKDBK1iDQBe9yz/K0Z7BOepyQHPDej8BGqzBMvyM
QAsT/7/8KqfBJBefQBCbir92s7LBCRDFQGpk9r9HRqrBh+uFQMU9BsCZ5nnBnheTQD0pQ79m+4XB
QzXLQMGBTcAFjYHB5dedQGnYzr7ftJLBlSv+QHNS/L+SY4rB

>  <OMEGA_E>  (1) 
kKLUPvjT1D58SdE+NFkMP0CuDD8SWg0/NsA8Pw==

>  <OMEGA_NBR>  (1) 
     21085

$$$$
50225004
     RDKit          3D

 54 57  0  0  1  0  0  0  0  0999 V2000
    8.2004   -0.3496  -11.5554 C   0  0  0  0  0  0  0  0  0  0  0  0
    3.7909   -4.4168  -20.1424 C   0  0  0  0  0  0  0  0  0  0  0  0
    3.0772   -3.8225  -19.0824 C   0  0  0  0  0  0  0  0  0  0  0  0
    5.1670   -4.6911  -20.0058 C   0  0  0  0  0  0  0  0  0  0  0  0
    9.1254   -1.2902  -19.6292 C   0  0  0  0  0  0  0  0  0  0  0  0
    3.7387   -3.5075  -17.8831 C   0  0  0  0  0  0  0  0  0  0  0  0
    5.8297   -4.3802  -18.8052 C   0  0  0  0  0  0  0  0  0  0  0  0
   10.1385   -1.0548  -20.5714 C   0  0  0  0  0  0  0  0  0  0  0  0
    8.7284    0.6057  -21.6816 C   0  0  0  0  0  0  0  0  0  0  0  0
    7.9023   -0.5872  -19.7239 C   0  0  0  0  0  0  0  0  0  0  0  0
    7.6963    0.3441  -20.7632 C   0  0  0  0  0  0  0  0  0  0  0  0
    5.1113   -3.8002  -17.7397 C   0  0  0  0  0  0  0  0  0  0  0  0
    9.9407   -0.1069  -21.5938 C   0  0  0  0  0  0  0  0  0  0  0  0
    8.3664   -0.4519  -13.9819 C   0  0  0  0  0  0  0  0  0  0  0  0
    7.6332   -0.6428  -12.8292 C   0  0  0  0  0  0  0  0  0  0  0  0
    6.8102   -0.8449  -18.7784 C   0  0  0  0  0  0  0  0  0  0  0  0
    6.2714   -1.1880  -12.9407 C   0  0  0  0  0  0  0  0  0  0  0  0
    6.6294   -1.3471  -15.3040 C   0  0  0  0  0  0  0  0  0  0  0  0
    6.3644    1.0695  -20.8612 C   0  0  0  0  0  0  0  0  0  0  0  0
    5.2242    0.1501  -20.3384 C   0  0  0  0  0  0  0  0  0  0  0  0
    3.9308    0.9661  -20.1662 C   0  0  0  0  0  0  0  0  0  0  0  0
    4.9554   -1.0216  -21.3181 C   0  0  0  0  0  0  0  0  0  0  0  0
    5.8302   -3.3654  -16.4952 C   0  0  0  0  0  0  0  0  0  0  0  0
    6.0895   -1.8536  -16.5947 C   0  0  2  0  0  0  0  0  0  0  0  0
    8.6533   -0.1257  -10.5057 N   0  0  0  0  0  0  0  0  0  0  0  0
    7.8494   -0.8329  -15.2248 N   0  0  0  0  0  0  0  0  0  0  0  0
    5.8048   -1.4845  -14.1929 N   0  0  0  0  0  0  0  0  0  0  0  0
    5.5987   -0.3910  -19.0118 N   0  0  0  0  0  0  0  0  0  0  0  0
    7.0698   -1.6079  -17.6616 N   0  0  0  0  0  0  0  0  0  0  0  0
    5.5668   -1.4033  -11.9630 O   0  0  0  0  0  0  0  0  0  0  0  0
   11.1926    0.1636  -22.7731 Cl  0  0  0  0  0  0  0  0  0  0  0  0
    3.2819   -4.6629  -21.0625 H   0  0  0  0  0  0  0  0  0  0  0  0
    2.0240   -3.6096  -19.1915 H   0  0  0  0  0  0  0  0  0  0  0  0
    5.7121   -5.1399  -20.8230 H   0  0  0  0  0  0  0  0  0  0  0  0
    9.2795   -2.0055  -18.8349 H   0  0  0  0  0  0  0  0  0  0  0  0
    3.1972   -3.0422  -17.0728 H   0  0  0  0  0  0  0  0  0  0  0  0
    6.8849   -4.5850  -18.6996 H   0  0  0  0  0  0  0  0  0  0  0  0
   11.0688   -1.6001  -20.5124 H   0  0  0  0  0  0  0  0  0  0  0  0
    8.5923    1.3504  -22.4519 H   0  0  0  0  0  0  0  0  0  0  0  0
    9.3477   -0.0046  -13.9245 H   0  0  0  0  0  0  0  0  0  0  0  0
    6.4020    1.9858  -20.2538 H   0  0  0  0  0  0  0  0  0  0  0  0
    6.1685    1.3332  -21.9109 H   0  0  0  0  0  0  0  0  0  0  0  0
    3.1291    0.3099  -19.7964 H   0  0  0  0  0  0  0  0  0  0  0  0
    4.1028    1.7775  -19.4437 H   0  0  0  0  0  0  0  0  0  0  0  0
    3.6359    1.3946  -21.1354 H   0  0  0  0  0  0  0  0  0  0  0  0
    4.1461   -1.6528  -20.9224 H   0  0  0  0  0  0  0  0  0  0  0  0
    4.6605   -0.6193  -22.2985 H   0  0  0  0  0  0  0  0  0  0  0  0
    5.8692   -1.6238  -21.4287 H   0  0  0  0  0  0  0  0  0  0  0  0
    5.2099   -3.5797  -15.6125 H   0  0  0  0  0  0  0  0  0  0  0  0
    6.7864   -3.9026  -16.4106 H   0  0  0  0  0  0  0  0  0  0  0  0
    5.1442   -1.3417  -16.8280 H   0  0  0  0  0  0  0  0  0  0  0  0
    4.8639   -1.8024  -14.3095 H   0  0  0  0  0  0  0  0  0  0  0  0
    4.9174   -0.4116  -18.2800 H   0  0  0  0  0  0  0  0  0  0  0  0
    7.9774   -2.0182  -17.5715 H   0  0  0  0  0  0  0  0  0  0  0  0
  1 15  1  0
  1 25  3  0
  2  3  2  0
  2  4  1  0
  3  6  1  0
  4  7  2  0
  5  8  2  0
  5 10  1  0
  6 12  2  0
  7 12  1  0
  8 13  1  0
  9 11  1  0
  9 13  2  0
 10 11  2  0
 10 16  1  0
 11 19  1  0
 12 23  1  0
 13 31  1  0
 14 15  2  0
 14 26  1  0
 15 17  1  0
 16 28  2  0
 16 29  1  0
 17 27  1  0
 17 30  2  0
 18 24  1  0
 18 26  2  0
 18 27  1  0
 19 20  1  0
 20 21  1  0
 20 22  1  0
 20 28  1  0
 23 24  1  0
 24 29  1  0
  2 32  1  0
  3 33  1  0
  4 34  1  0
  5 35  1  0
  6 36  1  0
  7 37  1  0
  8 38  1  0
  9 39  1  0
 14 40  1  0
 19 41  1  0
 19 42  1  0
 21 43  1  0
 21 44  1  0
 21 45  1  0
 22 46  1  0
 22 47  1  0
 22 48  1  0
 23 49  1  0
 23 50  1  0
 24 51  1  6
 27 52  1  0
 28 53  1  0
 29 54  1  0
M  CHG  1  28   1
M  END
>  <OMEGA_C>  (2) 
7DQDQckCs77U4jjBLp5yQClWjcCOI6HBI/BEQKSjdMDJqJjBSFilQIodlsDKC6DBvAESQdIkpb+t
CJ3B70ZvQK96YMCuEI/BNI26QOcqjMD4cJbBMTciQWoDh784kqTBYqcLQYgQGz/+c63BnN/8QPRV
Fr+Iyp3B9Ef2QAcxsD4WG6bBvI+jQAg2c8DW6o3BLw0fQczk2r0hwKzBo9wFQdVg574Etl/BBkP0
QOqNJL+WRE3BBO3ZQPxMWL8gOpbBoq/IQGoQmL/2DE/BViTUQDJsrL8n3XTB2KjLQO/kiD+k46bB
iCynQDSzGT4PtaLBDZJ7QKZUdz9SVKHBrJKeQITCgr9wi6rBUJG6QBtjV8BF9oPB4NzCQKZC7b8J
woTBxXMKQXKrAL4/FyjBIi77QIQ6Vb/MmHPBOsG5QGAEvr/7FWPBUCizQLE3yL4hGJjBNjziQLTP
zb8AS43BfCOyQGaes79JaD/B1xQzQbR/Jz4+L7bBxApSQIU2lcAXgKjBAIkBQEUDZ8A1iJnBL8m2
QB96pMCLlabBtHgUQY1aAMDkrZbBop9MQMayQsAOlYjB+lDcQDu4ksDQmJXB+RkxQVjPzL9kGaTB
8HkJQU/brD9xnbPBK5AVQbSjlru5yl7BiN3MQFYv/j+4B6LBOGTFQD6nqj+gSa/BXUNIQKOwnj4N
X57BN0qDQI+G4z+djJvBLLNoQEyDsj9aFanB46yEQDyO07/+YKfBaSKVQMaIHr9IY7LBqNC7QNXY
z78KbqvBSbemQPAZZcDWzHnBgirZQGzDecDSSIPBQZ2kQH67q7+sn4bBAKWbQKSz5r+K82TBoFud
QEO90r50PZLBiEb/QIspAcCIkozBhykAQSiauL0UkjjBGoFrQCrLjMA9t6DBYgaiQJM0lcDDKKDB
SOZAQIGyc8AA+5fB/RoSQeYNp7/EIp3BcQK5QL4Li8DU05bBksduQKsfX8AHqY7Bw1MiQe4Xi7/w
saTB9MwLQdovDj+nz63B5yT9QB15Gb9L953BV4n2QCbNnj45bqbBkImjQBFkccCtCY7BcDgfQVQc
Hb63+6zB8UsEQdagk74OPV/B7THxQGc3B79w6EzBJGDaQA2/VL/5SZbBXxjIQM7anb99y07BvnjU
QLJzrb+2mHTBWvvLQHW6hD9fSafBi3anQMzuBj6o6aLBrEx8QArfdD9WsqHBJryeQHa0h79DiqrB
iRm8QM8lV8D2QYTBg8rDQBIT7L+mwYTB4P8FQX7ZhD6pxifBGq/5QPESOb/KMnPBoci6QPDIy7+Y
1GLBLYezQDbdxL7iM5jBwyzjQP7wx78nM43BMO2xQHLtwL8eQD/BIWszQbjg3T2RWLbBlzRIQBjm
lMDJ3KfBq0iyQK5zo8B75qbBlU76PyyBZsC6cpjBBYgUQe6jAMAFtJbBuPXaQMFGkcDgZZbBs4NO
QGJhQcAi/IfBVy8xQUEm0b/8J6TBZZ4JQZlqpD9aF7TBWVYTQaUGdT4uL17B51vNQHGV+z/UlKLB
aJfFQDLIoz9NuK/BRd1IQAURoD53mp7BksCDQDKK5D+CFZzBVX1pQIs8rj/LiKnBAdWEQNU217+L
QKfB7D+VQMS/Lb8qcrLBK/C7QF1G1b8bVqvBBJSpQLL7ZsD0FHrBOPjaQI3ueMCKCoTBk1ulQLyu
q7+rlobBD0OeQNHmAcAAumTBpsKdQOlOyb7TVpLB3GYAQXsc9r81TYzBNgoAQRRAyr25GTjBd+ls
QOfZisBjsKDBGo9CQMbSesBlUpfBil2jQCwNj8DMyaDBXIATQcKkfb9YHpzBw/RxQFy4aMAjCY7B
pR+7QHwjhsAIfpfBE7ojQUwyHL8pQ6PBfwoJQZEnyT62Eq/BLez7QH5XK78gcJ7BNWvxQI92Eb2F
JqjB/9alQN6EcsBrEo7B0YoeQcqb7T0nj6zBtM8EQYdjtr4EjF7BixPxQB7uCr9KckzB7cLZQLRt
bL8yopbBuPTGQMbAl7/nrE7B9O7UQJD6rb/kVHTBEMXCQK4OyD3tR6vBW52nQDRo1j72Q6HBJ5qv
QPJr8D+ktJ3BIr5vQCAibD7+36PBbgC/QOiMWMAhV4TBLhDFQPj17b8ZroTBEPMFQa/Ehj5hZSfB
Ph/7QBbeSr+6jnLBqsu5QFSpw78s3mLBRG6yQJbEAb9jYJjB+DvkQNpVxb/uHo3B2POvQCCBtr/E
ST/BIcgyQfogJD+/JrXB6XVIQBH0kcDbz6fBKYf7P1sjdMDfRpfBwIezQAYcmcDC/6fBqXMXQXVv
w7/04ZTBmq9RQLtSU8Do4IbBJY3dQBglicDdkJfBpyk0QeK1X79SoaHBuBwFQey3bj+AS7bBEi0U
QXybBj5JRF3BQUm/QHr3aD9zJrHBdaq3QEvGWL9H1q7B5DCcQCVeBkDDlJbB1bDRQMy4AEB4yZvB
yp2mQJwEJEDAN6TBjy9JQAMv6z5AvpzB9YddQESBaD8rbKrBxz1kQPV2T7/sU6bBAnCtQJCiasAi
HXrBbGLeQMVueMAxZITBDiamQAl+sb/ih4bBDnacQP+p878RE2XBegWbQGsRU7/LjJPB0GwBQf7z
5L8p5IvBN+r9QBBOGr7oBjfBvj91QKA/icAgYqHBstqmQGiakcBAnaDBR8JIQKwZb8AZopjBsDQT
QYmfg7//UJzBEt+8QBd+iMBlEZfBV690QAKiXMBCGY/BFhYjQSj+H79gkaPBGpUHQU41Yj7rta/B
4vH6QLx9SL+AvJ7BtVbvQLdhgr5+wajBLnymQBJobsATR47B1UkdQXAhXz25AK3Bl88DQYA2ir6C
uV3BxoPvQIjmCr9bu0vBa4TZQDSXcL/9mZbBlKPGQEceoL+SUU7BPc/UQLnVqb9g9HPB6UHAQG7s
Jr6olavBsv6nQHv5uz7qsaHBFHq0QJvT6z/qkp/BR95uQFkZjj7Ij6PBSh2+QJwBVcCrTITBeRPF
QKEQ578Yh4TB5XsEQVnGHz6O6iXBt7v5QOxAL78d/nHBJFC6QGjkyr9Jl2LB/q6yQEJw775YOZjB
mmvkQPVmv7//5IzB5dWvQBSnxr9zIz/BmxMxQSTqLD++b7XBG3lTQEhwkMA8tKjB4dO3QED/nsDD
WqfBaQkFQFswYsDBQJnBTY8XQSDRwr9h8pTBj8jeQHm2jsDyeJbBMedSQA/eQMBOaIjBRrYzQc7E
Vb8J66HB9DMDQQAWNj82F7fBDrgSQbbtiD5OK1zB+Ne7QDTCBj86WrLB8BK0QIlHlL9ww63BChWj
QPKkDUCfhZjB3h/XQLc89D/YHJ7BJRmsQIEMHUAhlabBE+dMQOo/KD8yepzBNXJdQMzUYT9JlarB
hMdcQORgRb9q9qTBHiqrQDWOZsBJbnrBvDjdQPffdcDOA4TBzW+mQGN1qL8EY4bBG+adQEdQAcA5
9mTB2bCbQJJtLb9O65LByZ8BQX1C2b/Ve4vBxxL3QCKB8L7EVjfBRtBxQAw+jsDEsKHB//hEQJFb
ecA59JjBvTulQI8qlsBd7qDBmUsSQTpho79trZzB+5lwQGcUZ8DAaY/Bdzm7QEymjMCgaZfBGbci
QUIvib92LaTBemYMQc53DD+TpK3BTG39QHNQFL+jvZ3BO1/3QEANoj6sVqbB0IekQO3Cd8DPno7B
oMofQfD3IL4Zn6zBmyjBQGr+nb+wPlDBjLrpQF98Pr8WqkzBlcjZQLvDUL8JQ5bBJzIDQZciCr90
Gl/BgAzOQOCqtb9aLHXBbO/MQMJohT9TdqfBrhWoQIBvGD4GIqPBTK59QGoKez+aKKLBcqufQO4+
h78iparBW8O7QLlrXMAhvoTBUiHAQGxk9b9KNoXB3MoAQfYNg74MyiXBtLCzQNKwyL+u1WTBtVb3
QL0vZr+83nLBrVmzQCZ5sr6qU5jBOvbgQOwuy78cS43BEDYVQeBAkb1MVV3BkSk0QRiEuD0g7bXB
wSRQQH2slcD5AKnBOD8BQNqKbMAumZnBHEi2QEyLo8BbqafB1J0UQU5n+78DHpbBIXxOQNNGTMDq
r4jBgUTdQOQmksDn15bBopMxQcjMzr/od6PBEF4KQXkcoj+bBLTBMIGrQJ5Urr/c7kLBDwzOQG9w
/T/T3qLBSyDHQHFZoj9z86/BebNJQF/MsD4dGJ/BzTmEQAW16D8MnZzBvOtrQCXRrz+PEqrBqX+F
QBKS1b/5YKfBJLSWQCZ2ML+hobLBD9i8QDdq1b/rQavBrn2pQGEvb8BJMXvBlKDbQOFDesC6fITB
5jGhQI5JvL9kbIfB+gAFQXX5Sb+qvn/B212dQKdIqL4ChJLByXb+QFB7+b9pL4zB2rf4QBBH+b5m
fjfBDKRyQMbSjsA+3aHBkIWlQHA2l8CO+aDBuJ5FQNITecCUPJnBizgSQevIo7/1lJzBmEq7QMVz
jcAob5fBhs9wQJ4zZsDwrY/BgL0iQXmjib94BqTB14UMQViuCj9Vla3Bwkn9QAZeFb88t53BQGj3
QPEunj4eV6bBUIOkQOC+d8BEwI7BZOsfQRjEJb7ze6zBfeLBQDtqnb9yJVDBoXjqQETFO7+YxUzB
JpDZQBKFUL8QQpbBjEoDQW5nBL/eX1/BAh7OQK/jtb8uJXXBiv/MQNBghD9IjKfB/gGoQDgiGz7c
JaPBZvh9QEaLfj8xLqLBOT2fQM84h7+gm6rBkIG7QGpnXMBI0ITBgOi/QFtD9b/cM4XB/hQCQaC/
mb58AibBdgO0QH9nyL9OsGTBjF33QPLRZL+sBXPBFjWzQPRQr76cU5jBDa7gQEvpyr98SY3BIx4V
QaARkrz22l3BuW00QdBOsT3NtbXBnFJRQO5ylsCxMKnBYqi2QLwipcApn6fBCxUCQAyca8B0+ZnB
nnUUQTuz+79BApbBnDvdQC1jk8AaxJbBD4NOQMRCSsB5ConB45gxQbkqz7/oQqPB4ZAKQT8SoT/9
+LPBfYesQMoprr/suELBNiXOQMNP/T/fDKPB0ULHQA2pnz+sD7DBi75JQBxGvD4cEZ/BJaeEQNPK
6j+krZzBAjdsQPsesT8FG6rBkPuEQDmc1L8xTKfByD6WQNwdMb+umbLBfEa8QOk01r/COKvBRQ2p
QMhpb8DNaXvBrl/bQO41esAFhYTBKvqgQKG3u79iX4fBL/MEQYGESr8K9n/B1j6dQBHKob4Qg5LB
4y/+QKAj+b/3LIzBkf4AQTTuiL6QbzbBE6puQJ7uh8BOD6PB5mk5QP0racCEVpvBp0KjQJ/NjcDY
8aDBkhUTQVwhmr9+6ZrBYbNbQDt0T8DrbJHBN2m0QE4egcAYB5fBQJwkQShLfL8nyaHBE0QOQa53
1D6gPa3B+vj9QKL1Hb9cOp3BZzT5QNZeOT72eqbB3ZaZQNc/XcBsMo/BqzUiQSSuMr5r7qrBJw3w
QFzOkz7CYlvBNtDvQC6/Hb/QrkrBHmnYQD6zU7+gMJbBak7cQPgQ+L/4RE7BRxLNQPurnb+OjHLB
wprOQLPGXD/EnKjBNeWoQNAyvbwjnaTBZwN/QFiUUj/HQKTBsduhQJpjnL8iQ6zBx8erQMcgRMDQ
dYTBskW7QNBQy79fLoTBUFoIQQBRDDzJ4CXBY3XeQNDXHb25bW/Bv1TLQLESDMBYKWLB6KCxQFDk
BL+njZnBB1DeQIK1rr8QBYzBk83aQJwkM8AjVEDBd/s3QXKB3T36Y7PBVxhUQEhEksAem6rBArXs
PypEX8CvBp3Bhbu3QNMFnMD17abBM/oUQWHo6L8o4JPBvB8zQCQ6McAMiovB8xHWQI6GhcApaJXB
a+UzQX5KuL+RC6DBnYEMQV/zhT+7MbTBaAH+QEb8oT96AlnBa9XNQJbr6T/sZKTBEx7LQHcphD8/
Q7HBCJxJQI+SSz7KbaHBT/2DQI/L1T8Uwp7BOI1wQNSzmT/7UKzBcCKHQJ8I679rUqnBgFSaQMk8
Wb/RUrTBwh6/QJ186r9pk6zBxtuSQF+tTMAmrXzBtRXHQNsebsBbpYLBNBqgQB/Mbb/vCobBeHK9
QHiZRMA9AmXBVBGZQHE6H7/efZTBFwr8QJf7zr8B2onBpsb5QBsvFL+TozbB90WAQGDbi8Ajq6LB
ZDFOQPuneMCgKZrB+YSsQGKiksDmPqHBIT0TQfNegb+Qe5vBOkN0QJ1YZ8DKOJDBfqW/QGv4icCp
S5fBJb4jQVNMK78aoaLBOYAJQVjEgj7YEa/BnpT7QJjaNb/GKJ7BCerxQPO5H77fOajBKkmmQJSa
dcC2w47BquYeQSDyDzyPN6zB/7zBQGiImb/+fU/BagDrQKGeQ7/H/EvBFWnYQCN7Z781eZbBXbgD
Qc+4Eb+1hl7Bq/bNQOazsb9sfnTBaIrDQNRlZr2znavBgLeoQPzv1T5096HBrveyQDYd8z+ofZ/B
OqhxQKAWiz4MiaTB7rq6QDnsWcBKfITB+Z6/QCln8L844YTBhdsCQSRy5L59HCXBB4+zQOTVwL+T
GmTBoM33QN0sab8QQHLBmAiyQAi2177qbpjB3pfgQCQGx7/s94zBWvQVQYY5CL7+21zBn2AzQaDv
Aj+9w7TBIT9jQAeZksBqT6rB83YKQFkwbsBuSZvBJrW/QOp4nsA/y6fBG+0WQTDkv78mAJTBBu9N
QAcjT8Als4nB+pDhQAjnjsD2MJbBZRw0QREQbb/TxaDBvc8FQaU9Qj/wfLbBsxisQLj3pr/yH0LB
L3vAQNaXKj/eNLLB9iG4QDpehb8GSa7BCMmfQBDlDkB8nJjBgC/VQDsWAEBUmJ3B3TqrQPYfIUD1
gabB0JJLQBYxHD+wpZ3BGdBhQIsyYj8fk6vBeg1jQFaSSL+XOabBz12mQCU8bMBfXXvBZVXaQD0t
eMDPo4PBnNegQKuetb82DofBlToFQf10Ub9iKn/Bd0qaQCpQIL+MU5PBhsj+QBu66b8YcYvBp1MG
QYpEq77cEznBeYQGQZI6s8A0k4XBFlf4QKvCqMD60HfBKvz7QF1PpcAJbI/BAhoSQThPpr/OMZzB
xHrTQJ4aj8DyGHjBoLvWQIEajMDmlY/BkN4iQcJojL9Ng6PBO5UMQVZ48T5Sk63B5Nz8QActIL+i
sJ3B7Bf3QIB5dD7leqbBdFjDQOCGf8AP2IXB2SEgQXQ8U77mJazB4AkHQZpk9r7V4l/ByKv4QCUc
LL/o4kzBTObYQPVjUL9vUZbBchjNQCKcnb8ElU3BSDjTQN5Epr935XPBtE/MQMmmcT9T9qfB8lqn
QCDDiT3kbqPBNSt8QE04ZT8uZ6LBRNCeQHCZlr/TgarBhAWkQI9rNsA3tIXBgkW9QKI1wr/QjITB
y2IOQRBzgL2T1ijBroX6QJ8gSr8iYHPB+tu7QHRNw7/QSGHBlIKyQJ4Mwr44ppjBUBrfQOgVuL/T
wYzBNBC4QKw9tr9LWT3Bcvc0QfBBWD0xK7XBuAcVQRT7xcAScYXBX2kCQTB2tMB2zWjB1sIFQVwA
rsDV05bBCDoUQeV/+788eZXBxYDDQC0ih8BTTWnBPv3IQFE2gsAPHpfBT9QxQabBz7+WhaLBWbEK
QfuVlT9vG7TBASQXQXort73Uul/BlPTMQLH78z89s6PBc9XGQI6Zjz+libDBcqlIQK/4hT40Mp/B
zKeDQNjl3j8r9JzB2n9pQI5Noz/LUqrBZ46EQMUe4r9nCKfBVOqVQBNLWr8YnrLBV+m7QNCV5b+I
5arBZKeRQN7NNcDlNY3BS/yNQEPYPcA5z33Bb5mmQP/6ML8i1oXBCVKeQLju879xPWLBKz6cQDTN
s7566JLBz4j7QJmn7b9JQIvBxAvrQIfp8b5kkjTBQOR9QDiZnMBwJ6PBL5ejQAVWscDeHp/BuH1c
QIUoccAo153BGUARQe7Wtb+Do5zB7d23QHW1ocAJ15XB8jaCQBk1UsBwiZTBRpchQWjrqr+mW6TB
LyUMQeBTgT6anq7BhF38QLm3K7+/6J3BXyr3QOb7Gz5h/6bB7pqnQGc6esD7lJDBfhAfQf+m/r5O
VK3Bs3nHQKpYNr1zkFbBEPngQH0FW79tBkrBQw/ZQHN+Rb9jDpbB9U/xQIkkB8AbUFPBLJDLQH5d
xL8ty3PBVubOQEHVfT9rFajBSKqnQKcegT7oKKPB34WCQI06oT+kv6HBGaOYQAdnZb8LmarBzoe7
QB1WXcDyIYbBEx6/QJDC9L+BGIXB/UnzQLKkJr6yEiPBV8a8QJ+zz74QmGvBYkbmQOM/GcAZKGjB
X6WyQHMAnb4wZZjBxNrgQM4/tL80VozBOO4DQVb4OMDCMEnBkG8zQVP7xL4M2LbBJFdfQLRZqMBn
U6rBCCWwQF05zcDwJKPBLR0kQFufUcAN6qDBxj8TQeO9A8APvZXBtt/TQGm3scBwvZLBj+ppQDCp
G8BzZJDBKxIwQa3L9L8YZ6PBb1QKQQKHZz/RcrXBoo27QLVpYj9fElDBLI7TQL9F+T9J46PBAb/I
QOyClz9XnLDBK19NQPzBPj88Rp7BirOMQMWTBEBjYpzBQYtzQPnl1j+llanBHvB5QF68s79t+6bB
KGuPQH+p9r7IarLB+d2yQJ8Az7/BrKvB58CnQOxcdcCnAH/BSNnbQKTaeMAdj4XBuh6gQHCOur9K
IofB93bxQJZoTsAxF2/BtPqbQOxQqL5CwJLBS1T/QIYuxL/UG4rB

>  <OMEGA_E>  (2) 
4LunPjiLqD5EE+8+YEfyPrBvAj9okgI/JNAaP6wcID/AYys/lD82Pw==

>  <OMEGA_NBR>  (2) 
      9285

$$$$
50225008
     RDKit          3D

 53 56  0  0  1  0  0  0  0  0999 V2000
    3.7884   -4.3674  -20.1702 C   0  0  0  0  0  0  0  0  0  0  0  0
    5.1601   -4.6546  -20.0165 C   0  0  0  0  0  0  0  0  0  0  0  0
    3.0689   -3.7616  -19.1207 C   0  0  0  0  0  0  0  0  0  0  0  0
    9.1172   -1.2885  -19.5942 C   0  0  0  0  0  0  0  0  0  0  0  0
    5.8117   -4.3466  -18.8084 C   0  0  0  0  0  0  0  0  0  0  0  0
    3.7195   -3.4489  -17.9146 C   0  0  0  0  0  0  0  0  0  0  0  0
   10.1511   -1.0414  -20.5103 C   0  0  0  0  0  0  0  0  0  0  0  0
    8.7610    0.6230  -21.6393 C   0  0  0  0  0  0  0  0  0  0  0  0
    7.8934   -0.5902  -19.7117 C   0  0  0  0  0  0  0  0  0  0  0  0
    7.7077    0.3470  -20.7487 C   0  0  0  0  0  0  0  0  0  0  0  0
    5.0868   -3.7548  -17.7526 C   0  0  0  0  0  0  0  0  0  0  0  0
    9.9747   -0.0843  -21.5279 C   0  0  0  0  0  0  0  0  0  0  0  0
    8.3996   -0.4465  -13.9807 C   0  0  0  0  0  0  0  0  0  0  0  0
    6.7847   -0.8528  -18.7865 C   0  0  0  0  0  0  0  0  0  0  0  0
    7.6944   -0.6350  -12.8112 C   0  0  0  0  0  0  0  0  0  0  0  0
    6.3358   -1.1914  -12.8955 C   0  0  0  0  0  0  0  0  0  0  0  0
    6.6327   -1.3347  -15.2744 C   0  0  0  0  0  0  0  0  0  0  0  0
    6.3767    1.0681  -20.8675 C   0  0  0  0  0  0  0  0  0  0  0  0
    5.2276    0.1348  -20.3887 C   0  0  0  0  0  0  0  0  0  0  0  0
    3.9298    0.9492  -20.2393 C   0  0  0  0  0  0  0  0  0  0  0  0
    4.9893   -1.0165  -21.3998 C   0  0  0  0  0  0  0  0  0  0  0  0
    5.7919   -3.3298  -16.4939 C   0  0  0  0  0  0  0  0  0  0  0  0
    6.0675   -1.8184  -16.5721 C   0  0  2  0  0  0  0  0  0  0  0  0
    7.8553   -0.8234  -15.2144 N   0  0  0  0  0  0  0  0  0  0  0  0
    5.8370   -1.4852  -14.1410 N   0  0  0  0  0  0  0  0  0  0  0  0
    5.5677   -0.4348  -19.0596 N   0  0  0  0  0  0  0  0  0  0  0  0
    7.0467   -1.5743  -17.6417 N   0  0  0  0  0  0  0  0  0  0  0  0
    5.6592   -1.4091  -11.8997 O   0  0  0  0  0  0  0  0  0  0  0  0
   11.2565    0.2055  -22.6700 Cl  0  0  0  0  0  0  0  0  0  0  0  0
    8.5939   -0.1240  -10.8870 I   0  0  0  0  0  0  0  0  0  0  0  0
    3.2874   -4.6124  -21.0951 H   0  0  0  0  0  0  0  0  0  0  0  0
    5.7104   -5.1109  -20.8259 H   0  0  0  0  0  0  0  0  0  0  0  0
    2.0194   -3.5380  -19.2429 H   0  0  0  0  0  0  0  0  0  0  0  0
    9.2557   -2.0096  -18.8023 H   0  0  0  0  0  0  0  0  0  0  0  0
    6.8633   -4.5623  -18.6895 H   0  0  0  0  0  0  0  0  0  0  0  0
    3.1729   -2.9749  -17.1127 H   0  0  0  0  0  0  0  0  0  0  0  0
   11.0814   -1.5848  -20.4349 H   0  0  0  0  0  0  0  0  0  0  0  0
    8.6398    1.3742  -22.4057 H   0  0  0  0  0  0  0  0  0  0  0  0
    9.3836   -0.0030  -13.9448 H   0  0  0  0  0  0  0  0  0  0  0  0
    6.3953    1.9741  -20.2439 H   0  0  0  0  0  0  0  0  0  0  0  0
    6.2058    1.3488  -21.9172 H   0  0  0  0  0  0  0  0  0  0  0  0
    3.1184    0.2882  -19.9007 H   0  0  0  0  0  0  0  0  0  0  0  0
    4.0825    1.7499  -19.5007 H   0  0  0  0  0  0  0  0  0  0  0  0
    3.6611    1.3919  -21.2097 H   0  0  0  0  0  0  0  0  0  0  0  0
    4.1737   -1.6600  -21.0380 H   0  0  0  0  0  0  0  0  0  0  0  0
    4.7166   -0.5944  -22.3783 H   0  0  0  0  0  0  0  0  0  0  0  0
    5.9087   -1.6120  -21.5006 H   0  0  0  0  0  0  0  0  0  0  0  0
    5.1567   -3.5460  -15.6223 H   0  0  0  0  0  0  0  0  0  0  0  0
    6.7423   -3.8754  -16.3993 H   0  0  0  0  0  0  0  0  0  0  0  0
    5.1281   -1.2893  -16.7900 H   0  0  0  0  0  0  0  0  0  0  0  0
    4.8957   -1.8094  -14.2348 H   0  0  0  0  0  0  0  0  0  0  0  0
    4.8576   -0.5018  -18.3587 H   0  0  0  0  0  0  0  0  0  0  0  0
    7.9638   -1.9574  -17.5311 H   0  0  0  0  0  0  0  0  0  0  0  0
  1  2  2  0
  1  3  1  0
  2  5  1  0
  3  6  2  0
  4  7  2  0
  4  9  1  0
  5 11  2  0
  6 11  1  0
  7 12  1  0
  8 10  1  0
  8 12  2  0
  9 10  2  0
  9 14  1  0
 10 18  1  0
 11 22  1  0
 12 29  1  0
 13 15  2  0
 13 24  1  0
 14 26  2  0
 14 27  1  0
 15 16  1  0
 15 30  1  0
 16 25  1  0
 16 28  2  0
 17 23  1  0
 17 24  2  0
 17 25  1  0
 18 19  1  0
 19 20  1  0
 19 21  1  0
 19 26  1  0
 22 23  1  0
 23 27  1  0
  1 31  1  0
  2 32  1  0
  3 33  1  0
  4 34  1  0
  5 35  1  0
  6 36  1  0
  7 37  1  0
  8 38  1  0
 13 39  1  0
 18 40  1  0
 18 41  1  0
 20 42  1  0
 20 43  1  0
 20 44  1  0
 21 45  1  0
 21 46  1  0
 21 47  1  0
 22 48  1  0
 22 49  1  0
 23 50  1  6
 25 51  1  0
 26 52  1  0
 27 53  1  0
M  CHG  1  26   1
M  END
>  <OMEGA_C>  (3) 
9nRyQK3Bi8CLXKHBeR+lQGbylMC2IaDBbmlEQIm+cMAi95jB998RQQ/upL8AwZzBnvm5QAgXi8CI
d5bB2wtuQG27XMAXUY/BAmsiQRdMhb8UFaTB3CwMQdh5Hz8wHa3BGJf8QFIWF7+nsZ3BqKX2QDut
sT5i/aXB+8aiQH1OcMBABY7BSpgfQUyYrL0aOazBvmQGQV2h5L7zsF/B4BvZQCxPWr+9SpbBfzj2
QFqMIr+L+kzBPL/KQI1+mL/NU07B6T7UQHfWqr/iY3TBRw7MQAK2iD+W8KbBkEinQH7/CT73G6PB
DIJ7QE7/cj8C6qHBRaifQOkdgr+9MqvBH1e5QDAbVcCJ84PBHynCQE3C6L+0k4TBnF77QBDKUr8d
bnPBjMi6QHgZvr98QWLB5iqyQEGc3r4PepjBoH7hQPqDyb8qIo3BThi1QG1etL9HZT7B0ho0QTd3
Uj44XLXBrYAJQaTt/b36MC7BTmVSQIKYk8C6wqjB8bu2QNKMo8CHm6bBTz4BQBJvYsBy8ZnBdBcU
QWOdAMAGa5bBxZ/bQKT+kcAohJXBtxBLQIllPsDg5ojBW00xQYfbyr+ceqPB0TwKQWLlrz/KPrPB
ZCMWQQW/QbsKHl/B6KXMQDeu/D+V86HBMZbGQF2mrD91Vq/Bh5NHQLyKkz6zNJ/BLaSCQEf93z9Y
AZzBQ1BqQOoqsj+IranBU4+FQHZ61L/jTajBcu6WQCgsGL+1BrPBDBS9QGdUzr9UAazBfAOlQJDx
YsDS9HnBQ8HXQGkGeMDWMYPBCBmkQAIJpb/pUYbBgKmcQNyb57/pwWPBhnGbQDZzAL+p3pLBhdf+
QJeK+r+6P4zBrTJ2QHlKisB8gaHB/2GnQC8EksAzjaDB5CZIQAifccCt2pjBYzYTQWvCgr8M+pvB
fae8QOGGiMBe6pbBCphyQLhXXsD+O4/BI34jQQNwH78tB6PBY8MIQf6vnz7nK6/B80j7QEe9PL8X
gp7BwNvwQPP1H767bKjBg3ulQBzsbsBSNo7Bc0weQVhwwj2BXqzBN2QFQUrxu77EdF7B0vHYQBKx
cb/YqZbBQMXzQAh3G79+BkzB2g3JQJn2mr8B+E3BmmLUQNCLp7+J83PBMj7CQOyukr36ravBjm+n
QARGtD7u3qHBZ5mwQJG56j8zJ5/BlgtvQFmXNz42VKTB+U+8QHREVMAKIoTBKK7DQLjI5b/mfITB
QKv6QJGEPr/Ne3LBz1i6QNipwL8zIWLBUeKxQFMdAr9LhpjBbiPjQMWmwb/R8YzB/wKzQED4u78s
Uz7Bh5oyQValMj/HlbTB1ngHQfImAb400izBWI5VQFPKkcAk46jBcvu4QFM3n8AJN6fByVgEQNum
ZcC8nJnBkSQXQftjxb+IqpTB0preQPZIjsCuLpbBaoxPQCDYQsDCoIjBs/czQfKuXb/8SqHBu9IE
QeLVVT+/d7bBv8wUQdfq8D00cF3B+oC+QBwRLD9uGLLBPlW3QPjrhr9BjK7B4nWdQMx5CEAnKpjB
Yc7SQP+R+j9AVJ3BcQ6oQO/GHUDqCKbBHChJQDf19j7NUZ3Bw55dQDqbTj8VOKvBYNJhQP8QYL+N
NabB56SoQGOpZMDHQXrBmkXbQIp+dcCemYPBbjWlQFKjpb9fUIbBv7acQAGC7r8KCWTBC3GaQA69
Q7/jepPB6t8AQV6w37/nj4vBtOFzQDhljcCeGKLBbO1FQJ7Sd8B8cJnByEmmQL7rlMD9L6HBTBsS
QXKWo7/Rg5zBbH9wQBmeZMDC14/BRLK7QO4vi8DklpfBi8oiQVsAh7+A1qPB1pUMQW0CED9bZq3B
TPj8QIKQFr8Js53BLkz3QEWioD4aQ6bB9XikQHOndMCP4Y7BtAsgQb05B76FPqzBx6rCQEPxmL9+
c0/BXwvZQJtBU7+XTpbBKZ/sQFYUVb/xzUvBeukEQai/PL+CNF7BW/nOQBABt78sdnTBz+XMQAzF
hD+NdafBudqnQNwtBj4tZ6PB+il9QCg5dj+IdqLBkuyfQJWlhr9eKqvBIgS7QE4ZWsAU04TB2e6/
QLSs8L+m9oTByju0QDx1v7/THGTB4L/5QEbOhb83A3LBM1yyQGKVy77mnpjBiKfgQMR1xL8MCY3B
DKsXQczqz77tUlzBRLg0QVyRET5nVbXBRDoBQfpE475qZyvBaBBTQP0PlcBldKnBUB4CQKDRa8Dt
LprBwtC3QJAnosDL26fB9kEUQb+8/L/v/5XBy4BNQO+TScDmM4nBmLfdQEmYkMDj5JbBn7UxQb6H
y7+HBaPB6qoKQcRwpD+WwLPBxZysQNCtn7+BLELBeJzNQD6J+z9ovKLBvp7HQIP2oz9A8K/BX8dI
QLMMpD4CmJ/BYaaDQDWa5D8lxpzBK2ZsQIjMrz+bWarBkp6FQIZc1r+oGqjBPV2XQLJfKb8WHLPB
+iq9QGpd1L92y6vB7xeoQOiZbcDYoXvB2MHaQBRmeMAHeITBvhmhQEOVtL968YbB0mUGQQ2tfr8y
2H7BNpKbQNmr276aApPBc6X+QL5l678VrIvBssRzQAgCjcAgLqLB6CSmQKzflMCgMqHBGnVFQFOE
d8BuhpnBiRMSQS4Po79La5zBCEm7QMW7i8CBhpfBFn1vQKR3ZcAl24/BOcIiQftGhr/3vKPBr6oM
QTaGFT/wMa3Bxfz8QDgnFL//j53BPXn3QIzEqz6QDabBO+OjQB0jdsC10Y7B6Q4gQR4v9b2hGazB
c4/DQEvGlr9XnU/BVd3YQH/ZVL9eQpbB0CTtQIEEQ7/LZUzBN8MEQWI+JL8PE1/BkO/OQDhpt7+o
q3TBBBPNQNCfhz/vPKfB6A+oQMymDz6uXKPBdAR9QO1rdT9pgqLB+umgQKqyhL/nPavB8Em6QOiF
W8BwvITB9oy/QCO1878e/oTBc8W0QKAVwb/dGWTBbFf5QEATgL+1o3LB5kSyQJ5Qyr7EkpjBIyHg
QJPqyb+0Jo3B5DQXQTFVdr45o13BM6o0QT4mFT5tPrXBie4BQRLVsr5kLyzB2FtTQNk7lMA6mKnB
eNC3QMbpocCE3qfBGMkBQEH7asA0U5rBuzIUQfvg/L8G8JXBejzdQLJxkcBLxZbBPTJMQM3SSsAw
N4nBXaUxQSxUy7/486LBYMwKQRUMqD+ngLPBwBGuQKwBoL+aIULBOpHNQHEn/T/OZKLBFQPIQHD1
qD+Usa/Ba7NIQHRZnT5WxJ/BuwmDQMSr4z8KwZzBf9tsQHESsD8BZqrBpZ6GQEzL1b/bUajBsLGY
QKvHI7/9L7PBpF2+QGFF0b9cz6vBoRmnQAJEbsAie3vBDOXZQFdQesDwS4TBGMegQOc2t7+H+4bB
SQUGQVH6c7/amX/BH2mbQNcv2b7K+pLBSMb9QJRS9r8J+4vBgQcFQWWitcAAAIfBj7v3QMndqsAv
HXrB5In3QLCypsDGlZDBsCkSQVjUoL+O+pvB48PTQAb+j8B6VnnBhBLTQKBijMChN5DB/R0jQezg
g79yJaPBQboMQS3KBD+LVa3BtrL8QCOHGr9SmZ3BDA73QJyyhj6WYqbB4PbBQCv/f8D6NobB4msg
QZyhDL7YxKvBo80HQfAuE7++AGDB0WnYQA8HUL9KVZbBmOj5QEsyMb/S7kzBA7HNQGwDmb9Tbk3B
Im7TQCq0qb8zx3PBOhrMQG2dcz9Z/6fB+z6nQAAoez13mKPBJ097QHSPYD8ZvaLBbIafQFAul79e
v6rBoiWjQCErNsAbm4XBa/a8QBIZw78GfYTBVqL7QHGwY7/rZHPB9s+7QNRvvr88C2HBav6xQBC1
xb4GwZjBX33eQKiFub82zIzBMLa4QN7Fq79REz3BrHc1QTTcGT7vnLTBU1cMQYgXyr2g4S7BvDET
QZhlycCdR4fBYasCQWZFt8CSfWvB/KsCQcx0r8B6MpjBfEEUQf1j9r8ORpXBF8LFQEKXh8ADHGrB
TTLEQAOvgcDtipfB8DAyQVUjxb8uDKLBxNgKQX28mz8l3LPBRjYYQfb/cb6Y/1/B+ijMQCHs9D9E
uqPB5v/GQOBykD+3lrDBAM9HQMoYcj7znp/B3p+CQCbz3D9iSJ3BymJpQB9coD9Ts6rBJ1KFQHw3
5L81YafB+uiWQHXvWr8x37LB4N68QM7D5L82EqvBkqyPQDkANMCB7ozBSxqOQEctPsAJP33BmI2m
QJ5HML83qIXBJaidQNzL6L+P1WHBPXabQJ/7ur5rE5PBJsT6QMb68L/uYIvBBaMEQcAHvsASTnzB
Z6oAQSAdsMDPsYjBZjzxQM4wrcAoNWvBOP4RQYm4sr+B95vBZMThQGHpkMAfr4rBhxvRQAKrjsAA
N2/BJi0jQU4Uor9xMKPBQdANQSCMez4xNK7BOxf9QNp/Nb+v5J3Bxd/4QGCbyT2WG6fBs4LJQDbQ
f8CLJYLBzxohQazD4r7XSKzB188DQQqdJr7U813BMlnYQIIUUr/vdpbBla72QKySKL/BL0vBh+zO
QLicuL+pT0zBsm3QQBXckb/aq3LBM6vPQEIkYD9O46jBdYioQBgcyT1DS6TBNriBQFq1hj+sjKPB
Dr2cQBOcjb8QiavBGIuoQCzTOcAiT4TBcra8QNBlvb/yF4TBN130QAOu3r68wXHBuwq8QAm8y78n
GGDBmxiyQBI/y77ET5nBd4reQJGYr790Z4zBKbq+QMEh+r83czzBnXc2QRbtir5jL7XB+P4KQQTt
gr4WzCzBAeYQQS6c1cCNQ3nBH7wJQbZjvcDpQY/B8XL3QMavt8AhClvBRqUTQYFFAcAV9pTBixrc
QOj3hcCawZLBySG+QCRugsAAImLBlfExQXUb5r+PwaHB/VUMQTYFYz8HHrXBZhYSQaTC4z40ZV3B
MRnSQPPj7D+M3KTBpQHLQKXhgz+lhbHB2wpMQJPyAT9dT6DB8piJQHp/8j/LPZ7Bs9lzQL6btz+B
kavBNRaBQKho0b+VHajBCJ6UQLluPr+Tl7PBeSe4QAiO5b9vCazBu0WaQGDERMB/PIzBk3KPQMtQ
PcDGTnzB91KjQNLkP79Q1oXBLlufQO3jAcC8MGHBr5CaQJL70L4J5JPBl6/7QOod3L/Qn4rB

>  <OMEGA_E>  (3) 
BLiNPqA11j5g9PQ+cBf1PihiJD+cgj0/

>  <OMEGA_NBR>  (3) 
     14901

$$$$
50225002
     RDKit          3D

 53 56  0  0  1  0  0  0  0  0999 V2000
    3.7346   -4.3764  -20.1546 C   0  0  0  0  0  0  0  0  0  0  0  0
    3.0341   -3.7817  -19.0863 C   0  0  0  0  0  0  0  0  0  0  0  0
    5.1107   -4.6573  -20.0310 C   0  0  0  0  0  0  0  0  0  0  0  0
    9.1274   -1.2818  -19.5836 C   0  0  0  0  0  0  0  0  0  0  0  0
    3.7075   -3.4756  -17.8911 C   0  0  0  0  0  0  0  0  0  0  0  0
    5.7858   -4.3547  -18.8340 C   0  0  0  0  0  0  0  0  0  0  0  0
   10.1585   -1.0341  -20.5025 C   0  0  0  0  0  0  0  0  0  0  0  0
    8.7659    0.6334  -21.6245 C   0  0  0  0  0  0  0  0  0  0  0  0
    7.9033   -0.5833  -19.6973 C   0  0  0  0  0  0  0  0  0  0  0  0
    7.7159    0.3581  -20.7301 C   0  0  0  0  0  0  0  0  0  0  0  0
    5.0791   -3.7771  -17.7578 C   0  0  0  0  0  0  0  0  0  0  0  0
    9.9788   -0.0764  -21.5190 C   0  0  0  0  0  0  0  0  0  0  0  0
    8.3617   -0.3560  -14.0232 C   0  0  0  0  0  0  0  0  0  0  0  0
    6.7924   -0.8552  -18.7775 C   0  0  0  0  0  0  0  0  0  0  0  0
    7.6683   -0.5492  -12.8487 C   0  0  0  0  0  0  0  0  0  0  0  0
    6.3451   -1.1807  -12.9105 C   0  0  0  0  0  0  0  0  0  0  0  0
    6.6295   -1.3475  -15.2885 C   0  0  0  0  0  0  0  0  0  0  0  0
    6.3820    1.0753  -20.8469 C   0  0  0  0  0  0  0  0  0  0  0  0
    5.2377    0.1319  -20.3762 C   0  0  0  0  0  0  0  0  0  0  0  0
    3.9299    0.9311  -20.2366 C   0  0  0  0  0  0  0  0  0  0  0  0
    5.0178   -1.0252  -21.3858 C   0  0  0  0  0  0  0  0  0  0  0  0
    5.8052   -3.3607  -16.5065 C   0  0  0  0  0  0  0  0  0  0  0  0
    6.0689   -1.8482  -16.5813 C   0  0  2  0  0  0  0  0  0  0  0  0
    7.8290   -0.7816  -15.2451 N   0  0  0  0  0  0  0  0  0  0  0  0
    5.8496   -1.5187  -14.1465 N   0  0  0  0  0  0  0  0  0  0  0  0
    5.5772   -0.4299  -19.0454 N   0  0  0  0  0  0  0  0  0  0  0  0
    7.0472   -1.6021  -17.6495 N   0  0  0  0  0  0  0  0  0  0  0  0
    5.6944   -1.4118  -11.9008 O   0  0  0  0  0  0  0  0  0  0  0  0
   11.2557    0.2110  -22.6672 Cl  0  0  0  0  0  0  0  0  0  0  0  0
    8.3491   -0.0446  -11.3266 Cl  0  0  0  0  0  0  0  0  0  0  0  0
    3.2160   -4.6179  -21.0706 H   0  0  0  0  0  0  0  0  0  0  0  0
    1.9815   -3.5614  -19.1858 H   0  0  0  0  0  0  0  0  0  0  0  0
    5.6467   -5.1046  -20.8551 H   0  0  0  0  0  0  0  0  0  0  0  0
    9.2682   -2.0033  -18.7924 H   0  0  0  0  0  0  0  0  0  0  0  0
    3.1749   -3.0098  -17.0751 H   0  0  0  0  0  0  0  0  0  0  0  0
    6.8411   -4.5639  -18.7392 H   0  0  0  0  0  0  0  0  0  0  0  0
   11.0891   -1.5774  -20.4301 H   0  0  0  0  0  0  0  0  0  0  0  0
    8.6430    1.3859  -22.3893 H   0  0  0  0  0  0  0  0  0  0  0  0
    9.3265    0.1288  -14.0007 H   0  0  0  0  0  0  0  0  0  0  0  0
    6.3950    1.9770  -20.2171 H   0  0  0  0  0  0  0  0  0  0  0  0
    6.2115    1.3625  -21.8950 H   0  0  0  0  0  0  0  0  0  0  0  0
    3.1237    0.2608  -19.9038 H   0  0  0  0  0  0  0  0  0  0  0  0
    4.0679    1.7337  -19.4972 H   0  0  0  0  0  0  0  0  0  0  0  0
    3.6632    1.3704  -21.2092 H   0  0  0  0  0  0  0  0  0  0  0  0
    4.2052   -1.6747  -21.0285 H   0  0  0  0  0  0  0  0  0  0  0  0
    4.7493   -0.6087  -22.3678 H   0  0  0  0  0  0  0  0  0  0  0  0
    5.9433   -1.6126  -21.4773 H   0  0  0  0  0  0  0  0  0  0  0  0
    5.1873   -3.5873  -15.6252 H   0  0  0  0  0  0  0  0  0  0  0  0
    6.7603   -3.9015  -16.4335 H   0  0  0  0  0  0  0  0  0  0  0  0
    5.1261   -1.3272  -16.8043 H   0  0  0  0  0  0  0  0  0  0  0  0
    4.9244   -1.8895  -14.2270 H   0  0  0  0  0  0  0  0  0  0  0  0
    4.8701   -0.4860  -18.3405 H   0  0  0  0  0  0  0  0  0  0  0  0
    7.9578   -2.0035  -17.5507 H   0  0  0  0  0  0  0  0  0  0  0  0
  1  2  2  0
  1  3  1  0
  2  5  1  0
  3  6  2  0
  4  7  2  0
  4  9  1  0
  5 11  2  0
  6 11  1  0
  7 12  1  0
  8 10  1  0
  8 12  2  0
  9 10  2  0
  9 14  1  0
 10 18  1  0
 11 22  1  0
 12 29  1  0
 13 15  2  0
 13 24  1  0
 14 26  2  0
 14 27  1  0
 15 16  1  0
 15 30  1  0
 16 25  1  0
 16 28  2  0
 17 23  1  0
 17 24  2  0
 17 25  1  0
 18 19  1  0
 19 20  1  0
 19 21  1  0
 19 26  1  0
 22 23  1  0
 23 27  1  0
  1 31  1  0
  2 32  1  0
  3 33  1  0
  4 34  1  0
  5 35  1  0
  6 36  1  0
  7 37  1  0
  8 38  1  0
 13 39  1  0
 18 40  1  0
 18 41  1  0
 20 42  1  0
 20 43  1  0
 20 44  1  0
 21 45  1  0
 21 46  1  0
 21 47  1  0
 22 48  1  0
 22 49  1  0
 23 50  1  6
 25 51  1  0
 26 52  1  0
 27 53  1  0
M  CHG  1  26   1
M  END
>  <OMEGA_C>  (4) 
cQRvQN4LjMCTPKHBeS5CQB8HcsDSsJjBKIujQIgIlcCSP6DBtwkSQdMRpL8tq5zBDkdtQGxwXsDq
II/B9iS5QO1Zi8D0q5bBM4kiQWJdhL8OBaTB8kAMQWgkIj/5/qzBkOf8QNxRFb8ZlJ3BtOj2QKZe
tz5D16XB/oeiQLu7ccDlD47BGakfQUSInL3uJqzBpskFQfVLtr7/XmDBi1vZQKLuWr9lOJbBUGL1
QKqXDL82lE3BQQvLQG0il784kU7BzCTUQBt6rL/JnXTBDznMQBaiiT91xqbBb5unQJwMBz6OAqPB
PIN7QIJbbj+h5KHBEJKgQLQ4g78SFqvBdMS5QD4WV8BbDYTBvDTCQGSQ7L95poTBTIf6QCYXSL/+
63PB6y+7QLRkwr/uV2LBVXiyQEcd3L4BXZjBEoPhQAgTzb8xMo3BeDi2QG22tL+waT7BSBc0QW4V
WD5iVrXB/5UFQeixNr29OTXBM9JNQIHFk8CSkKjBZqH9P3btY8CQfJnBDLK0QNhYo8Av16bBjkoU
QSo2AMDQVpbBSzJLQN+gQMC9mYjBB+raQHcLksDr6ZXByGwxQZPpyb/gcKPB6kkKQZFlsT9jHbPB
YTkVQRPpAz6sAmDB8KPMQPcO/T+cvKHB58TGQNtkrj/tKK/Br+pHQOyEhT4NO5/BkCyCQCXp3T89
+pvBLnJqQNBqrz9orKnB0ZCGQMhd1r9XOqjBRfqXQBjTG79T8bLBoC++QJZqzr9y0avBI/6lQHSW
ZcCsAHrBqlTYQGqyecDRd4PBMAmkQLXiqb80b4bBm5SdQIzb8b/HoWPB2NebQE3a+L5juZLBZab+
QPQ5AMDfZ4zB3CFvQKTtjMC/9qDBNMCjQA5zlcBYJaDBFhpDQC+Kc8C/XpjB4AUSQXZ6o7/P9JzB
9uO5QBlHi8CSrpbBaExvQDveXsDG7I7BEXUiQebIg788WKTBM+ULQTrVHD8ncK3Ba778QML8Fb9l
3Z3BEVj2QNlUrT4WPKbBl62jQPFwccBQBo7B9G4fQRRJp71ciazBTgEGQR966L5kQV/BN6XZQAy+
Vr+uUpbBY630QFy9Jr8hzkzBUGDJQN9Qmr/Wlk7BnGTUQHEPrL+0hnTBQqXLQFQGhz9JJafBuien
QPXDBT4dBqPBtit7QIh/cT/X2KHBXDGfQNb0hb+92arBKma7QP9jVsAmIITBURXDQG2U6r/QsITB
HGz7QP47VL9PMXPBFjO6QFCfv7/ZqGLBlLqyQM/Rz76oVpjBdlviQJ80yL/3M43BkkizQJBEtr/t
0D7BNeIzQVJ6Xj6vsLXBoi4FQR87hr645DPBCRVNQBoclcD/MqjBR5m0QL/Io8C7yKbBuwj/P04V
ZsBuCpnBhGAUQcQm/7/rmJbBM8PbQHWnkcBkDJbBDOFNQB/LQMDHXIjBXGkxQUNkyL+Ov6PBBsUJ
QWgnrT/Ho7PBBrMVQWgnv7slVF7B+3vMQOKl/D8wUKLBU6nFQFIaqD9Ika/BXLJHQKgckz6e7p7B
qauCQAOA4T8XG5zB/A9pQHZcrj+4qanB90qFQNRO17/4vafBcwiWQKFmJr+lu7LBm5y8QGtA0r+m
oavBVUGoQCnBZcBn/XnBkULaQM0UeMCYs4PByKmkQBi0qb8UeIbBByWcQGEd6b8jeGTBopCcQEyp
4L73kpLB6uf/QFZE978cUozBJDh1QMwgisBDY6HBSeumQEwAksDPlqDBFiZIQK6accAVo5jBYE0T
Qcdmgr+xN5zBEbW8QFbQiMDUApfB1JhzQJYaX8DnEI/B82cjQQYsJL+/cqPBlH4IQS8dqz6WRa/B
G3D7QA+dNb+6hp7Bo5vwQHa97r2MXqjBHwWmQHfvb8CXNY7B6A4eQSg8rz0ouazB2xIFQWGyx77q
8F3Bd2vZQHD3bb8QnpbByq7xQD54Gb8H4UvBjDXHQEbjmb8oVU7BHt7UQJJFq7/kCHTBVerBQK5m
FL0Ti6vBnACnQEaPtj6arKHBjimvQOR36z+N2J7BWlpuQAgyHz4KIKTBEHC9QFXTVcBJNoTBmqPE
QJDf6L/djITBZET7QNwPSb+/I3LBoci5QHAmwr/7lmLBHyayQJJVAb94Y5jBePbjQDg0wr+M/IzB
RyWwQGA8t7/78z7BKSsyQYiiJj8OOrXBQWkCQU/xJL4wqTLBVMhTQN1lkcBWuqjBYiK4QGkVn8BL
VKfBNlUEQMNHZcBsSJnBemEXQetgxb+M8JTBVK/eQE2jjsAZZpbB+UtRQH8FRMBMX4jB0twzQWFq
aL9i5qHBC2sEQZ5qXj8/f7bBIIoUQc2iqj3YglzB6OK9QDeyOD+417HBdj+3QLzigb81ja7BWPGb
QMVsB0Ab0JfBVE7RQGMH/j9IDJ3Bzg2mQNxSHkB5qqXBqC9IQE5L3z5qFJ3BE/ZbQGhyST9M9KrB
s4ZiQDiJZr+3GKbBSz2qQNuaZsACSHrB+nXcQPHxdsCH04PB8wumQHucqb/bXobBYkmcQGVY8L83
22TBvPqaQOO9Rb8sTZPBdVABQQ0a4L93q4vBW+92QLT+icD8iKHBZz1JQC8AcsCJy5jBxsqnQJyp
kcDWrKDB9BcTQfgYg791HJzBPR10QBmdX8ACLo/BC0m9QJWYiMCoC5fBijUjQYDdH79AP6PBhykI
QfnVjz6OXa/BvOz6QC7mP7++kp7BRv3vQO+/QL6ihqjBpkqmQBALcMBvQY7BucUdQRg/qD15m6zB
fxkFQfsPuL6TTF7BFwPZQDoqb7+0l5bB5XXyQGjQFL+AC0zB8DDIQPQomr9IKU7BnZ/UQEkHqr/2
/nPBByTBQOIuv72EkavBy56nQFUtwz5OsaHBKnmyQOwa7j8cQZ/BcLNuQNQJgT4C2qPBil69QIm8
VcAQNITBmTjEQAZ76L+GgoTBptb6QISQQr/YXXLB4yS6QGlzwr+VVmLBtiayQGGF8L4eSpjBNHvj
QGpOwr9c9IzB1vSxQO16ur8Jkj7BguExQRjKMj+W4LTBDyEDQROEBL7CAjPBAfVVQMwqkcDf6ajB
L2AFQO4XZsCJe5nBN0C5QGl+nsAGaKfB6DAXQXDYxL/RypTB8FRRQN7pRMA4gIjBlUTfQJJNjsA5
YpbBm70zQWCyW7+EkKHBmQsEQZ6ISj9vsrbBb3kUQQwDAz6tHl3Bkyy9QDyxID/DI7LBgHe1QJtK
ir+oIa7BlTugQJ9oDECmN5jBue7UQEw5+j9BoJ3BPvqpQL/tHkBFMKbBvMVKQJZxFz/HyZzB5lJd
QIMYXz+ryqrBqfBeQPasTL+1haXBaguqQPzlZsD4VXrBOIDcQD1pdsD7xYPB2I6lQJG8qb9pU4bB
La+cQNev8b8jYWTBbPWaQAFYMr/DFZPB4REBQQNH4L8voovBYCVwQACkjMB8sqHBbmmkQJKslMAE
DqHBcTREQCPvdcBt55jBYCMSQbj5or99qJzBINy6QGgmi8BwmJfBH8xwQNtQY8C8cI/BSKsiQe0Y
h783FKTBVn4MQRBsFT+EbK3BgCX9QBccE7+AuJ3B8F33QB+srD5KNabBXqOkQE0cdMBBwo7BPdsf
QXqSAL4jbqzBCjzCQCYboL91Tk/BXkbZQBRTUr8BV5bBmKTrQHymVr/DjUvB3ksEQSyVLL923l3B
eu3OQLFHtr9VXnTBCufMQMOUhz+ITqfB3AaoQAXpBT7yeqPBW958QJo1cj9ygaLBXNqgQPSKhL/s
dKvBcjG8QDvXWcC824TBaH3AQKbX778J9YTB6jm0QE1Dxb/SEWTBuCH5QExrfL+xyHHB4F2yQJi7
174EwJjB9DPhQGZtwb+s+4zBjaUWQQCXib4lx1vBf0Y0QRkcCT5/sLXBdPX8QFqWCL/ghzHBw8lN
QMARlMDl9ajBTCG1QJsjosBy06fBt2cAQLgzacCvcZnBzV0UQUNm/L8JKpbBBeLcQLfkkMAFG5fB
QltPQGIkSMBLr4jBToUxQc/fzL9oYaPBmo4KQdhKqD+FtbPBNEysQIP5rL8WDULBB1zNQE1P/D8g
Y6LBVrnHQMo/qj+tvK/BerRIQGMylD6ZzJ/BJwWDQNb54D8orZzBcGhsQMHurz91WKrBKamGQPJx
1r+8kKjBXXiYQCbNIL+cW7PBtVi+QAqw0L+6G6zBRDuqQEw0bsBYdnvBSCLcQPdqd8ADxYTBc3+h
QIRqtb+++YbBzBYGQaBPZr8WkX7Bwz+bQHvh+r7tPpPBLmj/QAKs5L8LhovBuJ1yQNxmjcDwHKLB
YDZFQCXrdsBneJnBS5ClQMJ3lcACNqHB3hwSQToypb9UnpzBZCRwQK3sY8CQ5I/BiCi7QPzUi8D/
oZfBRKYiQZAJi79AEKTBSm0MQQHWBj/6pq3Bphv9QMSgF78rvp3BBUv3QB7TmD7XYabBczWkQF0N
dcCG747B8NMfQVzAMr41iqzBW9XCQBDrnr/lW0/Bu1bZQLQWUb/8QZbBLFrqQNg4Kb/dQ0zBANkC
QSA8175o+l7B72TOQGh9tb8Di3TBwgrNQBDDgz+kjqfBgQOoQBBjDT4jUqPB7MN9QLhUej9+fKLB
h9WfQCPth79w56rBjPW6QL/8WsBy4YTBGfG/QOx38r9PAoXB/Ry1QJQvzr+b22PBXcz2QNB3U7/m
lHLBjs6yQBpTu75UeJjBw77gQIrixr8GGI3B3mkUQdi04z29cV3Bq1U0QTj2oT00w7XBJnv7QAqN
gL6wkTLB/4RRQNEBlcC9dKnBB48BQJsNasDONZrBe+G2QBULo8Ca36fBP1UUQUBT/b8YDpbB+ZFN
QFo1SMAAQ4nB7BzdQLSnkcD08ZbBNIQxQb9j0L8gSaPBsW4KQV6Dnj/2ErTBHymuQJIAtb8NykHB
+CLOQHN8+z8e76LBWn7HQKpRoT9uDLDB50BJQIpZsj7ZfJ/BhymEQHxx6D8T8ZzBU+psQDhbrz8Q
b6rBkIaFQLls1r9nuafBviuXQKxaML/t5LLBgwK9QOUp1r8TeqvBhCCoQHCRbsCJuHvB66vaQOpv
ecBbkYTBxyahQGz/tr+TGYfBjnwEQVaeMr/oln/BAGmcQFZtub6TwZLBG4z+QGrl8L+v1IvBriWB
QHiYisAg9qLBhUZOQHUgdsDknJrBzyKtQJXUkcAiOqHBbCgTQbfMgL+hApvB1TJyQA15ZcCrhpDB
wSq/QBOUicBuIJfB8xMkQQ6NKb9Z56HBgJkKQbyDjD4yqq7BmLT7QDpNNL9M953BgkfzQF0DCr4R
DqjBVQGlQDN/dMCZwo7BFNMfQSCloTyziavBQY3EQFRVl79J6U7BRJvXQMXvbL+MkJbBjlTtQN4j
Lr8OUUzB2QAEQQAU976HX1/BWffNQIzqsL8ZN3TBDnDFQHBAQL013avBxouoQPTJvT7eaqLBnsCw
QBxW7T95mJ/BvLlyQGg9Pz6wlKXBDIS4QBfeWMDcWYTBBGu+QBiJ7r88vITB2RS1QLADw7/fP2PB
+X73QEH4Xb+Lt3LB6wqxQIwE+L6i5ZjBBVXfQEIzx78w7IzBawMWQWBB8LvfWV7BltM0Qe0WAz+L
z7PBb34AQai5qL4L2TLBV6tmQL37kMD8t6rBc+YKQGQka8C+95vBs/jAQEyzncBipqfBuWsWQUjS
v7/SfpPBmJRKQLYuTcBbIYrBFeHgQN7yjsCKx5XBY1M0QYrBa78Z0J/BxFkHQcFKSD9RHbbBVkGw
QDs+qL/4FUHBcwXDQERoMz83SrLBHyK7QCaGg79e6K7Blh+cQMh9CUBV3ZjBW4HSQA5M/j+fVZ3B
03mpQI/sHkD+lKbBnm5JQAOt9z583J7B90ZkQFtUUD/5lKzB6fJmQN11Xr/DkKfBFDOjQCckasDo
YHvBSbjXQKI/eMDBQYPB6dyfQLXJsL+ZyIbBA6oEQW1YR79M7X/BpqGYQDxLO78OHpTBHHv9QJ7U
6b/uVovBijeBQCnDjsBCmaLBV66tQPuRlMCAVKHBGMxQQI8vfcBWGprBAioTQb0WfL99qZvBMmDB
QI9oisAciJfBXvx3QFjSaMBGUpDBZzsjQVCiHr9S+qLB//YHQb6xtT3Mya/BXfD6QBc7SL9SZ57B
EvPvQFptuL5SxajB2laoQEFxdcD8/o7Bs5gdQcBblrwYyazBmmLAQDH/nL+SME/BLZDYQJrkYb9R
aZbBxofpQP+eS79gPUvBYU4DQW8MGr8Ab13BZ+LNQIg9sr/mKnTBnxfBQKbKp77R0avBWXWoQK7U
rj5Zi6LB0OK0QOxP6z802aHBSApwQNW6ZD5OeqTB/Pe8QOddWcCcvYTBRkrAQKSL7r+c2oTBWvGy
QLAvw78RAmTBaKv3QO9la79ka3HBXbqyQNhssr5CR5jBXzDhQOeTv7+Qy4zBzY8VQQHBO75/J1vB
LGsxQTt9Fj+gSbXBJLT6QOkQCb8zEzHBjkRkQLq9lsC0HKrBrJzAQM3QoMDX4KfBuMEMQHoUdMCe
HJvBZl0XQQQ1tb/zBZTByHTjQGiXjsDJjJbBNjJSQDSAT8Du0InBztgzQeCmTL++FqHBaLIDQc5v
Az+wcLfBQjqqQNLyqr8yC0LBTMy8QALagT53NrPBtD61QKkOrb96Da3BgE2jQNUFFEC6PJvBYH7X
QNWZ9j9pZ6DBXrKsQOGxFUCDaanBsVBNQLOdMz/12J3BwGBfQHn6OD+oCazB2hleQMW6Vr8r76TB
Nl+pQG8WbsA/z3vBkx7dQLONdcBfF4TBhSihQHWwtr9TBIfBO2QFQTH+T78SI37BJimcQIfU0L5d
oJLBN7X/QBOZ2r/4FIvBQv0FQQ/qs8D8QobB1Wv4QNNJqcAM6njB3QH6QHXOpcBZ/Y/BqxoSQZ5T
pL/lHpzBz8vTQE1Mj8C8sXjBfOXUQORdjMCn5o/BMvUiQf7Eh78wW6PBJL4MQWKjBz9vO63BOND8
QGWzHL/YlZ3BiT/3QBL7jD7wO6bBPZ/CQOzkf8BLB4bBYkggQTBxGr6G3qvB4XkHQScoCL+tFWDB
dozYQEWCU7/lVpbBi3D5QCVOLb8BB03BT47NQKh8mb/hhE3B8RzTQJSFp7/f3HPBv2fMQIX6eT/d
r6fBg3OnQIAslj3OgKPBGMh7QGEiYz89d6LB6L+fQJ7Qkr8Y5arBA2qjQJyeNsCaqIXB2uC8QFYV
w78xiITBYRD7QH1GWb+8enPB/pi7QNQ9vr8/ImHBAg+yQGAM0b7yxJjBXqHeQCjVub9Nx4zBGi65
QFKasL+uED3BHCE1QRjF/D1T27TB+vEIQbwydb5V8TTB3GoUQWbuxsBRU4bBYMwCQZggtcCTE2rB
zFwEQSaHrsAuf5fBEDAUQQBY+78MfZXBy8rEQIMTh8AprmnBQWvGQFFcgsA8VpfBeu8xQav4yr/X
ZKLBy+sKQURrnz+Fo7PBi8EXQevbLb59EmDBkJTMQKH39T9eL6PBelfHQGbilz9PO7DBXzVIQGsH
cj4/gZ/BRd+CQGWe2z8W0JzBo/JpQDBjpT+tVqrBS3iFQNzq4L+fqafBBUGXQAjsS78l9rLBnBC9
QAl44L+rT6vBQnqQQJleNcA2E43B7eONQJZmPsAGh33BOVWmQNe5Mb/Ty4XBz4SdQCV26b9B7WHB
sU6bQKM31r7oJJPBdfj6QG5O8L+rSovBLJQEQVgKvsAHXXzBDpsAQawcsMAVuYjBeR7xQCI1rcAF
RGvBcP0RQfSwsr+M+ZvBTanhQJLjkMDZtYrBiADRQJarjsDxRG/B9ywjQQATor9ZMqPBK9ANQZSF
ej4AOK7BpRT9QKOINb+T553Bud74QBgMyD1zH6fBP2vJQCnAf8DeK4LBUxshQWIM476WS6zBjcsD
QVfjJ77q3V3BqlXYQBICUr98eZbB8JH2QA0hKb+kIEvBwN/OQBieuL/4RkzB5GjQQOTckb98pXLB
warPQFDjXz+e6KjBDYeoQMArxz2XUKTBE7aBQMKahj/Hk6PBq76cQMrFjb8ijqvBcX2oQJyqOcDp
U4TB8LS8QNosvb8OGITBnFv0QHKr3r5cs3HBw/+7QH/gy7/oEWDBuBOyQASdy74dVJnBhoneQLNW
r7/RZ4zBO8m+QB+a+b/UWzzBi3o2QWYai74OMbXBFLkHQUB0sb6CpDLBP9cQQfae1cA9U3nBB6sJ
QQBlvcCRSY/BalL3QDW4t8BpGVvBkaQTQS07AcCM95TB0//bQBXwhcAsyJLBnwW+QAZygsCXL2LB
nPExQXcS5r+WwqHBqVUMQcmhYj+bIrXB3RMSQfu94j5RR13BthbSQHfK7D+h4qTBsgPLQD6ygz8t
i7HBFwRMQGPLAT+MVqDBGJWJQBRv8j+NRZ7BO9tzQKRxtz8nmavBaxeBQKGS0b/gIqjBe6GUQHTT
Pr/1nLPB6ym4QMG05b+1DazBzTuaQOB+RMBQQozBcWCPQGorPcCrWnzBWFejQNgyP78R1YXB6VSf
QDMIAsBXLGHBIIiaQJCl0b5m6ZPBIbL7QPWp27/bnorB

>  <OMEGA_E>  (4) 
EOxcPmitZj60TcA+7FvBPrgU3j4sjN4+5JEPP4gOEj/02xc/JKoyPw==

>  <OMEGA_NBR>  (4) 
     24064

$$$$
50225012
     RDKit          3D

 50 53  0  0  1  0  0  0  0  0999 V2000
    3.8027   -4.3840  -20.3197 C   0  0  0  0  0  0  0  0  0  0  0  0
    3.0645   -3.8165  -19.2621 C   0  0  0  0  0  0  0  0  0  0  0  0
    5.1838   -4.6261  -20.1699 C   0  0  0  0  0  0  0  0  0  0  0  0
    9.1263   -1.2870  -19.5049 C   0  0  0  0  0  0  0  0  0  0  0  0
    3.7042   -3.5031  -18.0506 C   0  0  0  0  0  0  0  0  0  0  0  0
    5.8266   -4.3114  -18.9573 C   0  0  0  0  0  0  0  0  0  0  0  0
   10.1832   -1.0592  -20.4032 C   0  0  0  0  0  0  0  0  0  0  0  0
    8.8196    0.5744  -21.6048 C   0  0  0  0  0  0  0  0  0  0  0  0
    7.9056   -0.5922  -19.6663 C   0  0  0  0  0  0  0  0  0  0  0  0
    7.7475    0.3199  -20.7308 C   0  0  0  0  0  0  0  0  0  0  0  0
    5.0811   -3.7642  -17.8910 C   0  0  0  0  0  0  0  0  0  0  0  0
   10.0313   -0.1256  -21.4477 C   0  0  0  0  0  0  0  0  0  0  0  0
    6.7668   -0.8363  -18.7654 C   0  0  0  0  0  0  0  0  0  0  0  0
    6.4125   -1.3975  -15.2431 C   0  0  0  0  0  0  0  0  0  0  0  0
    6.5701   -1.1450  -13.0761 C   0  0  0  0  0  0  0  0  0  0  0  0
    6.4239    1.0404  -20.8964 C   0  0  0  0  0  0  0  0  0  0  0  0
    5.2623    0.1076  -20.4508 C   0  0  0  0  0  0  0  0  0  0  0  0
    3.9607    0.9233  -20.3531 C   0  0  0  0  0  0  0  0  0  0  0  0
    5.0619   -1.0475  -21.4646 C   0  0  0  0  0  0  0  0  0  0  0  0
    5.7585   -3.3648  -16.6062 C   0  0  0  0  0  0  0  0  0  0  0  0
    5.9474   -1.8393  -16.5916 C   0  0  2  0  0  0  0  0  0  0  0  0
    5.7537   -1.5511  -14.1222 N   0  0  0  0  0  0  0  0  0  0  0  0
    7.6431   -0.8342  -14.9546 N   0  0  0  0  0  0  0  0  0  0  0  0
    5.5536   -0.4576  -19.1060 N   0  0  0  0  0  0  0  0  0  0  0  0
    6.9959   -1.4864  -17.5669 N   0  0  0  0  0  0  0  0  0  0  0  0
    6.2954   -1.2044  -11.8858 O   0  0  0  0  0  0  0  0  0  0  0  0
    7.7594   -0.7346  -13.5743 O   0  0  0  0  0  0  0  0  0  0  0  0
   11.3422    0.1536  -22.5611 Cl  0  0  0  0  0  0  0  0  0  0  0  0
    3.3095   -4.6341  -21.2474 H   0  0  0  0  0  0  0  0  0  0  0  0
    2.0089   -3.6228  -19.3823 H   0  0  0  0  0  0  0  0  0  0  0  0
    5.7487   -5.0531  -20.9854 H   0  0  0  0  0  0  0  0  0  0  0  0
    9.2464   -1.9903  -18.6942 H   0  0  0  0  0  0  0  0  0  0  0  0
    3.1412   -3.0621  -17.2413 H   0  0  0  0  0  0  0  0  0  0  0  0
    6.8860   -4.4880  -18.8436 H   0  0  0  0  0  0  0  0  0  0  0  0
   11.1116   -1.5999  -20.2929 H   0  0  0  0  0  0  0  0  0  0  0  0
    8.7139    1.3042  -22.3938 H   0  0  0  0  0  0  0  0  0  0  0  0
    6.4218    1.9491  -20.2766 H   0  0  0  0  0  0  0  0  0  0  0  0
    6.2870    1.3165  -21.9523 H   0  0  0  0  0  0  0  0  0  0  0  0
    3.1377    0.2651  -20.0379 H   0  0  0  0  0  0  0  0  0  0  0  0
    4.0880    1.7297  -19.6158 H   0  0  0  0  0  0  0  0  0  0  0  0
    3.7263    1.3586  -21.3357 H   0  0  0  0  0  0  0  0  0  0  0  0
    4.2366   -1.6922  -21.1282 H   0  0  0  0  0  0  0  0  0  0  0  0
    4.8211   -0.6298  -22.4533 H   0  0  0  0  0  0  0  0  0  0  0  0
    5.9860   -1.6404  -21.5322 H   0  0  0  0  0  0  0  0  0  0  0  0
    5.1355   -3.6672  -15.7516 H   0  0  0  0  0  0  0  0  0  0  0  0
    6.7392   -3.8583  -16.5378 H   0  0  0  0  0  0  0  0  0  0  0  0
    4.9986   -1.3457  -16.8486 H   0  0  0  0  0  0  0  0  0  0  0  0
    8.3293   -0.5486  -15.6236 H   0  0  0  0  0  0  0  0  0  0  0  0
    4.8094   -0.5521  -18.4449 H   0  0  0  0  0  0  0  0  0  0  0  0
    7.9389   -1.7348  -17.3458 H   0  0  0  0  0  0  0  0  0  0  0  0
  1  2  2  0
  1  3  1  0
  2  5  1  0
  3  6  2  0
  4  7  2  0
  4  9  1  0
  5 11  2  0
  6 11  1  0
  7 12  1  0
  8 10  1  0
  8 12  2  0
  9 10  2  0
  9 13  1  0
 10 16  1  0
 11 20  1  0
 12 28  1  0
 13 24  2  0
 13 25  1  0
 14 21  1  0
 14 22  2  0
 14 23  1  0
 15 22  1  0
 15 26  2  0
 15 27  1  0
 16 17  1  0
 17 18  1  0
 17 19  1  0
 17 24  1  0
 20 21  1  0
 21 25  1  0
 23 27  1  0
  1 29  1  0
  2 30  1  0
  3 31  1  0
  4 32  1  0
  5 33  1  0
  6 34  1  0
  7 35  1  0
  8 36  1  0
 16 37  1  0
 16 38  1  0
 18 39  1  0
 18 40  1  0
 18 41  1  0
 19 42  1  0
 19 43  1  0
 19 44  1  0
 20 45  1  0
 20 46  1  0
 21 47  1  6
 23 48  1  0
 24 49  1  0
 25 50  1  0
M  CHG  1  24   1
M  END
>  <OMEGA_C>  (5) 
8F9zQI1JjMCtjqLBSSFEQFNCdMDcGJrBDOKlQDQJlMDtW6HBfAUSQRS8pL8JCpzBBxJtQFEzYMCT
Z5DBdnO6QA33icCYqJfBMO4iQSWVh7/LOaPBGR0NQc0IEz+b1qzBc/r8QFWbF797VJ3Bq+v3QKzI
oz662KXBTJiiQHfocMCtII/BWoAgQceQAL7jlKvBo4nYQOoWVr+JH5bBfTPNQDfgsr+O43PB/j3S
QCGPkr/AN1HBdZDNQGArhT/LK6fBG2WoQHRg3D1Fm6PBjXx9QKJfbD8P06LBE/uhQN0Uhr91t6vB
xUW4QPxYV8CI2YTBd1G+QA1u67+Qu4TBAx64QHaLxr+Z9GHBlZT0QACQVb/qRW/BbbexQIhO6r4p
2ZjBH97fQB9Cvr8EiYzBQnTJQD8qmr9qLD7BaE34QDYRPL9FMFnBe3k1QR5CHT45fbTBhc9TQJNK
lMCU+qnBfpEAQHTbZ8AMD5vBQfW3QJ+yocAf4qfBWPETQeLC/r+ijZXB/ghJQBz6Q8A27onB1lnc
QPCdj8Crv5bB/8gxQV/IzL/zV6LB/msLQUjvpj+MJrPBgH/NQB99+T9mNqLBdS/JQByCqD9mnq/B
jc9IQCO8hz6pTaDB+tCCQMZm3T8e7ZzBHHtuQJXmrT9/r6rB/ZGHQN6a2L95BqnBkkaaQIk7Ib9X
oLPBRI2/QKb30b/YQazB5lWkQKizasCHBnzBxKfXQDrudsB4TYTBePSfQD9BrL8JyobB1kQFQXRx
DL88+nnBbuaZQDtXDb8Vj5PBxAv+QP8O3r8qxIrBQnZyQHbXi8Dk0aLBF0mlQDk8lMDwkqHB54tD
QA5hcsDdZZrBQN0RQXHio78DN5zB/dq5QD9kisB+25fB14ZsQNSbXsBospDBh6MiQcPjhb8EeaPB
/Z0MQWaPFz9k6azB/Zn8QHPMFb+4YJ3BNTX3QIG0qT582qXB3yiiQHbBcMCmXI/BTQwgQZCf171X
xKvByWDYQBFUVb9RGZbBJlHNQKNStr8283PBQirSQLrNkb9iUlHB1c/MQJOuhj/LD6fBptKnQGgx
8D26cqPBRTF8QEXRbT+Ao6LBs1ihQMgShb/wiavBT9W3QDlKWMDXBoXBfEq+QDKq7b8JyITBkxi4
QHiUx7/kAmLBqtv0QCgfX78nX2/Bj4WxQI0/475js5jB09DfQNdQwL9PmYzBpwbJQFgBlL/cSz7B
YHL4QAtnQL9iUFnBqug0QRd1RD4WtLTBHt1SQGC6k8A6P6rBq0G3QLA3osDbEqjBZzQAQDT/ZMAC
ZZvBP+oTQX2R/r9YxpXB5aPbQO2ZkMB06JbB0cRIQD6AQcCVQorBC4MxQVMly7/esKLBfsgKQT2V
qT8PMbPBB+jMQLqr+j+wEqLBdSHIQH6Sqj96fa/BFbxHQKWTiT69FKDBOC2CQABf3j/9wZzBf9ls
QI5Drj/ef6rBZwuHQKfS17/1zqjBDHOZQF2yH79pcbPB8vS+QO2n0L8xHKzBTbqjQKrWa8BrdXzB
ZhPXQGRweMBHfoTBOQigQIxXrb9wy4bBS4IFQanIGr9cGHrBbfiZQNbzBr9rU5PBVvT9QB7N4b89
6YrBWhRwQA9zi8A4QKLBCmJDQHCmcMCitJnBCymkQLgXlMCBTqHBnDYSQRZHpL8M2pzBRbpuQNyN
XMBYLJDBVem5QJ8OisAQxZfB4KsiQU4Qhr9XRKTBhk0MQavsGT8EZ63B+0P9QCERFr+Ey53BGBD3
QGRnqj4YN6bBcVqjQHBNb8DOJI/BQMQfQRiPzL0Ge6zBtODZQNgIVr8BUZbBiG7QQJQ1tL8tKHTB
mHn1QH4eI7+BJ1nB4lHMQHdkhT8YPKfBEdGnQLYBzT3uY6PB1gN8QJ7sZj88RqLBqKagQH9fh7+s
bqvBdm66QPIEV8A/AIXBR47BQJGT67+P3YTBG9P0QIR0Vb8OIW/Byk64QCSwxb8r1GHBeq2yQOas
6757uJjBi3jiQFukvr9ZzozB2xEJQQje270b4U7BRmPRQMcRlL/ck1DBmj00QYYTQz5VpbXBGKlO
QEmBk8ByiqnBK+X/P6HLYsAieprBjka1QDxrosA156fBCIMUQd9Z/79FdJbB07JMQHvFPsCSo4nB
i8LbQFZtkMDyDpfBzIsxQcvFy78YrKPBskQKQW3Nqz8Hm7PB+ZXMQEjQ+T8zSaLBf+DGQFJlqD8v
pq/B6HBIQImCcD47jp/Bm4uCQLy/2j8AZ5zBCsJqQE/7qj9+EarBG7uGQJ+M2r+gh6jBZd+XQBKg
JL9VSLPBGUW+QKR20r9cMqzB/wqnQJ3GacC6FHzB2ILZQIL5d8Cxr4TBu0ijQAr0qr8a1IbB/Aua
QG7i7r8vFmHB1ZybQGLoDb8BOpPBCmkAQSBy3r85O4vB5TxxQNPli8BkQqLBjb+kQLhllMDEQaHB
iBdEQDOIccCHwJnBn0sSQfrIor+/ypzBgUm6QBkuisCOs5fBHAZvQEoEXcCVNJDB1c0iQeBdhL/4
LaTBrUUMQSxEFj96hK3BykX9QA7FFb800p3Btv72QPCjpD4zU6bBHYOjQNFnb8C4Ho/BNtcfQV61
y71Ze6zBQ9/ZQHoSVL98UZbB9jfQQNAYs7+JKnTBDvv1QAiHLL9jF1nBVkrMQFDugz+IYqfBOcSn
QDlxyz3faKPBSi98QFzGaD92WKLByFmgQHgBib/0UqvBaly6QM2RVsD794TBMVzBQNaF6r8O34TB
3wL1QGQ4Wr8tGW/BnPO3QPa3wr+/2mHBD7qyQJbN475jspjBTVriQJ7vvb9qz4zBH8IJQQxATL6J
vU7BjGLRQDS1lL+7kFDBo2k0QbHlSz6Nk7XB7CZQQM8RlMCfkKnBCwi2QFLAosB80qfBuZ8AQPb8
Y8BrkJrBLJ4UQUkC/b+GWZbBgCLcQAF3kMAZ8ZbBvadMQCQvP8DZs4nBjsMxQbyuyL+MfqPB9CcK
QVdHqD8+0LPBRa/MQOFx+T/giaLBV8HGQNEYpT8X06/BkXxIQIhLgD5ziJ/B09SCQJ/Z3D/BkJzB
FNhqQCpgqj+2LarBUWiGQN45279ZVKjBGX6XQAHlKr8rNbPBAOW9QOSl1L+QDqzB1t6mQCcxacBw
CnzBYnvZQAZVd8CFmYTBZBOjQJwdqr+K2YbBhGmZQPKF6L/eJGHB6sibQImXBb9dJ5PBdVUAQZo6
3r+CO4vB8QGCQBfbisB8gaPBgdJQQJ08dcCRKZvBWS6uQHthkcDE46HBhRATQUTEgr8pRZvBD9R1
QBkuYsCgMJHBT8LAQEnuh8AD5pfB9IUjQYL0HL/hNaLByf4IQbLeIj77Jq/BUwT7QH5hT7/7O57B
oDjxQKRHqb7diqjBivmmQNFNcMC5fo/BRnAeQRCMJD2S36vBgejXQP6nb78Ia5bBbV3NQADGsL+0
X3PBnOLQQARjjr9qqFDBPdbCQPkmjr7N/KvBeq+oQN1knD6rn6LBh9m0QJV55T9Y5aDBPkVxQFK8
Vz4GKKXBpp+6QGG9VsA57YTBpnC/QNeF6b8akITBUz64QBE0yr/FjmHBOFjzQAINPb/cgG7BfF2x
QAIn976PuJjBV7vgQEXQt7/IVYzBb2jHQDxolb/QsD3B1jH2QGbLH78bZFjB5bgyQdxsMT9o3rPB
AIhnQJdRksBeJ6vBkzcNQIf9asDybJzBG8fBQK6gncBtUKjBVN4WQVokv7/qu5PBeLhOQHewSMBz
0YrBSaDiQCy8jMBQqpbBNwg0QQG1TL/PI6DBGigFQT7PHz+xtbbBS4K/QAEpuz7nE7PBvWi3QOYt
pb9K5K3BUh2iQN0KDUD3NZrBISzXQCX37j8iCZ/BP+etQIQ+F0CTN6jBuDlMQLOqID8pdZ7Bv05j
QH+gRz9ie6zBMINfQCHlV78qWKbBG82lQALia8Ajr3zBKEbaQA7VdMDpGYTBZLmgQDxdrb81pYbB
un8EQedI075fEXnBLUGZQOYsLL9ar5PB+WL/QHkcxb8aMorBM2iCQOWAjMDni6PBdJ6uQO7yksBC
+KHBZuhRQOQKeMC4NJvB0wQTQUedgL97RpvBCV/BQDI0icBHBJjB+UV3QI9SZMC2RpHBHkYjQe29
Fb8mSqLBu1oIQdT8CT7eO6/BqMT6QG8iUb9dMp7Bmm7wQD2ovb70jKjBzLinQI5icsDinY/BVdwd
QfBhXj1U+KvBHv3XQNy1a78JS5bBfOHNQCwrtr9xhXPBay/RQBNxj78s5lDBstjBQJlBrr4/1qvB
O3SoQB5imz7Ll6LBp+q0QBon5j/9jqHBH2twQByXSz5d26TBR3e7QLXxWMDPDoXBZ7y/QLLs7b8i
noTBLRe4QKeeyL90x2HBrPD0QIpHWb9on27BZ9SxQAHv175PaJjBr9zgQHKHur/qW4zB1i7HQDRA
kL8++z3BH4n3QOSbNr+AjljBDM0xQZ0GQD8p8rPBEg5oQH83lMCtKavBlxvCQEBcn8AeZajBMT8O
QKvubcB0cJzBuwcXQUq2u7/+uZPB1ULjQLf1jcCnz5bBGWlQQLZeSsD/6IrBNdwzQStvQL81RKDB
O0oEQdsKFT+R1LbBxAS+QOBLgz7CKrPB7kq2QJKRrr9pRa3BzMaiQNhVEECb9prBWmTXQJqV8D/6
55/Blm+tQMKAFED6EqnBAntMQIm4KD//Pp7BkXFhQOr3OD+fXazBz0leQOM2XL/clKXB1OqmQOLo
bsBU7HzBek3bQK5cdsCgTYTBF92gQNmJsr8upIbBSLUFQY/yE7+rJ3nBaW+aQC1NCL97BZPBOIn/
QKZEyr+cTYrBZ296QCX7i8A8i6LBIvVKQG0wdcCHAJrBbJipQAjTksCncaHBD3gTQS2ogr/ExZvB
UiZ0QOFmYMAnWJDBWEK+QGWCiMBqxpfBDP0jQcadKr+I2aLBn8UJQQo+gT7cUq/BHgv8QMYUOb9F
c57B5F/yQCebML5RiqjBBGCmQGomb8DYLY/BsC8fQZBPuzz5YKzBFhjZQIBAa793tpbB/RXQQPjW
r7/sxnPB3bf0QCzkJL+WVljBfirEQEjz870jJqzBpoanQKDxjj5Xm6LBY0quQOYe4z9l85/BNJNw
QDBqMD1IhKXBxU68QKghVcD88YTB/OTBQEiv5r+ewITBaj/0QKU9TL8baW7BVrq3QCxoxb/ElGHB
G7SxQEDfDb+aEZnBVabiQPaytb+sqYzBVcEIQZAuF755uk3BQJDQQF4Wl7/GF1DBQc4zQeNWET+T
q7TBpcJaQKAVlMCF86nBjgUHQLiEasA435rBMb27QIz7n8BOBajB9yMXQQ9Owr9hU5TBafhPQHMl
RcB40YnBZUngQCaKjcAU8JbBOVs0QVQobL8e/KDBOhoGQV+nQD8mwrbBD8PAQAT3Hz8nk7LBoWq6
QL3Qjb/VIq/BItmZQC+PA0A5JpnBmwnQQKUf+T843J3Bxc6lQI+oGEBx9KbBnMRHQIxspz4Tt57B
ZLBfQG5cJz9rhqzBdrZmQEKggr/AZKfBuL2oQF0oacC5JHzB7eHbQOAIdMBofYTBEi6jQD6Tqb+d
uYbBMH2ZQJcV77+1EWHBJdGZQLDSWL/JSZTB2LgAQQZ5w79GqorB0t2BQOg9i8BcZKPButitQMxr
ksCmo6HBUJ5QQEQ3c8BnN5vBIBITQbncg78fsJvBxjzAQFBSiMBkrJfB4Ux1QFPJXsDYQpHBAXIj
QdhCIb8Cs6LB8MsIQXYaTT5iWK/Bfv36QPfJSr/be57BgOfwQOcskb5Br6jBVn+mQH2PbsCebI/B
MUoeQWikQj3SPazBZDfYQJpjcb/6npbBFAvQQF7csb8MhXPB2Mj1QF7oHr/XqFjBwnnCQH13bL5r
GazBnOenQCk/lz7bmKLBbsayQKKJ5D/Dj6DBld5vQO4gKz5gJqXBPDG6QHwuVcCv24TBjvnAQAqQ
57/wmITBQjX1QKJvXb9rhG7BHMS3QGUXvr9QJmHBVkyxQFzOA78v2ZjBNL3hQAQQub/+kozBrbsJ
QXSlDL6Zg07B/urPQPlqgL+kIFDBJo8yQUK+Lz+TT7TBo3VnQMBFk8AoBKvB2G3BQPWqn8D28KfB
UlQNQBnhZ8DBl5zB7vIWQUMNwr8gOJTBEfnhQAuZjcDpVpbBjVdOQKsHQ8A9BovB9fIzQSpcV7+x
xqDBFuQEQXbXLz+vzrbBJ+y+QMOx4z6U/LLBsHq3QAOAnr9BUq7Bq8WfQIAaCkCZx5nBIgvVQDgB
8T8btZ7BszyrQEzsF0AYwafB1yFKQLAVCz+eW57BMNNgQDF8QT+FV6zB4gVgQBvBY78tlKbBsLKk
QMP9Z8CJmHzBTDDZQP2mdcB45oPBAJSiQP1Ep7/7eobBNeiZQMuI678uO2DBhVyZQCB0Pb+e2pPB
n0IAQbXdyL+Qn4rB

>  <OMEGA_E>  (5) 
gPouPjBKMD4gvKY+dPqmPvCHqT7Emqo+KGzoPvB/8T4=

>  <OMEGA_NBR>  (5) 
     31153

$$$$
50225000
     RDKit          3D

 58 62  0  0  1  0  0  0  0  0999 V2000
    3.7546   -4.4941  -20.1212 C   0  0  0  0  0  0  0  0  0  0  0  0
    3.0209   -3.9232  -19.0619 C   0  0  0  0  0  0  0  0  0  0  0  0
    5.1376   -4.7287  -19.9815 C   0  0  0  0  0  0  0  0  0  0  0  0
    9.1890   -1.2306  -19.4622 C   0  0  0  0  0  0  0  0  0  0  0  0
    3.6691   -3.5926  -17.8599 C   0  0  0  0  0  0  0  0  0  0  0  0
    5.7868   -4.4035  -18.7778 C   0  0  0  0  0  0  0  0  0  0  0  0
   10.2549   -0.9816  -20.3411 C   0  0  0  0  0  0  0  0  0  0  0  0
    9.4029    0.6435  -14.1987 C   0  0  0  0  0  0  0  0  0  0  0  0
    8.8231    0.4873  -21.6650 C   0  0  0  0  0  0  0  0  0  0  0  0
    9.8868    1.1712  -12.9844 C   0  0  0  0  0  0  0  0  0  0  0  0
    8.1581    0.1444  -11.7647 C   0  0  0  0  0  0  0  0  0  0  0  0
    7.9301   -0.6236  -19.6884 C   0  0  0  0  0  0  0  0  0  0  0  0
    7.6138   -0.4001  -12.9440 C   0  0  0  0  0  0  0  0  0  0  0  0
    7.7443    0.2205  -20.8032 C   0  0  0  0  0  0  0  0  0  0  0  0
    5.0477   -3.8504  -17.7118 C   0  0  0  0  0  0  0  0  0  0  0  0
    8.2489   -0.1527  -14.1765 C   0  0  0  0  0  0  0  0  0  0  0  0
   10.0727   -0.1187  -21.4379 C   0  0  0  0  0  0  0  0  0  0  0  0
    6.3710   -1.1821  -12.9485 C   0  0  0  0  0  0  0  0  0  0  0  0
    6.8062   -0.8620  -18.7738 C   0  0  0  0  0  0  0  0  0  0  0  0
    6.5888   -1.3423  -15.3410 C   0  0  0  0  0  0  0  0  0  0  0  0
    6.4204    0.9318  -21.0075 C   0  0  0  0  0  0  0  0  0  0  0  0
    5.2420    0.1706  -20.3367 C   0  0  0  0  0  0  0  0  0  0  0  0
    4.0652    1.1445  -20.1480 C   0  0  0  0  0  0  0  0  0  0  0  0
    4.7782   -1.0221  -21.2057 C   0  0  0  0  0  0  0  0  0  0  0  0
    5.7500   -3.3948  -16.4666 C   0  0  0  0  0  0  0  0  0  0  0  0
    6.0246   -1.8913  -16.6075 C   0  0  2  0  0  0  0  0  0  0  0  0
    9.2710    0.9160  -11.8015 N   0  0  0  0  0  0  0  0  0  0  0  0
    7.7267   -0.6649  -15.3591 N   0  0  0  0  0  0  0  0  0  0  0  0
    5.8717   -1.5722  -14.1663 N   0  0  0  0  0  0  0  0  0  0  0  0
    5.6270   -0.3284  -18.9962 N   0  0  0  0  0  0  0  0  0  0  0  0
    7.0040   -1.6921  -17.6902 N   0  0  0  0  0  0  0  0  0  0  0  0
    5.7677   -1.4634  -11.9215 O   0  0  0  0  0  0  0  0  0  0  0  0
   11.4004    0.2096  -22.5158 Cl  0  0  0  0  0  0  0  0  0  0  0  0
    3.2554   -4.7528  -21.0433 H   0  0  0  0  0  0  0  0  0  0  0  0
    1.9624   -3.7402  -19.1738 H   0  0  0  0  0  0  0  0  0  0  0  0
    5.6981   -5.1580  -20.7988 H   0  0  0  0  0  0  0  0  0  0  0  0
    9.3291   -1.8845  -18.6142 H   0  0  0  0  0  0  0  0  0  0  0  0
    3.1129   -3.1421  -17.0512 H   0  0  0  0  0  0  0  0  0  0  0  0
    6.8474   -4.5766  -18.6699 H   0  0  0  0  0  0  0  0  0  0  0  0
   11.2132   -1.4515  -20.1759 H   0  0  0  0  0  0  0  0  0  0  0  0
    9.9117    0.8486  -15.1290 H   0  0  0  0  0  0  0  0  0  0  0  0
    8.6925    1.1576  -22.5016 H   0  0  0  0  0  0  0  0  0  0  0  0
   10.7692    1.7939  -12.9952 H   0  0  0  0  0  0  0  0  0  0  0  0
    7.6810   -0.0561  -10.8168 H   0  0  0  0  0  0  0  0  0  0  0  0
    6.4872    1.9392  -20.5708 H   0  0  0  0  0  0  0  0  0  0  0  0
    6.2231    1.0122  -22.0866 H   0  0  0  0  0  0  0  0  0  0  0  0
    3.2245    0.6170  -19.6738 H   0  0  0  0  0  0  0  0  0  0  0  0
    4.3810    1.9813  -19.5076 H   0  0  0  0  0  0  0  0  0  0  0  0
    3.7491    1.5316  -21.1279 H   0  0  0  0  0  0  0  0  0  0  0  0
    3.9458   -1.5390  -20.7057 H   0  0  0  0  0  0  0  0  0  0  0  0
    4.4440   -0.6528  -22.1866 H   0  0  0  0  0  0  0  0  0  0  0  0
    5.6150   -1.7226  -21.3433 H   0  0  0  0  0  0  0  0  0  0  0  0
    5.1129   -3.5784  -15.5889 H   0  0  0  0  0  0  0  0  0  0  0  0
    6.6988   -3.9395  -16.3513 H   0  0  0  0  0  0  0  0  0  0  0  0
    5.0848   -1.3739  -16.8506 H   0  0  0  0  0  0  0  0  0  0  0  0
    4.9824   -2.0271  -14.2122 H   0  0  0  0  0  0  0  0  0  0  0  0
    4.9735   -0.2573  -18.2426 H   0  0  0  0  0  0  0  0  0  0  0  0
    7.8686   -2.1915  -17.6359 H   0  0  0  0  0  0  0  0  0  0  0  0
  1  2  2  0
  1  3  1  0
  2  5  1  0
  3  6  2  0
  4  7  2  0
  4 12  1  0
  5 15  2  0
  6 15  1  0
  7 17  1  0
  8 10  2  0
  8 16  1  0
  9 14  1  0
  9 17  2  0
 10 27  1  0
 11 13  1  0
 11 27  2  0
 12 14  2  0
 12 19  1  0
 13 16  2  0
 13 18  1  0
 14 21  1  0
 15 25  1  0
 16 28  1  0
 17 33  1  0
 18 29  1  0
 18 32  2  0
 19 30  2  0
 19 31  1  0
 20 26  1  0
 20 28  2  0
 20 29  1  0
 21 22  1  0
 22 23  1  0
 22 24  1  0
 22 30  1  0
 25 26  1  0
 26 31  1  0
  1 34  1  0
  2 35  1  0
  3 36  1  0
  4 37  1  0
  5 38  1  0
  6 39  1  0
  7 40  1  0
  8 41  1  0
  9 42  1  0
 10 43  1  0
 11 44  1  0
 21 45  1  0
 21 46  1  0
 23 47  1  0
 23 48  1  0
 23 49  1  0
 24 50  1  0
 24 51  1  0
 24 52  1  0
 25 53  1  0
 25 54  1  0
 26 55  1  6
 29 56  1  0
 30 57  1  0
 31 58  1  0
M  CHG  1  30   1
M  END
>  <OMEGA_C>  (6) 
3kpwQKXPj8Aj+KDB1lVBQN8Ve8DDfpjBhWekQI5Rl8Ao2p/BCQYTQQiEnb+GspvBqtJqQBLtZcAI
4Y7Bky25QK7pjMAIOZbBNxQkQVNNe7+TuqLBcHIWQQK7JD/cLWPBcCsNQdx7+T7nUa3BfzAeQRLr
lT/uv0/BhocCQdXjEz5GPDzBJcP9QEemH7/ugZ3BHqTzQHrczL7PGk/BD9H3QNjJYT7tbKbBvoah
QFlsdsDOsY3BoPsDQZRTHL7m0mLB1SkhQVQR873egKvB6t7LQIRNl78BLU/BFczZQO2rXL+rMJbB
n9fSQDTRq7+TdHXBJnTNQD2Hbj9KD6jBW76nQCy4Lj6FsaLBGRaCQIJ+kj8fL6HBn+aYQNbSgr9f
panBWwC4QM1EWcCYu4PBaMnAQKIU8r8Z3ITBNFYUQUSBaj/Q0jzBdUH3QFg3Kr/xvnXB7uS7QAI+
yb9bqWLBoRC0QHYoqL4x+JfBZyDgQGKW2L+XhY3BN5G4QFZPu79Zvj7BImg2QfCgVj51ILTBnFhQ
QPUWmMClWKjBfi/7P2xfb8AKZJnBvFa2QGwOpcABZKbBCkQVQRc48b/J6ZTBBzlHQMMXScDKaIjB
qx3bQMVzksD5W5XBX2kzQerLub9HaKHBZJYeQfc9WT9lEHLBZxQLQUktlD9UA7TBkE4sQcCf5T9X
7E/BFsv1QCf8Zb1/ES3BKZfPQIc2+D8JkaTBfSPHQBaQgT9nsbDBml1OQCvzHT/aY53B7DCMQHua
/T+nD5zBUPFvQOwMxD/yBanBM4h8QIv8xL9QpaXBazWOQBMfJ78afrHB1K2zQEh/3L8pv6rBy5yj
QDwFZcA4bHnBZlzWQPUffMCQz4LBlLaiQCHbr7/3zYbBdG+fQLW8AcBEZWPBxCafQO7Bg77y8JHB
y8v7QChBDMBFFo3BJz1mQMCHjcC8Wp/BUn+fQIBqlcBW75/BRe9BQB/aeMBo95XBC4QSQWZwob/b
vp3B6ty5QOg3jMA7IJfBEVh2QH9ZZ8AOHo3BgAMiQeJRh79+sKXBn9wVQRQWfj7nnlrBWqgKQe4L
Ej/sda7BBUIbQXghID8QkkXBymf2QEB2hb7X7zfBeNf9QIidDr88Op7BzH/pQNCAJr+9jkzBprD1
QESxrj5VrabB5omnQH+5d8AnsY3B1lgCQQgZz77uIl7B9RceQRhQEb4JBa7BMA/AQOgspb9rjFDB
xj3cQPyZS78KS5bB3nLTQAZFsb9Hj3XBKNXKQKhwhz8pLafBeDmnQNzVFz6Ja6LBNMh7QNMcdj9s
z6DBKp+dQIJfh79K2KnBdITDQCljXMDzooTBqrLGQNr+9L8/QoXBkyIOQdi7uj7MwzTBxEn5QMj/
Ur+RkHLBwLK1QPYxyL/HSGXBniG1QIzYsr6J1ZfBFhLmQKB5xr+4bo3BqjynQP7/y78GNkLBsTox
QSAlsj3M9rfB5OY9QAuklMBFJKbBQTitQDKIosCpJ6fBJR/8P0YnbMD2lJXBMogVQWgF+r9ASZfB
yfDbQHKpkcCUl5fBSdxaQNBoTcAb4oXBie4wQSbzzL8ja6XBzY4gQW556j5OxWfBBuwHQR4hpT+0
wbTBODkqQSFYkT/yu0LBVNHhQMUi7b7mcCrBCq7MQEjX/j8eiaLB1CLDQEFjpT+Xjq/B5cVJQBlc
nz5hcp3BzCKEQDqp5T8TR5vBEztmQMoWrj+MjqjB716EQEzl1r9KQabB2N6SQNm/ML9RsbHB59G6
QH5U1L8h26rBxUa1QDDOb8Bi7XnBS3bjQEFBecDIb4XBQSWnQHRtwb/hdIfB6F2YQMjY8r+a0WjB
1GqgQEpysb6DvJHBBBsCQeoB778RiYzBiYJvQMkZi8DgpqDB2VijQCZFlsC00J/Bus5FQEnTbMA1
GpjBt2ETQTAIgb8RKpzB4TG6QBbLjMDca5bBuh1zQKeOWsDRrI7Bp5EjQVx7H7++UKPBLugYQSo8
ez6TKl3BHN4IQXM40z6a8q7BpuofQSPHJT/HtkjBA4AAQU8YI77EjDjB9bj7QLQxLL+JZZ7B+vvw
QAuIE78MgkzBGCLxQEJfl7xJBajBExSlQBWiccC3zo3Bi+UEQQCtwL4/E1/BzlweQfhe9j1bhqzB
mr/GQHufmb9RzU7BE67ZQE8KbL8LjpbBb7nUQFw7rb8Ch3TB7V7CQKf3JT6l7KrBCamoQJ8xAj9L
u6DByYyzQHTK+D/f/pzBA9dwQBcN0z56DqPB9J69QPO2V8CDCYTBpbDEQNxf7b9RqITB4dkTQSm9
4T798zbBAQr7QGymTL/I9nLBUo25QFp3wr9BDWPBNLuyQGSW677DGZjBt9/jQJ6Wyb/CLo3BwqWv
QIwFub+vfD/BEJQyQVWcJz8CGLXB0Y9MQNdvksCA4KfBFjCzQKIcpsDkZKbBUjMDQNM2W8AmzJjB
UFgXQYlgx7/V/pTBKbvbQHnHlMDmz5XBtWZTQGbkOsDrGIjBNP4zQcR2Zb+zwaHB0MQiQQ170z6N
GWvBKu0EQUI8dz8CGrbBn0YvQdv0kD8wIkfB0STuQGQDpL65TCrBRDO/QJuHej9rxLDBqvS1QIsU
Rb+xa67BrB2hQHuXC0BTvpXB5/bVQNbDAEC+OpvBT1KrQAMnKkDuW6PBLZ5MQCTpKD99xpvBxeFf
QJM+jz8CdanBTQRhQM59HL9amqXBIEGrQO28Z8C0mnnBW6DcQE4BecBx1oPBvQumQIobr79DjobB
4wKcQEkp8L+aVWXBICibQCyxRb80TZPBmw0BQU71779VH4zBReZ3QAm5i8DhEqHBEiNNQGlSeMAh
8pfBgKSoQCzikcDh46DB3mMTQdO9bL/BrZzBQ697QEI3ZsBCmo7BLAbAQN+uiMBLjpfBBswiQYBb
E7+lW6TBDuAYQY8kgb7HRFfB6JMGQfwHej78MrDBzZgeQQCUwDgF0UHBc8b3QKm//76cwzXBFQ77
QBa0LL+CxJ7BczvqQPASQ78H0krBYTTuQFpMK75hwqjBQ36qQJOEc8CWYI7BG9YDQVFdJb+w1FvB
aWscQUb6Tz2T763Bt0++QKCClr+9v0/B6mPaQHv2X7/ehpbBZxDUQJ83sL94a3TBfue+QLalCL6+
dKvBrZClQB84pj6SgKHB4mitQKkn6j+Mdp/B+eJqQEtRpz3pO6PBhVHDQLvLWMBDqoTBzuHGQPu+
7b8D2oTB9UoQQYosBL4YmTHBbb77QG4ie78ipHDBlLS0QAVVuL98qGTBF9WyQHkU677K/ZfBsBvm
QLEEu79TAI3Bf9GiQMmyp78b+kHBJpMvQfaMCj/xPLfBkxVUQO31ksAKPajBXL8IQA9pbsC6IZjB
Gey4QGurncA966fBBDUYQffMsL9hOpXB4idbQFQjTsAzmYfBI07iQCEIjcDsa5fBDYAzQWplSb9A
7aLB4nwkQWqVE76R8mPBQcABQSz1ND+qn7fBU8cuQdejmz4rMj7BLkbhQKxUGL/YvCjBuly5QNA1
Ej8AErLB60G0QI23kb/i2K3BikabQFCCCUDFXZjBzr/PQB0oAEAEHZ7BncuiQMkdGkDedabBLj9H
QDoQ0j5kHZzB6xFVQN7WJj+2P6rBEYZfQD+jfb9ZlKTBvoCyQB+GbcA1w3rBFHDjQOaOdcB+2oTB
5VunQE8AuL833YbBM7iWQDBX1799rmjBFdScQMNhLr8KdpLBiJYCQTW7z79xlovBX0VzQIqKiMDu
xaPBq3w9QAOobsAjzJvBWrilQLLHjcDbxKHB7vsSQYHIkb8t9prB8ZFfQEL/V8CXv5HBiMO2QLOg
gsBRuJfBbV4kQeqWW7/kx6HBHzICQYLwN8ByLkbBN2QNQcirED9cvKzBDdMKQY29H8DvOTLBwPkA
QUM8gb4pmDfBGUn9QPh/Er8ED53BqgzwQOFAEL80v0vBisD3QFquiT5UCabBjrmbQNWhZMAioI/B
CD/xQPaM8r+SIFPBNJQhQTAmkbs0pqrBK+HbQF+/5j4ojlnBu/7XQMsNWb8LFJbBig7NQPm/qb8z
B3PB4ZfMQMFQbT/f6qfB8aWnQPC57bsTMqTB8UZ7QHTxTT94gaPBQWGhQD+tlb9kPKzByjKuQFcr
TcD7zITBFo27QMlD27+aVoTBYh4KQXAEm7/FRSvBDbrfQPydD8D08GbBPvnKQEgXxDwc4WzB3++w
QIgTDr+tU5nB4GPeQHcdt7+3FYzBf9DZQFfH0D9+X1TBNSs3Qfcktj6hCbPBWeJYQDu3kcAdbKvB
4k30PzynZcAaZJ3BeWi6QMVWmsDT76fBQywVQf6w5L+XIpTBcoA2QOH7PMCfrIvBKI7YQLKLhsAW
MpbBANgzQdDypb8JNqDB/PACQYK6ecCnbUvB0FQLQR5TnT/DeLPBGS0SQUjZT8A4OyjBDIcAQW9W
RD8v5zHB1RvLQC0v7z8oYqPBjNzIQNvEkT+TgLDBtPBGQM7GFT5Q4KDByZOBQOf6zz8Kup3B4PJr
QFQznD+VbKvBKi+HQM3D6L9fe6nB5muZQCR5Qr8fKLTBBBe/QKqt4L9GyKzBgPGVQOtCWcDJNX3B
uX7KQJoydcCiQ4PB+IafQPVsi7+RMobBkA69QAQWMD/0nHbBbIWYQLvFNL+LTJTBmkr8QCY41r9f
AIrB

>  <OMEGA_E>  (6) 
2PDpPjBC+j5KoRI/yOsZP9ajRD8=

>  <OMEGA_NBR>  (6) 
     36206

$$$$
50224999
     RDKit          3D

 59 63  0  0  1  0  0  0  0  0999 V2000
    3.7434   -4.4704  -20.1210 C   0  0  0  0  0  0  0  0  0  0  0  0
    9.3264    0.9180  -11.8082 C   0  0  0  0  0  0  0  0  0  0  0  0
    3.0143   -3.8930  -19.0621 C   0  0  0  0  0  0  0  0  0  0  0  0
    5.1226   -4.7246  -19.9776 C   0  0  0  0  0  0  0  0  0  0  0  0
    9.9263    1.2119  -13.0510 C   0  0  0  0  0  0  0  0  0  0  0  0
    8.1800    0.1017  -11.7475 C   0  0  0  0  0  0  0  0  0  0  0  0
    9.1876   -1.2355  -19.4679 C   0  0  0  0  0  0  0  0  0  0  0  0
    3.6643   -3.5720  -17.8584 C   0  0  0  0  0  0  0  0  0  0  0  0
    5.7735   -4.4094  -18.7719 C   0  0  0  0  0  0  0  0  0  0  0  0
    9.3938    0.6728  -14.2372 C   0  0  0  0  0  0  0  0  0  0  0  0
   10.2559   -0.9757  -20.3414 C   0  0  0  0  0  0  0  0  0  0  0  0
    8.8257    0.5047  -21.6542 C   0  0  0  0  0  0  0  0  0  0  0  0
    7.9298   -0.6245  -19.6888 C   0  0  0  0  0  0  0  0  0  0  0  0
    7.6288   -0.4143  -12.9369 C   0  0  0  0  0  0  0  0  0  0  0  0
    7.7449    0.2272  -20.7984 C   0  0  0  0  0  0  0  0  0  0  0  0
    5.0396   -3.8453  -17.7078 C   0  0  0  0  0  0  0  0  0  0  0  0
    8.2481   -0.1421  -14.1797 C   0  0  0  0  0  0  0  0  0  0  0  0
   10.0767   -0.0984  -21.4275 C   0  0  0  0  0  0  0  0  0  0  0  0
    6.3811   -1.1930  -12.9435 C   0  0  0  0  0  0  0  0  0  0  0  0
    6.8057   -0.8619  -18.7724 C   0  0  0  0  0  0  0  0  0  0  0  0
    6.5842   -1.3371  -15.3371 C   0  0  0  0  0  0  0  0  0  0  0  0
    6.4191    0.9354  -21.0013 C   0  0  0  0  0  0  0  0  0  0  0  0
    5.2443    0.1585  -20.3434 C   0  0  0  0  0  0  0  0  0  0  0  0
    4.0486    1.1125  -20.1723 C   0  0  0  0  0  0  0  0  0  0  0  0
    4.8112   -1.0440  -21.2157 C   0  0  0  0  0  0  0  0  0  0  0  0
    5.7452   -3.3915  -16.4632 C   0  0  0  0  0  0  0  0  0  0  0  0
    6.0213   -1.8876  -16.6040 C   0  0  2  0  0  0  0  0  0  0  0  0
    7.7186   -0.6557  -15.3584 N   0  0  0  0  0  0  0  0  0  0  0  0
    5.8706   -1.5674  -14.1616 N   0  0  0  0  0  0  0  0  0  0  0  0
    5.6264   -0.3289  -18.9973 N   0  0  0  0  0  0  0  0  0  0  0  0
    7.0027   -1.6899  -17.6868 N   0  0  0  0  0  0  0  0  0  0  0  0
    5.7786   -1.4794  -11.9173 O   0  0  0  0  0  0  0  0  0  0  0  0
   11.4121    0.2597  -22.4866 Cl  0  0  0  0  0  0  0  0  0  0  0  0
    3.2437   -4.7190  -21.0456 H   0  0  0  0  0  0  0  0  0  0  0  0
    9.7481    1.3208  -10.8992 H   0  0  0  0  0  0  0  0  0  0  0  0
    1.9582   -3.6976  -19.1757 H   0  0  0  0  0  0  0  0  0  0  0  0
    5.6791   -5.1614  -20.7937 H   0  0  0  0  0  0  0  0  0  0  0  0
   10.7955    1.8515  -13.0921 H   0  0  0  0  0  0  0  0  0  0  0  0
    7.7262   -0.1273  -10.7946 H   0  0  0  0  0  0  0  0  0  0  0  0
    9.3254   -1.9008  -18.6284 H   0  0  0  0  0  0  0  0  0  0  0  0
    3.1115   -3.1168  -17.0499 H   0  0  0  0  0  0  0  0  0  0  0  0
    6.8310   -4.5985  -18.6610 H   0  0  0  0  0  0  0  0  0  0  0  0
    9.8624    0.8836  -15.1872 H   0  0  0  0  0  0  0  0  0  0  0  0
   11.2136   -1.4482  -20.1802 H   0  0  0  0  0  0  0  0  0  0  0  0
    8.6955    1.1811  -22.4860 H   0  0  0  0  0  0  0  0  0  0  0  0
    6.4785    1.9381  -20.5528 H   0  0  0  0  0  0  0  0  0  0  0  0
    6.2256    1.0272  -22.0802 H   0  0  0  0  0  0  0  0  0  0  0  0
    3.2111    0.5719  -19.7072 H   0  0  0  0  0  0  0  0  0  0  0  0
    4.3418    1.9563  -19.5305 H   0  0  0  0  0  0  0  0  0  0  0  0
    3.7382    1.4915  -21.1572 H   0  0  0  0  0  0  0  0  0  0  0  0
    3.9805   -1.5729  -20.7255 H   0  0  0  0  0  0  0  0  0  0  0  0
    4.4845   -0.6827  -22.2019 H   0  0  0  0  0  0  0  0  0  0  0  0
    5.6609   -1.7315  -21.3400 H   0  0  0  0  0  0  0  0  0  0  0  0
    5.1096   -3.5749  -15.5844 H   0  0  0  0  0  0  0  0  0  0  0  0
    6.6935   -3.9374  -16.3502 H   0  0  0  0  0  0  0  0  0  0  0  0
    5.0822   -1.3698  -16.8490 H   0  0  0  0  0  0  0  0  0  0  0  0
    4.9755   -2.0111  -14.2064 H   0  0  0  0  0  0  0  0  0  0  0  0
    4.9729   -0.2504  -18.2445 H   0  0  0  0  0  0  0  0  0  0  0  0
    7.8676   -2.1887  -17.6303 H   0  0  0  0  0  0  0  0  0  0  0  0
  1  3  2  0
  1  4  1  0
  2  5  2  0
  2  6  1  0
  3  8  1  0
  4  9  2  0
  5 10  1  0
  6 14  2  0
  7 11  2  0
  7 13  1  0
  8 16  2  0
  9 16  1  0
 10 17  2  0
 11 18  1  0
 12 15  1  0
 12 18  2  0
 13 15  2  0
 13 20  1  0
 14 17  1  0
 14 19  1  0
 15 22  1  0
 16 26  1  0
 17 28  1  0
 18 33  1  0
 19 29  1  0
 19 32  2  0
 20 30  2  0
 20 31  1  0
 21 27  1  0
 21 28  2  0
 21 29  1  0
 22 23  1  0
 23 24  1  0
 23 25  1  0
 23 30  1  0
 26 27  1  0
 27 31  1  0
  1 34  1  0
  2 35  1  0
  3 36  1  0
  4 37  1  0
  5 38  1  0
  6 39  1  0
  7 40  1  0
  8 41  1  0
  9 42  1  0
 10 43  1  0
 11 44  1  0
 12 45  1  0
 22 46  1  0
 22 47  1  0
 24 48  1  0
 24 49  1  0
 24 50  1  0
 25 51  1  0
 25 52  1  0
 25 53  1  0
 26 54  1  0
 26 55  1  0
 27 56  1  6
 29 57  1  0
 30 58  1  0
 31 59  1  0
M  CHG  1  30   1
M  END
>  <OMEGA_C>  (7) 
YpNvQB0Nj8C896DByDgVQfMCaz9s7jzBWOpAQDQmecBIf5jBZuyjQB8wl8At0p/BEdIeQa4emz+1
0FDBIeECQc5H0D2Y9TvBmgATQcAlnr84vpvBJoNqQHmbZMAW3o7BKcC4QOkZjcDaLJbB7EwWQTM6
LD/Cy2PBWBgkQc/Feb9Cu6LBFDYNQZYyAT/XO63BmsD9QP3bH7+tgp3Bwh70QF4a1L60/U7Bftb3
QI6faD4sY6bBykShQFoZdsCjqY3BNfgDQfiMEb4h4GLBIDohQYiAyb2ba6vB1jHMQIKzmL+xGE/B
/cfZQK+kXL/pLZbBmbHSQJAkq7+4ZHXB+GjNQIV2bz+aAqjBJ9GnQNBEIj5Sv6LB4o2BQLhljj/z
YKHBTPWZQDijhb+tuanBudi3QLEOWcC8tIPBfa7AQOyc8b//1ITBkv72QL3bJ78uvHXBHty7QDih
yL/glWLBdQu0QCZnqL6H+pfBRBbgQABP2L93fo3BV+q4QFRdvb84rT7BFpg2Qcv5hD6S5LPBdphP
QLABl8BWXajBIPgbQW4RqT8mYy7BjKb6PwWlbMDFZ5nBz7q1QCMqpcCGWabBdLosQU3+7D9heVHB
5Tz3QBpgAr57tizB5TQVQZNO87/lBpXBJyNHQB55R8BMZojBZZfaQN8mk8DMSZXBYMwdQSg1Yj+b
/nLB+mozQTleub8WcaHB0yALQeculz9a47PBwk/PQAET+D8ubKTBEjjHQIR6gz9OpLDB4oJNQAhl
Ej9DqJ3BM/CKQLpn+j9rPpzBZz9vQB/qvj8GQqnBY8B+QKFUyb/XzaXBbYGPQIjDLr+LnbHBtCW1
QE6i3b9VuKrBiYGjQJDLZMDUWXnBKDHWQAf+e8BAzYLBqaGiQL5Vr7/TyobBrTefQJK1AMBjTWPB
KSKfQDI6gL6o9JHBiMP7QDMTDMDmCo3BCrFnQJxnjcAeS6DBweUUQSBCfD5QQDbB2tqfQJNDl8DX
6J/Bdg5AQNsVccBLnZfBx1shQRYz8z70tkjB+1UAQduQor5ICDjBep8TQVufj7/NeJzB4Q24QL+x
jMA6zJbBWDBwQAdWXMBLfI7BQFcZQXH5CD4PDl3BawUkQXI+Xb9B3qPBO4gLQTSLAT8da67BoRD+
QERMEb8nEp7BIIPwQIx2J7+2XkzB19P1QDDgZT5kLafB1/ajQIFyccBCB47BUNEEQVMN3r4X5l7B
ev8fQRjINL3Hy6zBHsTFQF/jnr/NHE/BWW7bQA7WT7/qYJbBtwvUQP7krL/b3HTBfUDKQFbzXD+y
tajB6VmmQKBakz3s4KLBxPR+QPIgfz/uUKHBaXCYQNkXlb9UbanBtZ29QCZAV8AUboTBm23EQIfm
679d8ITBk5P6QH6vUL9D+3LBbJm4QL/swr89hmPBFo+0QDPoub6jIpjBHS3kQDk9xr+yT43BaGau
QH7YwL88+z/BtmY0QRzslD5J5rXBwodCQKfflcCYQ6fBrigbQVZFAT+prybBofyuQLbwpsC/nabB
i775P8YbYcAF+5fBJRYxQcKvaT9ZP0fB2p7tQI1j+7564inBhrcWQRYO379nkpXBMNnZQLLYk8BG
hpbBGRRSQBFBPMB00ofBL+ciQcocnT7XLWvBBLMzQWG1pb9ZtaLBHZYIQWWIkj9QOrXBTy3LQKee
8T/2g6XBG+vCQJkdZT8YULHBjLBLQPqc5D4vMZ3BAOyIQLzu7j8depzBj8RnQDxAqz/kKanBsSF+
QLPu2b+PGqXBuUuMQKgzV7/pRLHBMg+0QMJu6r+CkqrBWjGsQDAFaMA1J3rBQL/cQFgaeMA6gITB
WtOlQG3Lrb8S5obBj9maQGmr7b9ZA2bB4/GfQMW+oL5tB5LBnewAQXq887+0XozBVj9uQLpVjMB3
qZ/BBrgQQQIBnj5yejTB6YhGQMBfd8BhcJbBWZWjQA4PlMDMxZ/BQpodQaUVHT9KXUbB19L5QHSL
rL6rNTfB4JgTQVGHgr+jgpzBqMd3QNjVZcCUT43Btle8QO/+isC0q5bBpNYWQd6mhT5ZF1vBPIYj
QboSLr+G8KPBBIQIQXkdqz5+g6/BeSP8QAwHLL/Rl57BswvsQP5mLb8z60vB5eLwQMBgjb3WWqjB
SFuoQP6JdcD0bo3BrhYDQXK9xr5Z3l3BixEeQeBRKT0BOa3BHGPCQGsBqL/VrU/BmrHaQJ7SYb9n
kpbBDnPTQLPzqb/u93TB9fXBQPjbHz1DTKvBiXynQPJx1j79TKHBU7muQBQQ9D/viZ7BukJvQOSV
ND5xeqPBzcTCQDAHWcA0J4TBLSPGQN8/7r+b6YTBWHr5QLCaRr9FRXLBY4e2QBUqw7/7Y2TB26az
QDam2L7GBZjBjWvlQA+Fwr+mMo3BhNCqQPWc1r+YLEHBUAYyQew4Cj/2EbbBCWZIQKY3k8AMr6bB
RxgWQQCAEj9gmyTBI3YCQGtla8DzZJbBX5myQLbxoMBB26bBN7UsQadIjz97JETB6yPmQBrKEb96
gCnBgsEXQR2Wxb8lP5XBC7RZQN1jTMAvNobBEHjeQPdwkMDnwpbB68EgQYrG+T59xGjBzO0zQb+P
eL+uiqLBDF0EQZPFXT9vvbbBf+a9QMkxUD9Nd7HBhby2QKeGbb8Wa67B29GbQD71CkBpbJfB8N/Q
QLzzBECG5pzBSqSkQGoKIkChU6XBd95JQFRU5T58WJzB2aBaQBIsSz9ISqrBVOBkQHfMYr+2W6XB
xDuzQJiCa8BCNHnBfc7iQCECdsB0j4TBg5mmQEciur+ZEofBULmYQEub6b9DrmfBNjGdQCoHJ7+d
oJLBpQoCQeGD4b/d+ovB8G4IQUUoscBucIXBqasbQejaoD21DznB4vz7QNL+psDMjHfBYVL/QAMG
pMCkTI/BFhknQbgxRD5pcUzBjlcGQSghwb7KGDnBXFkSQcBJnr9eHZzB1l7WQNp1jsDw4HfBO1/Z
QP7ji8Dre4/BFywdQZDyE76S81/BU/siQY79g78UgqPBhSIMQXij+j6ruK3BueX8QOA+F79+qJ3B
IOD4QJSoOL+8mkzBmX32QDKZgT4CjKbB7K/FQGjLf8DKwYXBLtcHQbCKGb/5BWDBweMfQZAXJ77y
QqzBOXPMQEo2mr8qmE3BJwfZQPjcSr9dRJbB/pDTQCgDqb+r53PBHkzLQAaybj+ND6jBmO2mQOB6
Kj26a6PBkDV6QIr4Vz+CeqLBjTafQNE/nL8YWarBQ2OlQFBrOMCQroXBXqO9QIAZxL/di4TBZeb7
QBi9Zr+dZHPBx1O7QLwtvb+fZGHBP3GyQFDxv74glpjBuGXfQJiNtr8MxIzBq4y2QPBWrb9Tiz3B
yIw0QYDr0z2LXrXBNDUXQT4Sw8D1SoXB/UwjQUxGrz6LJCrBUnQEQRoRssBugmjBnYIHQZt+rMAS
s5bBcHk3Qa5DCT/rUkzBuzr7QB3g7L7VPirBL8AUQT0T8b/lTJXBxzrGQLHAhsDRF2nBEVLLQFiO
gsBcBpfBueIlQRvSWr1tzW7BMhsyQUPPxL/He6LBC/kJQfzLlT9UV7TBhXDLQHpQ8z9u46PB3JzF
QJkhjD/FpbDBZ5pHQFWWSz6qMJ/B3BuCQIkC2j+6IZ3B8/lmQFv6mT/YcKrBGFmFQMwW6b+zzabB
DByWQHnuar/nfrLBZLa8QK3m6L9FqqrBjCCTQOHuOMByNI3BBVqPQAu7QMAmzH3BU2imQAEuOL93
wIXBnAydQGCk5b9NgGLBU1GcQMoHrr470JLBwP/7QErs6r/3S4vB5jlzQM15iMDuxKPBKjgKQTsk
mb/i3CrBOKI9QAmvbsAww5vBILelQPXCjcDfy6HBDRULQdTsIcA2JTLBrKUAQSduTL4inDfBsAET
QQ/qkb/s/ZrBBPJfQPBMWMDftpHB9t62QPW+gsC+v5fBHVoCQbTTN8BYMkbBU14kQYlnW78q0qHB
u1oNQTV6ET9OvKzBcVD9QEqjEr9IEJ3BsMDvQNpeCr/IuEvBxbj3QF6Iij7GBqbB5O6bQJgOZcAk
n4/Bfm3xQNjB8L9JAlPBoIwhQUDR27qQrKrBLEnbQISV6z7XtVnBlRLYQA+jWb86EpbBlyrNQAwM
qr+/B3PBlo3MQMHsbT9P4afBDaGnQGDAv7v8J6TBvDt7QO01Tj/1cKPB7lKhQExJlb/WNazBYY2u
QMfCTcCXzITBLcO7QP1g3L8wVoTBRwngQB81D8AV22bB66jKQEDXrDyu/2zBq/2wQIBtDr81TJnB
nIveQC7Jt781F4zBx7LYQN870j+CslTBghw3QRibuD5DE7PBrKtYQEmNkcCpaqvBbOkQQTIvcL/y
eRvB34v0P6qWZcCuVJ3BjFW6QKZAmsC9/KfB7nISQYmZUsCfVSjBaAQAQU9VUj8ZBjLB4TcVQT4J
5b9oLZTBkgQ3QGNnPcALnovBb63YQL6yhsBSQJbBggsDQSY5ecCxv0vBYdkzQaHjpb8uRaDBl0UL
QVLrnT/ZdbPBCBrLQEda7z/PVKPBx8PIQHJVkj/KdbDBUO9GQNUpFj59z6DBWZWBQF35zz9Np53B
Is9rQBGGnD8MWqvByCWHQGt46L/HdKnBxlGZQDtGQb9vH7TB4Ai/QL4/4L9fxqzBw2mWQAEXWsBG
Kn3BUO3KQKSpdcBBTYPBnaufQCIAjb9rNYbBgJu8QO9uLT9m0HbBFJyYQDFqNb/zQpTBcHf8QFnb
1r/2BYrB

>  <OMEGA_E>  (7) 
QOrNPjCF0T4SXQo/lAI3PyyoPD8=

>  <OMEGA_NBR>  (7) 
     41322

$$$$
50225010
     RDKit          3D

 52 55  0  0  1  0  0  0  0  0999 V2000
    3.7518   -4.3373  -20.2492 C   0  0  0  0  0  0  0  0  0  0  0  0
    3.0550   -3.7619  -19.1681 C   0  0  0  0  0  0  0  0  0  0  0  0
    5.1326   -4.6028  -20.1424 C   0  0  0  0  0  0  0  0  0  0  0  0
    9.1442   -1.2711  -19.6038 C   0  0  0  0  0  0  0  0  0  0  0  0
    3.7360   -3.4657  -17.9751 C   0  0  0  0  0  0  0  0  0  0  0  0
    5.8163   -4.3065  -18.9486 C   0  0  0  0  0  0  0  0  0  0  0  0
   10.1652   -1.0379  -20.5404 C   0  0  0  0  0  0  0  0  0  0  0  0
    7.3177   -0.7291  -12.7361 C   0  0  0  0  0  0  0  0  0  0  0  0
    8.7604    0.6105  -21.6732 C   0  0  0  0  0  0  0  0  0  0  0  0
    6.0483   -1.2908  -12.9515 C   0  0  0  0  0  0  0  0  0  0  0  0
    8.1441   -0.4907  -13.8472 C   0  0  0  0  0  0  0  0  0  0  0  0
    7.9190   -0.5755  -19.7142 C   0  0  0  0  0  0  0  0  0  0  0  0
    7.7211    0.3474  -20.7627 C   0  0  0  0  0  0  0  0  0  0  0  0
    5.1124   -3.7534  -17.8586 C   0  0  0  0  0  0  0  0  0  0  0  0
    9.9755   -0.0944  -21.5693 C   0  0  0  0  0  0  0  0  0  0  0  0
    6.4948   -1.3860  -15.2394 C   0  0  0  0  0  0  0  0  0  0  0  0
    6.8108   -0.8396  -18.7841 C   0  0  0  0  0  0  0  0  0  0  0  0
    6.3868    1.0599  -20.8773 C   0  0  0  0  0  0  0  0  0  0  0  0
    5.2477    0.1077  -20.4149 C   0  0  0  0  0  0  0  0  0  0  0  0
    3.9400    0.9050  -20.2632 C   0  0  0  0  0  0  0  0  0  0  0  0
    5.0283   -1.0324  -21.4415 C   0  0  0  0  0  0  0  0  0  0  0  0
    5.8374   -3.3715  -16.5973 C   0  0  0  0  0  0  0  0  0  0  0  0
    6.0497   -1.8476  -16.5944 C   0  0  2  0  0  0  0  0  0  0  0  0
    5.6514   -1.5970  -14.2000 N   0  0  0  0  0  0  0  0  0  0  0  0
    7.7222   -0.8222  -15.0817 N   0  0  0  0  0  0  0  0  0  0  0  0
    5.5841   -0.4738  -19.0891 N   0  0  0  0  0  0  0  0  0  0  0  0
    7.0753   -1.5096  -17.6034 N   0  0  0  0  0  0  0  0  0  0  0  0
   11.2448    0.1885  -22.7286 Cl  0  0  0  0  0  0  0  0  0  0  0  0
    3.2268   -4.5757  -21.1624 H   0  0  0  0  0  0  0  0  0  0  0  0
    1.9999   -3.5489  -19.2562 H   0  0  0  0  0  0  0  0  0  0  0  0
    5.6656   -5.0337  -20.9771 H   0  0  0  0  0  0  0  0  0  0  0  0
    9.2952   -1.9793  -18.8024 H   0  0  0  0  0  0  0  0  0  0  0  0
    3.2060   -3.0178  -17.1475 H   0  0  0  0  0  0  0  0  0  0  0  0
    6.8753   -4.5018  -18.8673 H   0  0  0  0  0  0  0  0  0  0  0  0
   11.0956   -1.5820  -20.4715 H   0  0  0  0  0  0  0  0  0  0  0  0
    7.6512   -0.4859  -11.7381 H   0  0  0  0  0  0  0  0  0  0  0  0
    8.6273    1.3501  -22.4488 H   0  0  0  0  0  0  0  0  0  0  0  0
    5.3911   -1.4769  -12.1149 H   0  0  0  0  0  0  0  0  0  0  0  0
    9.1169   -0.0417  -13.7108 H   0  0  0  0  0  0  0  0  0  0  0  0
    6.3949    1.9574  -20.2414 H   0  0  0  0  0  0  0  0  0  0  0  0
    6.2168    1.3534  -21.9237 H   0  0  0  0  0  0  0  0  0  0  0  0
    3.1347    0.2309  -19.9361 H   0  0  0  0  0  0  0  0  0  0  0  0
    4.0796    1.6993  -19.5151 H   0  0  0  0  0  0  0  0  0  0  0  0
    3.6709    1.3553  -21.2301 H   0  0  0  0  0  0  0  0  0  0  0  0
    4.2193   -1.6907  -21.0920 H   0  0  0  0  0  0  0  0  0  0  0  0
    4.7548   -0.6009  -22.4157 H   0  0  0  0  0  0  0  0  0  0  0  0
    5.9555   -1.6150  -21.5460 H   0  0  0  0  0  0  0  0  0  0  0  0
    5.2380   -3.6636  -15.7225 H   0  0  0  0  0  0  0  0  0  0  0  0
    6.8115   -3.8812  -16.5611 H   0  0  0  0  0  0  0  0  0  0  0  0
    5.1002   -1.3562  -16.8533 H   0  0  0  0  0  0  0  0  0  0  0  0
    4.8587   -0.5903  -18.4106 H   0  0  0  0  0  0  0  0  0  0  0  0
    8.0199   -1.7826  -17.4210 H   0  0  0  0  0  0  0  0  0  0  0  0
  1  2  2  0
  1  3  1  0
  2  5  1  0
  3  6  2  0
  4  7  2  0
  4 12  1  0
  5 14  2  0
  6 14  1  0
  7 15  1  0
  8 10  2  0
  8 11  1  0
  9 13  1  0
  9 15  2  0
 10 24  1  0
 11 25  2  0
 12 13  2  0
 12 17  1  0
 13 18  1  0
 14 22  1  0
 15 28  1  0
 16 23  1  0
 16 24  2  0
 16 25  1  0
 17 26  2  0
 17 27  1  0
 18 19  1  0
 19 20  1  0
 19 21  1  0
 19 26  1  0
 22 23  1  0
 23 27  1  0
  1 29  1  0
  2 30  1  0
  3 31  1  0
  4 32  1  0
  5 33  1  0
  6 34  1  0
  7 35  1  0
  8 36  1  0
  9 37  1  0
 10 38  1  0
 11 39  1  0
 18 40  1  0
 18 41  1  0
 20 42  1  0
 20 43  1  0
 20 44  1  0
 21 45  1  0
 21 46  1  0
 21 47  1  0
 22 48  1  0
 22 49  1  0
 23 50  1  6
 26 51  1  0
 27 52  1  0
M  CHG  1  26   1
M  END
>  <OMEGA_C>  (8) 
6B1wQB/LisBh/qHBk4VDQFjCcMBbWJnBUj6kQDdKk8C0I6HB0E4SQSqzor+D1JzB/hpvQHHNXcAH
zY/Byh66QOLOicC1lpfB16QiQYzahL+oUqTBbCrqQDCpOr8gx0vBlioMQcNKHD+mYq3BDYzBQJ85
pb9JOU/BXk4CQeQ2+77ujV3Bqmj9QDVRE7+5tp3B7RL3QAjdsT4KGqbBjJijQDM4cMCD3o7Bx5sf
QX5uwb3mjazBhNXPQMtosb+b1HPBq/HZQFvtVr/VRZbBimDMQPKqhz+7BKfB0OynQFSd3D2rUaPB
Xih8QLuwZz//GqLBBOigQBInhL9JiKvBKsy6QOHFV8BUx4TBA5fBQER+7L9ewYTBUNi0QGhrzL8/
M2PBhhz3QO1+Ur/WTnHBu7CyQBaX8r54tpjBm2jiQLM7wb/O04zBheozQVUIQT4w1LXBwINOQFts
ksCQTKnBufz/P0UhY8C2DJrBxUy1QOUTocAT0afB8bgUQVpY/b9ka5bBXi5NQE0kQcAnLonB1wLc
QIIOkMBK8JbBtocxQXF/yr+xxaPBftb0QHHC+L5azzvBjwkKQQzRrD85l7PB3IOsQK8Jvb/J1kHB
194RQSv/Kr1UX1vB56LMQEmN+j9o7qHBQfDGQEg9rT/DY6/BwJ5IQB9lbD4PfZ/BKYyCQN2B2T/X
HpzBdfBqQPJ5rT8216nBJQSHQI1n2L96vKjB+iaYQLvUGb9PU7PBlpO+QEe5zr8mXqzBdZ2nQNF4
asBvj3vB4PfZQKpleMA8fYTB0TSjQNuXrb9104bBn3qbQKMaF7/+SJPBUlEAQZgr5L9OXovBWnBw
QA++i8AB2KHB5FakQLyZlMDhA6HBKH9EQOaAccAMOZnBdEUSQQ+6ob82+5zBsX+6QGDYisA2hZfB
vp1wQPIEXsApvI/Bj4giQXIig7+mgaTB0LPpQInwQr8SuEvBMfILQUUEIT9Fca3B5ZoCQeooE7/M
P13BFTHAQK1fn78wiU/BDlH9QF8pEb8yyZ3B9sj2QB8YuD79IqbBXE+kQFz/cMBK1I7BU2cfQYhh
mb0XsKzBbanPQOO+r78m/HPBzgTaQFDkVL9hTJbBmgTMQIDQiD/i/6bBH7enQIhJ6D2YQqPBtpJ7
QGThZz+2BaLBErmgQG4whL/fbKvBXsq7QDbZV8CqzITBht/BQNNd7L9z0YTBz9r3QLSeYr/2G3HB
Iq6zQBT0w7/NnmPBlLuyQFjI7L7qqZjBDqjiQMLnv78B3YzByJMzQZj1XT5CBLbBu29OQBSKk8Du
G6nB9yK1QJvgosBQq6fBaA0BQBVlY8Cv55nB8L8UQaH4/L8vnJbBrlfcQMdgkcBS5JbBkitPQHWD
QMBoIonByG0xQTnGyL/3BKTBfD70QHS3Cb/mpzvBX78JQTm5rz/um7PBX4QSQdckO74RylrBLFOq
QG2Zsb+XWULBeU3MQHCo+z+q6KHBMWXGQNpmrj/lXK/Bt0VIQMJmaj6TYJ/BPDuCQNfO2T/FDJzB
fgtqQGxCrT92wanBIe6GQPyL2L/wlajBUdeXQEhcG7+1OrPBd3G+QOdyzr/8QazB4wypQIMCa8Dg
fXvBBDPbQD2Wd8A8l4TBK06jQLlnr7/y8YbBSLGbQHKWEr+vLpPBKXoAQUG24b+DZIvBWyJ0QH2m
jMBdQqLBLkpFQKJddMAOzpnB1TamQBCzlMBBFaHB1yISQSPdpr9xwpzBYIpuQAJiYMDCIZDBSeq6
QDa9isC4ZpfBK38iQSpui79vR6TBb2rqQKQfK7/gVUzBuFAMQTE/ET/Laq3BaAgCQYM32r5tYl7B
TlnCQHmKo7/GSE/B/Uz9QDIkGL+BqZ3BUE73QKDSpT4EHKbBAkGjQKYOcsA0347BqJwfQapeG75L
kazB/nvPQPaVsr+u/HPBDcLZQKRoVr/8K5bB9e7MQL3shj9sFqfBphioQLKVCT51IKPB8lB9QNak
dD+PEKLBFU2gQNZ/hL8zCKvBRj25QCLCWMA3pYTB7rTAQMT57r9ZxYTBUEP2QESvSr+e7XHBVlK1
QJYkz78gEWPBlPKyQHOa0r5zapjBEJHhQFxSx78+7IzBV+EzQSRW1j0Q6rXBl09UQASqlMCqqanB
WtEBQJ9wZ8DSwZrB+SO4QIiCosABnafBrXAUQQiCAMDKT5bByOtKQDGDQ8CbqonBqsfcQD+hkMAf
gZbByUgxQXBb0r82tKPBDkX1QH/UyL5FiTzBClEKQWjYpj/xqLPBFWoRQWF2WD1rlFzB0P6tQFSB
vL8HrEHBBtPNQGDU+z8pMKLB22DHQGJlqT+Jga/BPzpJQG2Tmz73Qp/B2pyDQISH4j8jR5zBaENs
QHq6sD9x5anBCyGGQLyF1b/RCKjBmZuXQLOMIb9D7LLBlqS9QG5s0b8ywKvBX/2kQObxacD/jHvB
gh/YQJgpesDhBITB14WiQM6crr8w2YbBt0KcQD9m6b7/yJLBfVT/QJ3T8b/PqovBnLZxQDUxjMA9
0qHBBP+kQMDolMDG86DBBmpFQBZvcsDCOZnBCEcSQRr1ob8b75zB9v66QJkGi8CHcZfB7jhxQHiz
XsBzuY/BB5wiQTrgg79lbaTBsNjpQPVaSb9SqUvBJBIMQZJPHT/ofa3BPiPAQH4noL8Qik/B57sC
QbwCG79KKV3BCkv9QH1rEr+J0Z3BLtr2QPqqsT6QOqbBaqKkQIFTccDQyI7B9IofQdjesb0tqKzB
ZpbPQFAyr79BAHTBtvrZQO/yU79UUJbBihbMQNkmhz8ILafBfK6nQH755z2xSaPBytx7QBdpaj9S
EqLBZkugQMS5hb8dUqvBAPS7QA23V8DiwYTBVtTBQBYA7L8z0oTBpoWzQMbawr/qqGPB4gL4QI/t
Zr9sDnHBiMayQCRl5b4QppjBAJTiQDJnv79t34zBB8wzQRx6ST6u9bXB4vRPQOgVlMAUGanBMO21
QAkto8AllqfByvEBQIiLZMA98JnBwrYUQXmM/L/BhZbBctjcQCR5kcDPx5bBBYFPQFlGQcDTI4nB
zYIxQXlQyb/W4KPBwXP0QMazEr/mkjvB3+0JQW91rT8ssLPBVjSqQF8Fsr+QX0LBgLsSQXFBar4U
plrBl3fMQLV3+z/IN6LBQHHGQIVUqj9AlK/B4GtIQPHtfT5bUp/BxKqCQI4q3D/eL5zBwidqQAAq
rT9j1qnBa3CGQBnb2L+VYKjB7lKXQAhOIb81KLPBqOK9QC7e0L+8IazBMy+pQEvRasB4aXvByWzb
QOcvd8DFg4TB7zKjQH6Qr79D84bB7NqbQHQqCr9KHZPBknAAQaYk4b+JZovBUwp6QLz0i8CWAKLB
a0xLQKtsd8ABQ5nBs4WpQOuIksBzHqHB26gTQaebfL9evpvB4H11QGtiZMAMoI/BWbW+QKAHicCm
eJfBHxkkQZmaIb9D4KLBvO3oQL9vSL/nT0vBLMsJQbSLqj5LEq/BuCi/QI/jnb9gcU/B3HYCQVrq
Gb/0qFzB2F78QJyhLb+zTp7BRZHyQJTzyL1/RqjBTS6nQLBicsA1sI7B2TUfQXYBmz2lUKzBeUfP
QOZQq7+t13PB9WTZQJwaab8jo5bBf3DEQHQceL0h7KvBkSanQEBrkz6CYaLB/uyrQAOA5D+glJ/B
1LJwQGDaALzlYqXBU6O9QLZHV8A0mYTBujbCQPR36r8UvITBLt2yQK8ev78lp2PBe8H3QNYvYr/h
p3DBKPixQAh4Cr+a4ZjBPtniQAGeu78syIzBDagzQfz2Fj9j1rTBKJtZQIFkk8DrZqnB/SwHQCUt
bcCQ95nBV1q7QMLensDf2KfBUmoXQSQUv79tWJTBmN9RQPYFS8AC74jBMdPgQFXWjcA9y5bBZ3Y0
QVJiZr/fHqHB2UvzQBaiFL8qJjvBgg4GQaceXD8JYbbB5+uoQF6Mr7+UZkLBuH4SQSABcb4e81nB
l77AQEa6Mz9IMrLBTmq7QNrEhb+AIq/BBgSXQILxAUBbx5jBrWLNQPGI/z/Kbp3B7MiiQO5JGUC2
iabBzNBGQNmRdT6kmJ7BUnxeQGaDGT83XKzB695pQGKPib+pWqfB68CqQM0Ia8BwMHvBun3dQJsY
dcDvOoTBqD6jQKWMsb9m74bBP1maQMk8VL9SAJTBN8wAQRqP0L8g/orBpY97QPqrisBku6LB3uup
QM53ksDncKHBBFlLQBPrcsDdO5rBnH8TQQHIf79Ha5vBlfa9QOpWicDUnZfBX0pzQBKCYMC7bJDB
/gIkQYuoI78qfKLBVKjpQKgqIr9110vBUbkJQYzlfT6mEq/BUbQBQXz8wb45z13BNvDBQFCkob+c
607BMAf8QCPgOL+YLJ7BT1XyQEokOL5oSajB1KqlQFQ+ccD1D4/BbScfQRCbBz3uFazBob/PQCsh
sb+jkXPBTPDYQH8/bb8ffZbBuwnEQNXS8L1Q0KvBjjGoQNw3pz7FQKLB17GwQF7G6D9fxJ/BpDxx
QFRtCz5PCKXBdwC7QNc1WMAEtoTBFWPBQCUM7b8nnoTBmhn2QPllQb/+YnHBV2u1QIznzr9kvWLB
QPWxQNAcAb8pqpjB9AriQMRewb/Mt4zBebozQW5QEz+XarTBRdBcQOfpkcBaQarBQlu8QIhxn8Bi
/afBNc8HQEKyZsBaQZvBTDMXQSUGvr8Z7ZPB5c7fQDgbj8CaoJbBH49OQPuJRcCk7YnBpmo0QbjJ
YL9njqDBwin0QBYAtL5hAjzB+gUGQQ8yPT/LirbBDO0QQeuc8j3d6lvBZnCtQFhFu7/bYUHB27HA
QFY2Gz8BY7LBW6q5QHs5jr9Cj67BNtGcQFh6CEDW85jBFq/SQLGL+j88xJ3BFqOoQF1TG0D60KbB
U5RJQPjX5z6VN57BiiphQCRwPj9EFqzB2+1kQHGvbL+UyKbBza6mQLsxa8BK23vBszraQNNLeMC8
EoTB7+GiQAPrrr8Kq4bBhxmaQNP/P79ttZPBYlEAQaR4278mCIvBEbt7QBuOi8CbR6LBJEeqQNt5
ksBESaHBupFMQBs4dsAHmZnBIokTQfJ/e7/yuZvBFiq/QIAXicCylpfB0iR2QAyGY8BC6I/B2Nwj
QYppIb/z7KLBYsjoQMQ8Qb9IVEvBHkEJQbyPfj73Ya/BopC/QLoJob9zSk/BxyACQbTzCb/0yVzB
ivn7QNqtNL+aWZ7B7L7xQK/WLL6tc6jBc2unQNMicsCB3I7Bx8EeQdgjAz0CiqzBi0/PQJzwrL+I
vHPBuUbZQFRpaL+VjZbBm0HDQAwj1b0+1KvB8uOnQBIpqz6BKqLBZ4ywQBZ16T9MnZ/BG1NwQGwA
Ez4SwqTB/o69QLSmV8DxsITBRTHCQIIu67/ks4TBIlKzQPSYxL/8cWPBPi33QGthV79puXDBPxay
QC35AL9yrZjBKs7iQCDuu7/FuozBHRozQcnKDj9EE7XBmsJbQO7hksC5t6nB10W8QOD6nsCr96fB
hpgIQEhla8CBY5rBRm4XQXsSu79aO5TBSDjhQFMijsCg1JbBvCxSQN70ScDlQYnBxFA0QQwrXr/u
FqHBvCHzQIfeCb+dNTvBJV0FQVWzOz/g2rbBqrapQMsCtr+WKULBuOoRQee9Bb5ENlrBKZa/QPa1
Hz/JXLLBeb24QE1FjL/JlK7B7PycQHxxCEDMuZjBLaHSQG3f+j+Ls53BRTGoQDIaHECbmqbBn4dJ
QPTr6T4Z253B9E9fQDL9QD+Gw6vBXttjQOCoar/ugqbBhW6qQFrba8Bof3vBZmPdQLaJdcCmSYTB
lz+jQAHRsb824YbBOGGaQCIDRb8ivpPBVscAQWcN0b9G9IrBNr96QDg3icBAvqLBy4FLQFZxcMA7
IprBP46pQA4vkcCXnKHBXl0TQeROhL8d3JvB9IZ0QHG9XsB7YJDBgyO+QARqiMDh1pfB/Y8jQaR1
Jr/tB6PB/03oQFSwKb/CXUvBoZ8IQThgPz5XgK/B698AQflGr748Ll3BKZTBQM7sq79PxU7Bd3r7
QBjlSL9RfZ7BYtfwQPTni779pajBr1WmQBvIb8BeLo/BGDIeQXzfnzyMlKzBjtvPQFrtsb+iaHPB
ECXZQLKcbr89gpbBcx7CQBcaOL7Jw6vBCBWpQFpVvD6HEqLB8/G1QISk6z/b85/B1n1xQLZbmT7/
UaTBxzG8QLC7V8Bp4ITBJxvCQAvR678WnITB0h/1QOSnNL+F8HDBtr+1QNdo179xvWLBaXeyQIPU
7r5/epjBZcbiQJXJvb82pozBa04yQQT/Iz9S1rTBwi9bQAApkMA2O6rBpOQHQEgEZMDzB5vBppq7
QJEEnsCfPqjBgGoXQbDpwb8nZZTBgpFQQNYVRMAPy4nBzwPgQKNOjsCG+JbBnRg0QeRYXr/OOaHB
Nk/yQK6syL55ZzvBQY0EQbOcKj9n+LbB/7QPQXHNRz4WBlvB/E2tQAD3y7+iXEHB0nC+QDAPAD/R
nrLBkv21QOiblr/J663BAfyjQJJkDkAcCZnBknTYQAeA8j/XRZ7B9IiuQMTAHEDvC6fB/xxOQKnn
MD8EY53BDm9iQOxwZz9abavBb8VeQEfbPr//waXBqWmoQGwCbMA9G3zBKp3bQLdFd8BZboTBSX+j
QMSYrr9xq4bBZb6aQEzsLb8EY5PBmcMAQUa50r/V3YrBNgLtQMR+FL9FjEbBYjvMQJY6cz5Z1E7B
h5z3QJpy5L885FDBaBQTQSxPmr9TVp3BVG62QBjmDr4qpGHBi4nhQEMKC8CofWPBq6QjQaHOYr9q
iaTBgPJuQCBzksDvp5/BjTIMQUZ4NT90jK3BHY2gQG3koMAX2ZzBgTVOQEhZXMBybJrBvtf9QNgW
Eb8NOJ7BpN72QFYNvz4XfqbBsmDBQMIPq7/xXWzBwT4gQTq5mz1/mKzB4COmQBe/UsCWXpDBiBra
QIk+aL/b55bB/d3LQHSaiT/bTqfBHi+nQLvcCD5qjKPB/SZ8QEkhdz+YxaHBTQCeQAXZdb+iEKzB
1lOnQIrn4b+c4n/BH/XBQCGdI8A6WojB91y3QHkDjMAGUpXBsyV9QGdiNMB535LB1OWyQPM+Ab9N
JJnBR0/iQJzS2r/u8Y3BB+s0QUhy+j6ZZLXBhvr9QBpqkL4HRTjBasnDQOzYkz9qwEbBslsIQfxf
GsCOi0rBm78VQfYl+L95IpfBjUCdQJBX+j6G4mfBjxnpQFlCR8B5FWvBn/YyQcR6sL824aPB9t5J
QBbVosBdsKXBMKoJQU/XuT+UsLPByuCtQL3BvMBQuaDBTV8PQISPRMCkc5zBzETMQO6m/D9nPKLB
vTHGQGXnrj+crK/BURxIQHlNmz7KHJ/BXQ6EQDR/3T/hoJvBn79pQBgouj+2T6nBTgKEQO9mzr/Q
PKnBnHWUQOE9974coLPB4wm7QIm8x7/WXa3BAMyMQI3EGcAecHrBRFyaQDMNXb95zoPBWLnTQPSs
VMB03oPBTwqcQKP1Ib8eo5PBjRYAQfiI27+9EovBuT/6QKGmoL8ZuUTBxYPrQHDjI8DC+kjBVj/v
QECqSL7aklLBJccRQdimoL9ojJvBRozRQLyHM8B9AlvB7kfVQJKi4L5VnWTBJ+oiQRi0kL8ux6LB
nWB7QIBUjsAVJ6DBHQkNQZGonD5BLK7BNf6pQLX/h8CZLaHB6fpSQB4BgMApxpbBmUL8QBovGL/q
lZ3BM1n3QFRaJT6kC6fBMenFQCXi3r9nwWjBJ5wgQWaGr75YC6zBDiWrQIC8TMB8ZpDBfmHXQIq0
QL9rP5bBGlTNQC5RYT/eFKnBq/emQJCIWj2rnKTBHdZ9QLLqdT+jJqTBTzKdQMwhk79hDKzB09Sp
QHK+AMDWJXzB5iXFQEw1H8D6u4fBlhrAQGY8acDtRZnBw1+AQN5qWMBWFI/BslawQKhX4b5ae5nB
pMneQD+qrb/FRozBjBU2QfSSKr4A3rTB//oGQc5tiL8t2zbBaxz0QL/iV8Dobz7Bjbr6QN57TT+P
W0/BIJkTQb+K7b8ZbZTBXYLGQI2pc8CFVl7BNiTNQE2evj5dRm/Bf9YxQbPK0b+DOKHBgjdXQLfR
ncBjaqbByVMLQYb3aT87Q7XBhmK6QOanksB2TajBjhAPQBnbhMCuuJXBcBbOQJBP7j+JHaXBDSHJ
QBZ/gj9Lv7HBrU9HQAHcxT6iAaHB3UqFQJHD6D/Q4J7BIqduQHxIqT/KPazBLxuCQDVv3L+Ty6jB
8wSVQFjnR79pFbTBDIq5QOo/5r+Ci6zBaWGSQGawMsAmGnjBuOeYQBgpi78wRoDBbwfcQIddTsCS
k4TBWxKYQO0XCb+5UpTBiAX3QN+ngL/A34fB

>  <OMEGA_E>  (8) 
oJxTPmBfVz4gPlg+QG1YPiCZtD5w87c+eKG4PoAewD4khyU/5LgoPw==

>  <OMEGA_NBR>  (8) 
     50356

$$$$
50225006
     RDKit          3D

 55 59  0  0  1  0  0  0  0  0999 V2000
    3.7196   -4.4106  -20.0907 C   0  0  0  0  0  0  0  0  0  0  0  0
    3.0380   -3.8658  -18.9846 C   0  0  0  0  0  0  0  0  0  0  0  0
    5.1032   -4.6713  -20.0149 C   0  0  0  0  0  0  0  0  0  0  0  0
    9.1455   -1.2731  -19.5920 C   0  0  0  0  0  0  0  0  0  0  0  0
    3.7379   -3.5928  -17.7985 C   0  0  0  0  0  0  0  0  0  0  0  0
    5.8069   -4.3938  -18.8296 C   0  0  0  0  0  0  0  0  0  0  0  0
   10.1600   -1.0500  -20.5352 C   0  0  0  0  0  0  0  0  0  0  0  0
    7.7915   -0.4300  -11.5355 C   0  0  0  0  0  0  0  0  0  0  0  0
    8.7547    0.6011  -21.6648 C   0  0  0  0  0  0  0  0  0  0  0  0
    8.3153   -0.3990  -14.0971 C   0  0  0  0  0  0  0  0  0  0  0  0
    6.6803   -0.9075  -10.8818 C   0  0  0  0  0  0  0  0  0  0  0  0
    7.5574   -0.6418  -12.9443 C   0  0  0  0  0  0  0  0  0  0  0  0
    7.9206   -0.5745  -19.7000 C   0  0  0  0  0  0  0  0  0  0  0  0
    7.7212    0.3524  -20.7444 C   0  0  0  0  0  0  0  0  0  0  0  0
    5.1189   -3.8683  -17.7170 C   0  0  0  0  0  0  0  0  0  0  0  0
    9.9637   -0.1162  -21.5704 C   0  0  0  0  0  0  0  0  0  0  0  0
    6.2900   -1.2098  -13.0567 C   0  0  0  0  0  0  0  0  0  0  0  0
    6.5757   -1.3412  -15.3456 C   0  0  0  0  0  0  0  0  0  0  0  0
    6.8165   -0.8427  -18.7709 C   0  0  0  0  0  0  0  0  0  0  0  0
    6.3924    1.0811  -20.8509 C   0  0  0  0  0  0  0  0  0  0  0  0
    5.2463    0.1664  -20.3337 C   0  0  0  0  0  0  0  0  0  0  0  0
    3.9562    0.9892  -20.1711 C   0  0  0  0  0  0  0  0  0  0  0  0
    4.9802   -1.0083  -21.3114 C   0  0  0  0  0  0  0  0  0  0  0  0
    5.8753   -3.4273  -16.5009 C   0  0  0  0  0  0  0  0  0  0  0  0
    6.0730   -1.9083  -16.6222 C   0  0  2  0  0  0  0  0  0  0  0  0
    7.8086   -0.7594  -15.2898 N   0  0  0  0  0  0  0  0  0  0  0  0
    5.7991   -1.5251  -14.2569 N   0  0  0  0  0  0  0  0  0  0  0  0
    5.6111   -0.3736  -19.0044 N   0  0  0  0  0  0  0  0  0  0  0  0
    7.0556   -1.6497  -17.6822 N   0  0  0  0  0  0  0  0  0  0  0  0
    5.7764   -1.3811  -11.8002 O   0  0  0  0  0  0  0  0  0  0  0  0
   11.2142    0.1322  -22.7558 Cl  0  0  0  0  0  0  0  0  0  0  0  0
    3.1801   -4.6294  -21.0004 H   0  0  0  0  0  0  0  0  0  0  0  0
    1.9799   -3.6587  -19.0489 H   0  0  0  0  0  0  0  0  0  0  0  0
    5.6225   -5.0842  -20.8672 H   0  0  0  0  0  0  0  0  0  0  0  0
    9.2994   -1.9758  -18.7864 H   0  0  0  0  0  0  0  0  0  0  0  0
    3.2195   -3.1723  -16.9494 H   0  0  0  0  0  0  0  0  0  0  0  0
    6.8687   -4.5823  -18.7719 H   0  0  0  0  0  0  0  0  0  0  0  0
   11.0905   -1.5940  -20.4672 H   0  0  0  0  0  0  0  0  0  0  0  0
    8.6660    0.0152  -11.0846 H   0  0  0  0  0  0  0  0  0  0  0  0
    8.6222    1.3397  -22.4417 H   0  0  0  0  0  0  0  0  0  0  0  0
    9.2867    0.0680  -14.0296 H   0  0  0  0  0  0  0  0  0  0  0  0
    6.5401   -0.9097   -9.8109 H   0  0  0  0  0  0  0  0  0  0  0  0
    6.4293    1.9982  -20.2446 H   0  0  0  0  0  0  0  0  0  0  0  0
    6.2034    1.3440  -21.9022 H   0  0  0  0  0  0  0  0  0  0  0  0
    3.1489    0.3378  -19.8052 H   0  0  0  0  0  0  0  0  0  0  0  0
    4.1278    1.8011  -19.4490 H   0  0  0  0  0  0  0  0  0  0  0  0
    3.6696    1.4174  -21.1430 H   0  0  0  0  0  0  0  0  0  0  0  0
    4.1663   -1.6356  -20.9188 H   0  0  0  0  0  0  0  0  0  0  0  0
    4.6929   -0.6086  -22.2951 H   0  0  0  0  0  0  0  0  0  0  0  0
    5.8928   -1.6138  -21.4139 H   0  0  0  0  0  0  0  0  0  0  0  0
    5.3008   -3.6623  -15.5927 H   0  0  0  0  0  0  0  0  0  0  0  0
    6.8511   -3.9333  -16.4586 H   0  0  0  0  0  0  0  0  0  0  0  0
    5.1111   -1.4419  -16.8814 H   0  0  0  0  0  0  0  0  0  0  0  0
    4.9296   -0.3815  -18.2726 H   0  0  0  0  0  0  0  0  0  0  0  0
    7.9523   -2.0862  -17.6085 H   0  0  0  0  0  0  0  0  0  0  0  0
  1  2  2  0
  1  3  1  0
  2  5  1  0
  3  6  2  0
  4  7  2  0
  4 13  1  0
  5 15  2  0
  6 15  1  0
  7 16  1  0
  8 11  2  0
  8 12  1  0
  9 14  1  0
  9 16  2  0
 10 12  2  0
 10 26  1  0
 11 30  1  0
 12 17  1  0
 13 14  2  0
 13 19  1  0
 14 20  1  0
 15 24  1  0
 16 31  1  0
 17 27  2  0
 17 30  1  0
 18 25  1  0
 18 26  2  0
 18 27  1  0
 19 28  2  0
 19 29  1  0
 20 21  1  0
 21 22  1  0
 21 23  1  0
 21 28  1  0
 24 25  1  0
 25 29  1  0
  1 32  1  0
  2 33  1  0
  3 34  1  0
  4 35  1  0
  5 36  1  0
  6 37  1  0
  7 38  1  0
  8 39  1  0
  9 40  1  0
 10 41  1  0
 11 42  1  0
 20 43  1  0
 20 44  1  0
 22 45  1  0
 22 46  1  0
 22 47  1  0
 23 48  1  0
 23 49  1  0
 23 50  1  0
 24 51  1  0
 24 52  1  0
 25 53  1  6
 28 54  1  0
 29 55  1  0
M  CHG  1  28   1
M  END
>  <OMEGA_C>  (9) 
ZA1uQGojjcC+uaDBym1CQC1pd8CF4JfBl02jQIR7lcCAHqDB6VMSQY31or9vvJzB2jlvQNXvZcA9
Y47B+dG5QDyajMAXo5bBR48iQe5mhr8WSKTBxlP5QBYs3L5xkTjBMBMMQe7kGT+UUa3BWwsFQfRK
zL62jWHBO8XVQHpSaL+0Gy7Bj9bxQG5KJL/5G0/BLXX9QIQSE7+OmZ3BZxT3QOVvtD6J9KXB282j
QKWRd8B8vI3BR2sfQXju7b09kKzB2EfJQBbcmr8s6FDBz2vSQM+qq799h3XB/SDaQIC4V7/iKpbB
do7MQH5hij+izqbBzuGnQCBoKj6Dq6LBqjF9QGI9fT91XqHBeF2fQHYRgb/IfarBSgK8QPZYW8DD
AYTBx1XCQJ5E9L9c+oTBw9/5QDxmQr8Eo3TBmZK5QGQ2w78+HGTB9I2zQNhCv74aCZjBHsfhQEAp
078pdY3B39e4QLzHsL+9zTzBXm0zQX5YBz7cC7bB9IZLQNIjlMDDAKjBhm79P94oasAwZJjBQOuz
QGuxosDw76bBfcoUQUnn/L+mSpbBygxOQOoGS8BfmIfBuszbQCOiksDQLJbBkXIxQXkJzL/KvKPB
GqgKQb/weDyFWjHBYPQJQcJ5qz+CiLPBapYUQcdUiz01eWDB0UjRQFzkaL91+RzBC73NQInD/z/a
9KHBpYLGQKcHrD+oN6/B2YZJQDvwrD4ZcZ7BmhaEQFuJ5j+Pl5vBJtpqQDlutT/RJKnBXlKFQBdc
0b+qWafBOCyWQLnOG79wXLLBq5G8QPGRzr+/T6vBVqCpQONiasCje3nBPTzbQHG6e8BJq4PB2I2j
QOiPuL8ZDYfBc7+dQBpYw75ZLpLB1Xj+QOSDBcBL3ozBTa1tQG42jsB+hqDBthOjQMHIlsDf7p/B
SMBCQNNnd8DAwpfBKm0SQer6o79y9ZzBz+S5QC4mjcBfipbB5DFwQG82ZMDqXo7BHq8iQZdghr9t
eaTBvP34QPj9Er8UFDjB4ucLQeatEj+ep63BYQ0FQSf23b4g/2DBL8bUQLYwhb8cDy7BdoDxQJZ5
Nb+CxU7B2YL9QJozF78/2J3BK7H2QMoRoj69UabBWDmkQEWcdsAHt43B5nUfQawn9b0bxqzBYnXI
QMH4nb+YDFHBo1XSQM+zp7+qoHXB47LaQAiPVb+oOJbB4+7LQJROhD/vQafBrXynQPb5Gz4bjKLB
80V9QIZ5fj/zIqHB6nSdQBg7h78K5anBK7O8QGcSWsDDCITB8evCQJmt8b8eCYXBp/z5QPy8Pr/6
VHTBBdy4QB1Wv79MdWTB1U60QKV/rr6u4ZfBPYziQGvH0L/Md43BGHq3QL3dt7/wJD3BIK8zQf6R
JD7aFbbBuq5KQBLelcDruafBpXCzQKjApMDesabBZjH+PyDUacAgQ5jBfewUQbDy/b/UhJbBqNbb
QH9jk8COF5bBxJ5PQA1kR8Dlp4fB1aYxQeDUyr+15KPBsbQKQcrBPL6AejDBC6QJQRhKpj/28rPB
d6wUQVLunTyqjV/BlRnQQFpEi79k9BzBN3XNQLPM/T+E06LBOTPFQAl2nj8uva/BnQ5KQEaruj4t
zp3BUSeFQOQr6j8GppvB6xBpQNLssT/D8qjBnJ6DQHUC1L8TVabBNliTQFBzMb+HzrHBh0u6QO/D
1r8Jw6rBaIuqQCgPacCLdnnBI/fbQOhUesDRvoPBdSakQNPZtr+TNofBJG+fQKzRmL7Q05HBqFz/
QN27A8Cx0IzBc/1vQMFvjcDxZaHBoV6kQBtKlcBDzqDBHR5EQO83eMA6jpjB23wSQeaior+m6pzB
7d26QB0RjMCVV5fBbOFwQMcRZsDOFY/BW6kiQVgNh78jh6TBk8X+QAKNjL4gejrB9hoMQQjMFT+k
oK3B4o6/QDwIpL9DcVDBYo8SQdB9bT5KjUHB1SvoQM9gOr8sP03B3dL9QF23Eb8iwJ3BOz73QE9H
rj73OqbB8rikQOXjdsCeco7Bc30fQXw6AL7/16zBNHMBQZ6z/b7WtF7B7eLOQC69sr9u7XTB1qXa
QKM0Ub9ILpbBAqHMQPaQhz+WLafB0jGoQNAcFj6P56LBQ2J9QNuxdj/xzKHBfgSgQDRNhr94iKrB
Ba+8QDkiXMBYoYTBzcPBQPj+9L/rGoXBWUWzQGZFy7+EcWTB+DP2QD/BVr8HaXLBlPKzQNZZur4V
K5jBa3/iQK57yr/NMY3BM88TQRiMyz1kalfBmXozQaDfBD6bVbbBmIJNQEa8lMAkqajBgBO1QCNk
osCEn6fB7UQAQK+na8CKD5nB0P4UQQYa/L9Nc5bBRuvcQM2wkcDG5JbBCZBPQGlES8AETIjBC4Yx
QRMUzb8MAaTBIr/zQACGpb5ZHirBrOcJQU5xqD+i5LPBAXOqQKDHur8ZD0PBCMQeQUK8Kj9GfjfB
maXNQENV/j9ZdaLBDoHGQDqtpj91n6/BfO1JQJBgoT5Gxp7Bw+aDQEKZ5T/YLJzBvRdrQCDnrj/r
qanBFB+GQARl1r8sTKfBOMKWQEP5K7/Sd7LBEWG9QAkd07+JP6vBn6KqQM1ebsC22nrB81XcQAbp
esB+eYTBDPKiQB/Ju7+7Z4fBFhCeQBpIur7oVJLBhxMAQThI97+wGYzBl3ZtQPQXjsBm3KDBw85D
QBTkecAq1ZfB0CCjQEwhlsDIm6DB3K4SQcAMob8FPZ3Bc91yQAByaMDlhI7BDtO6QKYJjcAnUpfB
BKYiQeynhL+c8aTB1Df8QFTh2L5RuznBbbQLQfNVGD+36K3BukS9QKyNp79dFFHBJKMRQfynkT1K
/D/BQirmQAQpTb+GEE3BVhn+QFyfD79v753ByOn2QA16sj6/YqbBtNClQC4IecCHP47BHCwfQTD7
3r2qPq3BufoAQZhoDL9xCl7BOLHOQPLVsL8CUnXBmmrbQIjvT7+xPpbByCrMQNNJiD9hLKfB3hGo
QJTcGz4EuqLBfyl9QOBadz9Bc6HBsmCfQORNhr/6Q6rBYAm/QKZdXcBRrITBSALDQLry9r9JR4XB
hNuxQHRQyL+QXGXBxCf2QMJZWb8rFXLBTKi0QFgBtL7IC5jBiLTjQPR4yr/UT43BO1gTQQC84jrl
5lXB+usyQQ50HD7p2LbBYj5JQO8dlcDXAajBxtT/PzIRbcB2E5jBUu+yQMRGo8CwjafBeGQVQRm5
+r/IzZbBvy1TQCRbTsBAkYfBn+ncQHKvksAZJZfBoJUxQcDRyb8qgaTBBmXwQCgIA79RjinBWUMJ
QVg9qT8ELrTBZUCnQIf1vr/RFUTBW8cdQVch6T4+VjXB4nHNQABN/z9ce6LBd3fFQFrtpj/5mK/B
akBKQG/9oT4pTZ7BmR6EQAQl5j9M3JvB9rBpQEDprj/7RqnBZ7mFQDwn1r+C46bBQI6VQHBwLb/l
LLLB/LG8QAEg078pFavBFk6uQDELcMAalXrBvfreQNfresA60ITBv/GjQDLZwb86wIfBU0yfQFLX
rr7rFpLBib4AQV/89b+2O4zB0W95QBlVi8AxeKHBJ8JLQFVoeMCvhJjBUlipQFiBkcB62aDBmDcT
QYVSgL+uLJzBFTp3QMbvZsBB7Y7BES+/QGWxiMCuQZfB5PQiQWoDKb+1s6PBojr1QLCm5b6xsjbB
rjgHQaxP9D0DAbDBIkwEQcrktr6paV/Be0HRQEfBdL9G+izBPW/vQEWGJL87a03BOez6QOOtQr/6
j57By+juQLQDmb5bvajB5yyoQPEpdMDOQY7BA/wcQQ6eML1aYq3BQojHQDsLn7/WCFDBuhrTQKmu
qb+oh3TBtaLZQIzAZL9ZZpbBvbu/QAbRhb41iqvB5wenQBQwqD6d66HBXPewQBo86z916qDBSUJt
QG+uCT5Ni6PBcV6/QAPhWMDwSoTB+ULEQGn57b8GtoTB7uT5QPtANb/h3HLB2mS5QNy/xr/Xj2PB
yVizQIgnv76d4JfBxcDjQP9yxL+rAY3BcL+1QIsDuL9TRjzB4JowQUwJ/D5SR7bBI/pXQH05ksCr
1KjBfXMHQM+pbsCbB5nBq8K6QPz+nMC+vKfBDLIXQU01ub8BoJTB6GhUQGliT8BwEYjBCWnhQL8X
jcB9yJbBYJgzQe6GXr+WE6LB4jYIQT7xrjvS5C7B4bECQd0CED/5jLfBWZYTQS7CCT64tF3B5YXL
QF4peb9z8BvBp8O6QEaKvT4Uo7LBykK0QHngo78kNK3BiV2fQHRfEEBpEZrB5YbTQM01/T9Lrp/B
mxWnQAyeFkBASajB74RKQMZjDj+LrJzBGRhZQOXBJT+26KrBDu9eQJR0cL+cNqTByNCsQEVfa8B6
XHrBvRffQNxId8A1/IPB+ySlQO/ftL/ZwYbBYbOdQDEC6L4mBZLB6CABQUWi5b/Aw4vBRi57QJwF
jMByyKHBDDKpQLAclsCqWaDBcxlNQAPKbsAwlZnB/1UTQS5/hb/aD5zB1829QK++i8C9sJbBHwJ2
QIZ1WsBz6I/B9iUjQRRNPb9wqqPBevnyQElrhr67vDbBwocHQcCr57wfSrDBkbMBQTzKj71guV/B
ztLSQNJ6dL8ilyzBAi/tQM3B+L56ZU3Bpzb7QIyWUL9wlZ7BAWzvQJf/0L6v7ajBj3qmQIaeb8Cm
bI7BGkIdQcT5M74Zkq3BkQLJQPjppL9dg0/Bh7TSQFIKp78kLnTBYrvZQLCfZr93bJbB9FTAQIs4
wb5jyKvB1cynQF2ajz5obqLB12GyQHYw5T9+A6LBybRuQEw+yj1DEKTBoWO8QE8zVcBvRYTBgkjD
QHZJ57+MmYTBjpX1QEeX+b6jBHPBMKS7QPYQ1b/T2GLBoruzQNcGvL5IG5jBYlTjQETIwb++2ozB
7YK5QNdsyb8ujzvBC+kwQZx0oT5GnLbBhpdbQGcjlMD5ManBmMS6QJfNpcD8q6bBj3oKQIDWXsDm
u5rB7r4XQQ42ub/OW5TBRVDfQCAEk8B0nJXB/fBSQCqqOsCnnInBo8YzQTv/b7+L7aHBedUFQdFg
qT5+QC/BLREDQW/Gvz43/bfBsocPQfxxEj8PZV7BejTOQM2PgL/NexvBrpe7QDalVT6XIrPBOJe0
QDuJs79cB63BMuWgQF97EEA8WpvB7fzUQNhD9j/ezqDBQsyoQBrqEEDrlanBPwZMQG+CET/2Y53B
LmRbQPh2Ej+VoavB5GhfQGpzeb+7VqTBJU+oQO8WZsCrt3rBvXPbQPbkdcAwnYPBxcykQOPdqL+e
oobBFA+eQG/Wy77oOZLBOd0AQcnw4r8+dYvB6vZ5QKYJisCQ7qHBAGSpQOptkcBvKKHB1RVMQAuJ
dMBMEZnBM4sTQbaUf7/D9JvBovK+QKwjicDkgJfBWvJ2QFxRZMAjaI/Bi58jQVouHb81MKPBz1v8
QPv2nb5R/TjBaYIIQSxoiD5UYK/Btv29QCOOo78t7U/BpbERQWYTNz7Ncj/BSpTmQOwKPb+1IEzB
Zcn7QJQRPL/IcZ7B9dDwQKp8SL6zeqjBotKnQJnfc8B/mY7BXx8eQarSkz3+pKzBfikBQTJWAb9F
MV3B+ifPQHiQr7+2MnTBuKnZQKymab+7epbBGv7BQHyU3L12hqvBWMmoQILRzD5AuaHBfoe0QBFH
8D/Kb5/B7etwQHwKlj4G3qPBVsq+QCPOWcBBmITBm9nCQIHP77+O0ITB262yQOnPyL9bHWTBYYn2
QPDAVL+nHHHBj+2yQCWD4r5UQpjBf2njQFq6wL8v0ozBzoATQWgGeD1vS1XBnxwyQY+sKj+jF7XB
5vpYQFV+kMDkWanB5di6QJd1ncA5+6fBfyUIQMPdaMCZs5nB6bIXQf/lvr8VjpTBcAbhQPJjjsAR
6pbBWwtUQJ30S8BsmYjBrSo0Qc4RWL+xgKHBiWHwQCYBuL4KzSjBMlUEQc2oRD+SvLbBniOoQJR6
ur9v2ULBNsEdQW5XFz/D+jTBlP+9QGKvFz/1PLLB4DG2QKv/jL8/4K3B5XWiQMzsDkA2cZjBJwjX
QHgh+j9Yzp3BF3KsQEWXH0BzcKbB82JNQBwVKD9r2ZzBlDxgQCwyZz/54qrB+fpfQDDaQb8TZ6XB
DmmsQDTzbcCpDHvBQb7eQEVId8DOXYTB6sejQDDIuL/XHIfBAZSbQBbLKL9IEpPB5g8BQRAM2b+d
KovBETR8QIAljcAPK6LBI71NQLOVe8DxTZnB3sqqQEu/ksCGd6HBWJ0TQd5LgL9XAZzBbYx4QCTB
aMAlto/BVlLAQMMjicBt4ZfBzmUjQQIENr8Kq6PB5E77QP48f76nGTnBtcwHQQphDT0UKbDBxDK/
QH0ksb/8o0/BBjEQQVVAtz6q1T/BrgTmQNkIOb+fIEzB7Mz7QP2KQL/nbZ7B1v/vQNngqr7Hv6jB
DOWoQLHodMB/947BYYUdQdoOC74Nia3BjPz/QONtxL71bV3BRt3OQPYtsr9BInTB2DTaQMkOXL8l
R5bB9PrAQEu6or50p6vBZLmnQDSJmj6kQqLBWuewQPDS6D/UrqHBeAhvQEUNnD3x+KPBTn2/QJ+N
WsDk54TB2NLCQDTH8L/+4YTBYvCzQD2S2L9QyGPB1j30QNlaOL/2UXHBpPKzQH/Ksb4v+ZfBppXj
QN28vr+LwozB4qARQbkYjT4XwVXBDiYxQeu7rD6AqLbBpT9bQLynlMD/hqnBu14JQNaMcsDe4pnB
jX28QBJqnsBySqjB7QsYQdz4tL+hVJTBripVQFT8UMDw6IjB5JniQGP9jMDgWZfBwP4zQQ5rbb/y
/6HB8EvwQA8GtL6JzSjBRlEDQVhQ5D4H1LfBlaKqQFAz0r+UYULB5dUbQR/LUz9wgjXBASS8QIbl
kT5E6rLBLtK1QIY3rL8NGK3BfuieQPucEEDc/ZrBWVvTQEqd/T/HbqDB0vymQMztEkA6N6nBUTBL
QLuoBD9KRp3B1BNbQDZYDT/3gKvB/99hQA9sgL+4XaTBkjKtQL4lcMD0xnvBs7LfQPXndsBFs4TB
AqyjQGuHur/rLofB8TeeQBDKyr4THZLBPRwBQamw2L85HYvBu6tXQE2RgcAnR6LBkI4wQG+DbMCG
hpjBvr+YQHZjhcBs46LB95UUQbYET79CjJvB8iRjQOlHXsAsXY/BuCSyQBV3e8DzxJnBhu8kQaeK
wr52hqLB6cUAQUiydr+uyjXBo8cKQXinYD+L/KzBr7XHQIXIsr69q1LBu6YRQVmt67+cTDfBirzr
QPZ1gL/TSErBjmP+QCotzL66U53BB7r0QNqw4D7aGqbBzoueQJSbZsBq64/BBQYgQVi47D6mPKvB
Z/4AQUTn9L99ClfBH5TRQJ76w79tw3LBJ/7aQGfBVb8NQZbBOz3HQBt8cT/8gqfBScmmQNRqHr6O
IaTBhFRzQCuF7T5pCqPBXF+lQArzob+dw6zBXoa5QGoMVsDVBIbB24TCQHaW6r/PnITBuze7QHK+
H7/M6mbB9+z0QCSoCsCRKGvBTeqyQDB8N78Td5nBKg7kQAA8sL+XOYzBwssRQf9XGsDjU0vBykQ0
QR+dgD+B1bPBMeYwQNhPh8D3SKnBgarXP/YUZsAWEpjBvbSnQPgyjsAAXKrBcGAYQU95ub+D2pTB
JRJFQD3zTMBw5IfBaJLUQJyrf8AET5rBRD01Qd5tMr9hMqHBHPj4QJQ/ur7VEyjBQxIHQeggxD9j
mrPBVjW2QI9Uuj5nFknBtgQdQWkyA8BauCrB/HjCQMX76j/6gaLBevPBQJIVmj9j9a/BzoVFQDvC
ob6DpaDBrpJ0QJfCoD+Z75zBuKtfQLhxZD+gw6rB5F+OQF+pAsCgWqrBmWWbQPeKVL/Wc7TBl1nF
QNMw2799nq3BA1KoQP/IbcBV4H3BuyHYQA8+eMC7zobB2rikQMHFo78VJobBz5mbQHUlgr8AipTB
MVsBQXFNu7/fCYrBKtZdQITBkMDqg6HB3TYtQE2RcMB5PZrBEruZQDtHm8AYIJ/B76QTQUi6kb+9
S5rBZglSQIMXVcAAiZDB5CCsQNqwjcCZa5XBXPMlQfWgLb9fwp/BHVQFQXwwwD67RUDBgDgQQTZ+
ej8oIanBfP3eQENiz7/ZlFDBcSoMQZowxD+2/UnBbP3zQPwww74qglDBYu7+QF2sC7/cTJzBxJb7
QE0HAT8h16PBrKyTQN12a8BXC47BW0AkQajTwz4nJKfBAUD1QMztwD71OmPBhoPOQAS7pL9E43TB
a+7XQNTFer/uf5bBW5nQQLsblz94lqXB8kOrQD2iLD4c8qPBG7CAQCEkcj8S7KLBuA6oQJmfUL98
g63BxsOnQM3aTcCvp4PBByC6QCts5L9EvITB9YPMQFVoA8DX12LBdGXiQNh7mr3jMnXB7cWxQGYr
G78N35nBvtTbQFcJ3r++K43Bwr8FQd4wxD/JDF/Bhfw6QUfrdj8szq3BKnFBQEhym8Dk7KjBZ4LX
P4IiYMDiGpzB3mmsQM7BrcC4vKTB9AIVQePL+L8olJTBJg4tQAL2LsDBAYvBcvzMQOSZlcA3nZPB
+0w1Qd/Fkb+2SZ7BoOMHQd00sj1X0S/Bh/kOQcBT5j93ta7BspvdQAQVDsB8OkLBMCsVQQpsFEBD
S0LBWh7NQDt2AEAW2Z/BWkDPQNXXyT8qyq3B9GlMQEKCcT7IwqHBGW+CQK8v0D/GBZzBhEN2QB+s
wz9IQarBQoGNQLQjwr/HJqzBkDeiQOsjf77z6rTBXy/GQMUlsL/XQa7Bo0yPQNRQTsAaqHrBPs/B
QCXvecCVfYHBYuGfQG57jb/s8IbBlieYQHcfWr/vf5XBwYj2QOYyEcDIFYzB

>  <OMEGA_E>  (9) 
1HWYPlDWnD6oHNY+xFbaPqjx3T74e+U+KLQKP9ofCz96xDc/qJ44Pw==

>  <OMEGA_NBR>  (9) 
     59767

$$$$
50224998
     RDKit          3D

 53 56  0  0  1  0  0  0  0  0999 V2000
    3.7060   -4.3757  -20.1249 C   0  0  0  0  0  0  0  0  0  0  0  0
    5.0869   -4.6478  -20.0415 C   0  0  0  0  0  0  0  0  0  0  0  0
    3.0332   -3.7826  -19.0380 C   0  0  0  0  0  0  0  0  0  0  0  0
    9.1362   -1.2634  -19.6276 C   0  0  0  0  0  0  0  0  0  0  0  0
    5.7943   -4.3409  -18.8647 C   0  0  0  0  0  0  0  0  0  0  0  0
    3.7389   -3.4726  -17.8628 C   0  0  0  0  0  0  0  0  0  0  0  0
   10.1590   -1.0058  -20.5533 C   0  0  0  0  0  0  0  0  0  0  0  0
    8.7303    0.6217  -21.6874 C   0  0  0  0  0  0  0  0  0  0  0  0
    7.9011   -0.5841  -19.7385 C   0  0  0  0  0  0  0  0  0  0  0  0
    7.6899    0.3383  -20.7841 C   0  0  0  0  0  0  0  0  0  0  0  0
    5.1151   -3.7689  -17.7687 C   0  0  0  0  0  0  0  0  0  0  0  0
    9.9589   -0.0595  -21.5765 C   0  0  0  0  0  0  0  0  0  0  0  0
    7.6187   -0.5878  -12.8013 C   0  0  0  0  0  0  0  0  0  0  0  0
    8.3613   -0.4212  -13.9510 C   0  0  0  0  0  0  0  0  0  0  0  0
    6.8098   -0.8458  -18.7920 C   0  0  0  0  0  0  0  0  0  0  0  0
    6.2812   -1.1800  -12.9167 C   0  0  0  0  0  0  0  0  0  0  0  0
    6.6508   -1.3639  -15.2818 C   0  0  0  0  0  0  0  0  0  0  0  0
    6.3528    1.0506  -20.8885 C   0  0  0  0  0  0  0  0  0  0  0  0
    5.2165    0.1248  -20.3674 C   0  0  0  0  0  0  0  0  0  0  0  0
    3.9218    0.9403  -20.1973 C   0  0  0  0  0  0  0  0  0  0  0  0
    4.9538   -1.0417  -21.3537 C   0  0  0  0  0  0  0  0  0  0  0  0
    5.8718   -3.3639  -16.5337 C   0  0  0  0  0  0  0  0  0  0  0  0
    6.1146   -1.8474  -16.5891 C   0  0  2  0  0  0  0  0  0  0  0  0
    7.8645   -0.8357  -15.1943 N   0  0  0  0  0  0  0  0  0  0  0  0
    5.8250   -1.5102  -14.1696 N   0  0  0  0  0  0  0  0  0  0  0  0
    5.5887   -0.4251  -19.0403 N   0  0  0  0  0  0  0  0  0  0  0  0
    7.0912   -1.5669  -17.6512 N   0  0  0  0  0  0  0  0  0  0  0  0
    5.5876   -1.3905  -11.9319 O   0  0  0  0  0  0  0  0  0  0  0  0
   11.2359    0.2603  -22.7162 Cl  0  0  0  0  0  0  0  0  0  0  0  0
    3.1621   -4.6227  -21.0247 H   0  0  0  0  0  0  0  0  0  0  0  0
    5.6016   -5.0916  -20.8808 H   0  0  0  0  0  0  0  0  0  0  0  0
    1.9773   -3.5666  -19.1080 H   0  0  0  0  0  0  0  0  0  0  0  0
    9.2920   -1.9782  -18.8331 H   0  0  0  0  0  0  0  0  0  0  0  0
    6.8534   -4.5426  -18.8007 H   0  0  0  0  0  0  0  0  0  0  0  0
    3.2281   -3.0080  -17.0323 H   0  0  0  0  0  0  0  0  0  0  0  0
   11.0988   -1.5330  -20.4809 H   0  0  0  0  0  0  0  0  0  0  0  0
    8.5879    1.3591  -22.4635 H   0  0  0  0  0  0  0  0  0  0  0  0
    8.0114   -0.2899  -11.8403 H   0  0  0  0  0  0  0  0  0  0  0  0
    9.3386    0.0347  -13.8928 H   0  0  0  0  0  0  0  0  0  0  0  0
    6.3809    1.9691  -20.2839 H   0  0  0  0  0  0  0  0  0  0  0  0
    6.1588    1.3095  -21.9399 H   0  0  0  0  0  0  0  0  0  0  0  0
    3.1200    0.2836  -19.8288 H   0  0  0  0  0  0  0  0  0  0  0  0
    4.0921    1.7519  -19.4746 H   0  0  0  0  0  0  0  0  0  0  0  0
    3.6283    1.3685  -21.1671 H   0  0  0  0  0  0  0  0  0  0  0  0
    4.1477   -1.6794  -20.9618 H   0  0  0  0  0  0  0  0  0  0  0  0
    4.6569   -0.6351  -22.3316 H   0  0  0  0  0  0  0  0  0  0  0  0
    5.8707   -1.6387  -21.4678 H   0  0  0  0  0  0  0  0  0  0  0  0
    5.2830   -3.6135  -15.6387 H   0  0  0  0  0  0  0  0  0  0  0  0
    6.8353   -3.8934  -16.4981 H   0  0  0  0  0  0  0  0  0  0  0  0
    5.1641   -1.3394  -16.8093 H   0  0  0  0  0  0  0  0  0  0  0  0
    4.8944   -1.8578  -14.2839 H   0  0  0  0  0  0  0  0  0  0  0  0
    4.8968   -0.4768  -18.3201 H   0  0  0  0  0  0  0  0  0  0  0  0
    8.0193   -1.9220  -17.5391 H   0  0  0  0  0  0  0  0  0  0  0  0
  1  2  2  0
  1  3  1  0
  2  5  1  0
  3  6  2  0
  4  7  2  0
  4  9  1  0
  5 11  2  0
  6 11  1  0
  7 12  1  0
  8 10  1  0
  8 12  2  0
  9 10  2  0
  9 15  1  0
 10 18  1  0
 11 22  1  0
 12 29  1  0
 13 14  2  0
 13 16  1  0
 14 24  1  0
 15 26  2  0
 15 27  1  0
 16 25  1  0
 16 28  2  0
 17 23  1  0
 17 24  2  0
 17 25  1  0
 18 19  1  0
 19 20  1  0
 19 21  1  0
 19 26  1  0
 22 23  1  0
 23 27  1  0
  1 30  1  0
  2 31  1  0
  3 32  1  0
  4 33  1  0
  5 34  1  0
  6 35  1  0
  7 36  1  0
  8 37  1  0
 13 38  1  0
 14 39  1  0
 18 40  1  0
 18 41  1  0
 20 42  1  0
 20 43  1  0
 20 44  1  0
 21 45  1  0
 21 46  1  0
 21 47  1  0
 22 48  1  0
 22 49  1  0
 23 50  1  6
 25 51  1  0
 26 52  1  0
 27 53  1  0
M  CHG  1  26   1
M  END
>  <OMEGA_C>  (10) 
oC5tQMEFjMDY/6DBvseiQG66lMD0VKDBFCBCQKIVcsDWTZjB8i0SQc23ob9pBZ3Bxmq5QOToisDa
6pbBmklvQEI/XsDr5o7BNosiQfi+gL8kbaTBKq8LQW4mHz/Cf63BhNX8QDGJFb926J3BfxP2QEwx
rT7pRabBt66jQHI2ccBmJo7Be1cfQfTmc72WnKzBBszzQCh4Fr8O0kzB3ccFQUam1757N1/BPerZ
QK2EWL8PVpbBAADJQO8Jl7/Mqk7BT9PUQPGTrr8TgnTBQ0rLQIl5hj/AG6fB5+2mQMiu/z2A8KLB
jP96QKe5cD8plKHB4oWeQEdXhb9N1KrBvuW7QMpKV8ALRYTBxqrDQIN47L9ktoTBlqn7QN3yVb8J
HHPBnWa6QLhOwb+jtmLBRtayQKii2b6LUpjBUOviQPOQyL+uNY3Bb82yQDP9sb846T7BZ8YzQRhE
hT6vurXBj19KQOHsk8CVMqjBDECzQJvuosDoC6fBfRn9PwFDZMAj3ZjB96sUQbA1/b9HqpbBtk7b
QOZckcDQZ5bBWplOQMqCQMAoQojBwJQxQYg4xL/r2KPBH2gJQbv2rT9AtbPBpi4AQdlxlL7ycT3B
CGsVQXcWDj0ISV7BIzDMQLgK/D91RaLB2RTFQPScpz/phK/BIq5HQJs5kT5xoZ7B0PKCQF4/4D8P
zJvBBjZoQO0rrz9GVqnBM7qEQAX21r+4safBSgWVQCaUIr83p7LBvty7QPK/0b8ovqvBKQ6pQDZD
Z8AqOHrBHbvaQCgtecAL/IPBe0ClQANxq79feYbBsp6cQBDM7b/7imTB+LKcQIEj9L6Hj5LBK08A
QUID9r8hUIzB5JxsQDnxjMAK0qDB8GZBQPbac8ABJJjBRoGiQNyZlcAcIqDBIgUSQTz7p7/bEJ3B
wH9uQFqkX8Acv47Bcx65QMSEi8A6vJbB5UwiQepujL9jmqTBr/YLQcwTDj/itq3BhBL9QMf/Gb//
6Z3B1Lv2QOSenz44XqbBO1mjQPANcsDHAI7BE08fQZTiJL4G4qzBTXjyQJszBr/r7kzBfYcEQWJ9
kL4Wfl/BjRvaQMklVb9zR5bBhGLJQOABnb/Uj07BYUHUQGhhrL8GjHTBV0LMQLs1hT8PSKfBJZ6n
QMirCz6i96LBEJd8QLRxdj+g3aHB/xefQIJrh78dl6rBPZG7QGI4V8DQLITB9EnDQDAS7L+ZuITB
cYz5QNWTN79vXnPB8BO7QDQLyr9ei2LBlWCzQF5lwb7TOJjBu6PiQFQyyb/mNY3B6xi0QF5ev7+f
tz7Bk30zQUg/uD0yRrbBi+hJQITolMCuBajByI/7P11GZsDrtJjBqf6yQEf5o8CF0qbBi10UQbIz
AcD0opbBr6xNQK4LQsCIGojBVgTbQCfqkcDUNZbBwhwxQbMV07+bDaTBx+IJQS7kpD/w+LPBnrX+
QKziUb4Qmj3B0YwTQcZvfz6itV7B4JHNQEL8+z8ykaLBQBPGQNBtpD/WuK/BA+VIQMU5pD5z0J7B
TbiDQIKX5T8JQ5zBD19qQCiorj8QvKnBIBeFQGnG1r9pVqfBAteVQPa7Lb8bhbLB/k+8QH0O1b+x
UqvBgcaoQIC4ZsA++3nBsm7aQOf4eMAt3IPBL96kQLWNq799jIbBbVKeQGlRAMCSMGTBM4qdQICz
wb7RX5LBCg0AQSc++b8GW4zBDG10QGb/icB7QqHBIICmQGYZksDsiaDBZAZIQGIEccD2eZjB50wT
QTblgL8fQJzBZp+8QLbtiMBGApfBgSN0QD6HXsBM9I7BmlsjQXgyHL/Yb6PBWz4IQbfUnz68bK/B
gEz7QHNFOr+top7BVELwQHO6HL6HiajBR0emQAvFb8B+LY7BFt0dQVg2zD1TxqzBGW7xQB05Fr+A
sEvBo+AEQbVnvb4AyF3BFGnZQP2Mb78bq5bBy0XHQMdFm79CNk7BFubUQJzvqr/C9HPBwXjBQOFm
lr3OoavBTT2nQLQ2tj5gv6HBi5OwQABq6z9zHJ/BLmhuQFDmOj54DKTBOQi+QH+9VcCQO4TBS9/E
QBx+6L9UioTBWxv7QECSRb88AXLBEuG5QH5dw7+igmLB2juyQFIfAL+eaJjB9R/kQHIfwb9c/IzB
FW2wQLC3ur9Z0j7BeuIxQYQ6MT/fNbXBTn9SQC44kcBDkajBVnG3QE9Yn8BcTafBTjgEQCVwZMBx
D5nBC3cXQULbwr/V8pTBmpbeQFPqjsDJdJbBoGFSQMkkQ8CVPIjBkeQzQf5HWb/JzqHB3REEQbp9
VD+6trbBJB79QLcbm74hEzzB3z4UQWcZ7T2AW1zBTlK9QMNbKj9nEbLBmXO2QGF9h79Kaq7Bctad
QNIRCUDcEJjBZ+LSQGJR+z98aZ3BcaenQJjmHUCi+6XBvjxJQCWI+j5h/ZzBiU1cQMuVTj9F7qrB
zfdgQAZ0X7/Q36XByTOrQCMJZ8DePHrB+y7dQCpxdsA484PBWSymQGkSqr+mXIbBxXqcQG+A8r9e
ymTB9xObQPkjQb9FRpPBBXEBQZMT3b8do4vBIIt1QGBWicCjfaHBjxRJQBPWb8AutJjBKganQN6a
kcBzv6DBEiMTQSnvgb+AR5zB4w91QNHDXcDcKI/BrhO9QN6tiMDjMJfB0RUjQVb5Gr+XeKPBSrUH
QQDGij5Pi6/Budr6QGmGQr/HsZ7B+nHvQGCfV74VqKjBfrOmQP9Rb8DWW47BcmMdQWoDuD3y2KzB
iRHxQB9VEr89q0vB2bQEQVgStL4+vl3BdkPZQFEqcL87n5bBKS/HQLyjm78UME7B4A7VQCwhrL9A
5nPBKHLAQA6V+b0TkqvBhZunQBUXvz6ap6HBWFizQEak7D/QS5/B7FZuQCBciT5ZqaPBnlq+QBnn
VcDvXITBYAjFQFi26L/fhoTBu/H6QCR7Qr8y9nHBfSm6QIZwxr/EdGLBq0eyQF+u9b6TRpjBUzbk
QEHnv78g7ozB7QmwQLLmuL+11z7BPEMxQXQ6ND9+Q7XBCLlTQJ9gkMBB0ajBx1IFQN8KY8BGTZnB
5/63QATKnsCig6fB42sXQTrEwr+L9JTBQ0BTQMdzQsAOcYjB4gHfQELVjsBLnpbBy68zQcCWUr/a
0aHBs2YDQb8BRz+d3bbBQYv8QLfdjb69EDzBiwMUQZmtED55TlzBzx28QGz+FT8wOLLBJJy0QFON
jr+19q3Bwo+hQJiHDEA2OpjBgenVQAyX9j9swZ3BTOiqQKo5HkB1O6bBQ3pLQHdvHz/Pj5zBr/dc
QMgQYz8mm6rBPUVdQDq3R79SQaXBh4GrQMn0Z8BBkHrBL5DdQDpmdsBtHITBB0qmQFNkqr+HUIbB
0xudQOHz+L9Lt2TBBSqbQA1vNr8GEZPB6ogBQRya2b9ujIvBIjF0QIc4jsD9GqLBa3NFQNdAeMDw
l5nB9UqmQHQslsAT/qDBOjYSQZNlo7/JrJzBWO1uQPu1ZMDi7o/BEiG7QLpejMAAU5fB4r0iQfHC
hr9uF6TBPIUMQTrXFT9HaK3B9Dz9QNKiFL9UtZ3BBmb3QL1Tqj40NKbB3ICjQG/ndcCOwY7Ba+wf
QXzL9L2aaqzBcw7sQJ4mOL9SZEzBdgDDQI7Xl7/QkE/BWlvZQHiIVL+eS5bBYhAEQcLpE79KE1/B
lmHOQLaStb+XtnTB+PHMQBoyhz9mUKfBcA+oQO4zFT6iPqPBDmR9QG5reD8OOaLBKCSgQB7qhL8C
AqvB9Zy5QGvYWsBVqoTBj2+/QDLI8r/mCYXBqXu0QPAjxL+aEmTB8z/4QCj0cL/AsXLBiNWyQP+9
wr60fJjBk2bgQDYNy7+gNY3BIVAWQSZKF76Ze13B7m00QeaFGz7QnLXBFTNUQLsHlsDegqnBjuMB
QPGTa8BVf5rBOCO4QObJo8Dvj6fBTXgUQWgz/b9ANJbB52ZLQIqKSMBaaYnBnwfdQFomksC8d5bB
hpsxQTxhzL8PaKPBDI4KQeGvqD/vrbPBoT/3QCDT7b5JjzzBlbStQAa7pL9SDULBrrrNQBKR/T+M
jaLB/XfHQGsTpz+Fxq/B4UxJQEPZpT60V5/BbsSDQOtj5T/+gpzBijBsQNtMsT+oFarBCu+FQO/z
1L9r7afBInKXQMELJr/N8bLBNG+9QJhI0r8+qavBCQmmQKCHbMBoY3vBxQbZQGpJesDFGYTB/d+g
QOeCtb8QI4fBT2UFQTM2Xb8crX/BqVycQHk+yb7pypLBqtj9QPCq+b9jD4zBT3J2QG7jjcBETqLB
SoWnQOpKlcAsN6HBehhHQHqkecDZtpnBoCwSQTuapL+IpJzBtCy8QArqi8Bvf5fB0y9wQEIXZ8D+
/o/Bq54iQZigir97JKTBy0gMQXo5Bz/Qrq3BJCz9QMQBF7+5uZ3B5yr3QP1Amj5DXKbBPUWkQDYI
d8Ae2o7B760fQWyxM74yo6zBy0TrQEyUNb8tfUzByETCQNS7lr8oyU/BGHnZQHjNUb/nOJbBU9YD
QfyQE7+oD1/BmUzOQH7otr/s1HTBXuDMQKRAhD8qfafBsOWnQDgYGT5oHqPBicd9QK/8fT9KJaLB
Ih+fQPjshr9dn6rBbjy6QFICXMDdvITBQJW/QCjY9L+6FoXBcB20QORixL/6TGTBvST4QLY1c78s
tHLBURuzQAYmsr6WTJjB1HjgQASty7+7OY3BOQMWQYzlCr6vX13BxfszQZjxgz1c/7XB7sJWQEdU
lcB4wanBkpW5QKoposBt16fBOl8DQMLGbcDCmZrBFX0UQXdh/L+tEZbBPyjeQAQ+kcBaqZbBhShM
QHmkTMDFZ4nBmIIxQQ28z79OZKPBFzsKQfjTnj/lF7TBTi72QB3r5L6BozzB/LqsQEyxor/XWkLB
rjDOQFqO/D+07aLBBQ7HQF/EoD+Y+6/BGoRJQFTIuj4qDZ/BrIqEQMhJ6j8VoJzBEBlsQOcqsT+6
EKrBuNuEQPyF1L+5VafBeiKWQPNZL78ZmrLBFie8QKzl1b/7QavBFrimQJc7bsAgjnvBtMnZQEDm
esA6LoTBquKgQETOuL+MM4fBwXMFQY4dYb+8nX/BUx6dQJT5pb5yfZLBkuT9QP/W+r/0H4zBwIR+
QKHNi8CtsKLBfh1NQPIkeMAnH5rBk5SrQACMksCSZ6HB4lcTQRhkgL9LgJvB/D90QIGFZsCJQJDB
UTy/QH/IicCihJfBvNwjQaBGKb/no6LBaacJQVA7iD4kFK/BIMn7QAzAM7+mK57BJi7yQMR4FL4a
PKjBs1OmQPL/dMB/6Y7BYQ0fQZjbjjwVOqzBxp/qQNSYML9Uu0vBqbrBQIXSlL+pME/Bc4vYQB0A
ab82gpbBMZ4DQYQIDL+oNV7B2FDOQGyps78eNnTBQubDQJYpjr3/uqvBLC+oQHZsvj4eI6LBv7Gw
QEtf7j8On5/BkDVxQJnUMz6N2KTBuzG7QC8yWsCeoITBRQTAQCfl8L/Y04TBNOWzQF76wb8oyGPB
Igr4QBBXa78c6nHBc+KxQDb/6b7CkJjBGvLgQNpaxb/76YzBQLoVQc4gyL00Z1zB9Y8zQZZeAj8h
zbTBa2RgQEO5ksB5RarB/0oJQEWabcBIJJvB1G6+QLRvnsD3AajBlgYXQUoNv7/mBZTBuqJOQG3i
TcCvsInB9DThQBS6jsBehZbBgTk0QSAya7++xqDB1fkFQVxCRT9afrbBWE/1QMbX3L7X0zvB9ges
QOihob8A1kHBvqzAQCZCKT93QrLB8kq5QFRyh7/Bh67B5uWcQLYWC0CLyJjB5rTSQA0MAEDLpJ3B
qIqoQNlLHkAYpqbByshJQBYb+z4MAZ7BlqpgQMoiSD9d5KvB/hVlQLPPYr8nlabBOCGnQGZmbcBB
nXvBedzaQM9oeMA+64PB4jShQHLktb+i84bBTHwFQWL9V7/dwX7BSiSaQJuqLb+ygJPBU07/QBKo
5L8WUIvBMo6AQBnHi8BNBqPB47ysQC5NksATbKHBrZpNQCFweMBToZrBJCUTQWNxgL9h+ZrBQy2/
QC1/icB8ZJfBzVdyQOGiZsA6npDBZQQkQfeaKr8B6qHBzXAKQS5vfz4fuq7Bkqb7QD/hNL9/7p3B
zBLzQHUBHr7qEKjBhzmlQLS2dMA09Y7BHLAfQWAJITtimavBn2/sQK23Fr9AdUzBhlPEQGBxkr+I
+k7BHqzXQB/far/IfpbB8asDQTtg177MgF/B6EjOQK3Psr8sM3TBTjHFQMpnp72L2qvBzG+oQF2e
uD4fdKLBiJKwQJ8v7T9U75/BIHVyQDj0JD6+iKXBxey4QMG9WcDyhITBw7S+QJJZ8L9nv4TB/3K1
QEXdxL9qN2PB83L3QG8VWr9wwXLBZTCxQOOh7b4FxZjB/XnfQP6lx7816ozBnXoVQXMVqj3Zg17B
AZ40QVeR9z499LPBTc9kQBq7ksCPtqrB7WnAQLcMnsC546fBaPsJQM1JbsAy5JvBxnMWQYdFvr/r
bJPBFgrhQKVMjsC3JpbBDxpLQEctTsA2MorBykg0QbiLa7960p/BFyMHQQ5HPz/7NrbBtLr3QDo7
kr4L3TzBiQqwQCSTo788J0HBo5zCQCymJT/SabLBVu66QGcuib+ntK7BsA6cQIWgCkCdPJnBJVzS
QIxh/z+kvp3BvRipQMtsHUB+CKfBpkpJQE1g8z5P2p7B6J5jQDMeRD9RpazBqehmQKKqZr+RT6fB
UcKjQJbDa8Cat3vByTHYQMsJecDzgYPBJRugQDGssr8Sw4bB37wEQaSvRr9t63/Bov6YQBc+Lr8Z
1JPB/KT9QPhz6r+6XovByK/zQMZ0nL6p5k3B1GTNQMQHgb9aHErBuL0AQfB5i70b+2LBwlITQagY
k79Zm5zBekW1QNSiv7/BX1vB6cDoQOEoBb8WRXTBImIjQcfsV78UEqTB148LQRqUQD9H0qzBiRH+
QKk6CL+rZp3BLn/2QFpN2j7Yg6XBSeTCQArcob8UhnDBNG4fQUCdwD1zO6zBq21lQKyzjMBooKHB
NPlAQGOYbsCNH5nBbUfaQG9Qeb9gi5bB+y6hQAh/k8CHiaHBOcmjQEFVWsDi1ZDBhAnLQOiEiz/c
WabBK6GnQABryD3F0aLBHV96QK5BXT+VgKHBe1ChQFqqgr/fQqvBIi+nQN754b+MS4HB0DTAQO1o
LcCx2IjBO8pzQBUATcCo4JDBq+63QO5JhcD4zZjB6lqzQDlLBL+IW5jBTtDhQNZN/r8mAI/Br42z
QEX9pMCg/ajBWgozQdH70z5tzLXBakIDQWmYVD2vlkDBF4/CQKbhlb8G6TnBzIYPQfgg7D5M22XB
4ncWQS1+7b8TQ5bBzjmYQHNeA8DgbFjBu5byQIXZmb6nOoLB68kyQdgFqr9MjKPBINgIQYetwD8l
3bLBN58+QPkomMBsLajBfK34PwfSZsB/zpjBCEXKQL39/D8FJaHBTljFQLOPsj9xr67BJsRHQH+3
Kj7f/p7BNhKBQDvc0j8XZpvBophoQFfIqT8xLKnBQxKIQEfD2r9Tj6jBcfaXQLA/Er/s8bLBo2+/
QEC0yb9mRazBSsuLQP36E8Dq1HvBu4ObQI51Z7857YXB8tfPQNdcXsAJ4IPBXw7XQJ9AjMDoJpjB
QEKdQDp7Fb+QmJLBLyEAQe6eD8DvpY3BCHoEQVIcvsCSd3zB14cAQU0VsMDrxIjBbuvwQMBNrcAa
XGvB7PsRQRiksr9U+5vBV4zhQFHQkMAqv4rBrtrQQMqzjsDwV2/B2S4jQc3yob+7MaPB09YNQd4s
fD5fOK7BsRP9QOJiNb9M6p3BCuX4QBDbyT0gIqfBoE7JQGqpf8DsM4LB2iEhQekk4r4LSqzBcrX2
QMCrKL95A0vB79MDQVjUJ76syV3B8lDYQIrTUb+yfJbBGwLPQOYyuL/bNEzB6nPQQPXPkb+RmXLB
E7PPQMgfYD+Z7KjBnY2oQChExz1/WKTB1LeBQJiKhj8mnqPBX9OcQLmwjb+EmavB7m6oQLRvOcBV
V4TBdLe8QBDLvL+MFYTBlmX0QOZo3r5io3HB1xW8QOPWy7/1AWDBmw2yQAgOzL4KW5nBDIreQIvd
rr9JZ4zBSQK/QKqr+L+QPTzBzoY2QUaoib5pK7XBPLcQQSW/1cC1cXnBcpkJQUJTvcAmVo/Bhhb3
QMPit8CTM1vBsZ8TQSJAAcAl+pTBf+nbQFbNhcB20JLBDeO9QMR8gsDOQGLBtvIxQTr35b/jwKHB
NV8MQfskYz+LIrXBmB0DQeFZ9L692TvBEB4SQeB64j7iOF3BTRnSQOvZ7D+b5KTBkhTLQEbwgz8o
j7HB8wJMQI+HAT+pY6DBt4yJQAla8j+ZTp7BU/FzQLhqtz/eo6vBQyqBQL6a0b94MajBj76UQI1x
Pr89qLPBTkK4QF2O5b9ZGKzBRiuaQNQXRMBxRozBQlGPQG73PMD7YXzBkWCjQEwUPr8Vz4XB03Gf
QDMiAsCcF2HBQniaQA8E074M85PBQrn7QPvZ2r+vnIrB

>  <OMEGA_E>  (10) 
ANFUPpDjVj6gj7k+oL28PlDJ2D4Q19k+bJkLP7i6Cz8K4R4/2MMvPw==

>  <OMEGA_NBR>  (10) 
     68929

$$$$
50225014
     RDKit          3D

 51 54  0  0  1  0  0  0  0  0999 V2000
    3.7759   -4.3756  -20.2852 C   0  0  0  0  0  0  0  0  0  0  0  0
    3.0497   -3.8005  -19.2233 C   0  0  0  0  0  0  0  0  0  0  0  0
    5.1564   -4.6263  -20.1455 C   0  0  0  0  0  0  0  0  0  0  0  0
    9.1286   -1.2712  -19.5522 C   0  0  0  0  0  0  0  0  0  0  0  0
    3.7008   -3.4884  -18.0169 C   0  0  0  0  0  0  0  0  0  0  0  0
    5.8099   -4.3140  -18.9387 C   0  0  0  0  0  0  0  0  0  0  0  0
   10.1682   -1.0257  -20.4635 C   0  0  0  0  0  0  0  0  0  0  0  0
    8.7864    0.6400  -21.6017 C   0  0  0  0  0  0  0  0  0  0  0  0
    7.9063   -0.5731  -19.6796 C   0  0  0  0  0  0  0  0  0  0  0  0
    7.7287    0.3648  -20.7172 C   0  0  0  0  0  0  0  0  0  0  0  0
    5.0771   -3.7609  -17.8671 C   0  0  0  0  0  0  0  0  0  0  0  0
    9.9979   -0.0694  -21.4839 C   0  0  0  0  0  0  0  0  0  0  0  0
    6.7823   -0.8476  -18.7765 C   0  0  0  0  0  0  0  0  0  0  0  0
    6.4923   -1.3940  -15.2719 C   0  0  0  0  0  0  0  0  0  0  0  0
    6.5339   -1.1212  -13.0748 C   0  0  0  0  0  0  0  0  0  0  0  0
    6.3915    1.0698  -20.8537 C   0  0  0  0  0  0  0  0  0  0  0  0
    5.2508    0.0991  -20.4330 C   0  0  0  0  0  0  0  0  0  0  0  0
    3.9264    0.8749  -20.3201 C   0  0  0  0  0  0  0  0  0  0  0  0
    5.0800   -1.0405  -21.4707 C   0  0  0  0  0  0  0  0  0  0  0  0
    5.7735   -3.3632  -16.5916 C   0  0  0  0  0  0  0  0  0  0  0  0
    6.0048   -1.8454  -16.6032 C   0  0  2  0  0  0  0  0  0  0  0  0
    7.6690   -0.8855  -14.9760 N   0  0  0  0  0  0  0  0  0  0  0  0
    5.7366   -1.4778  -14.1224 N   0  0  0  0  0  0  0  0  0  0  0  0
    7.7045   -0.6555  -13.6322 N   0  0  0  0  0  0  0  0  0  0  0  0
    5.5598   -0.4834  -19.1010 N   0  0  0  0  0  0  0  0  0  0  0  0
    7.0338   -1.5203  -17.5983 N   0  0  0  0  0  0  0  0  0  0  0  0
    6.2572   -1.2169  -11.8879 O   0  0  0  0  0  0  0  0  0  0  0  0
   11.2822    0.2143  -22.6252 Cl  0  0  0  0  0  0  0  0  0  0  0  0
    3.2739   -4.6249  -21.2084 H   0  0  0  0  0  0  0  0  0  0  0  0
    1.9945   -3.5999  -19.3359 H   0  0  0  0  0  0  0  0  0  0  0  0
    5.7123   -5.0580  -20.9646 H   0  0  0  0  0  0  0  0  0  0  0  0
    9.2624   -1.9902  -18.7576 H   0  0  0  0  0  0  0  0  0  0  0  0
    3.1476   -3.0401  -17.2049 H   0  0  0  0  0  0  0  0  0  0  0  0
    6.8691   -4.4971  -18.8331 H   0  0  0  0  0  0  0  0  0  0  0  0
   11.0977   -1.5696  -20.3823 H   0  0  0  0  0  0  0  0  0  0  0  0
    8.6706    1.3921  -22.3681 H   0  0  0  0  0  0  0  0  0  0  0  0
    6.3765    1.9574  -20.2040 H   0  0  0  0  0  0  0  0  0  0  0  0
    6.2442    1.3782  -21.8992 H   0  0  0  0  0  0  0  0  0  0  0  0
    3.1218    0.1864  -20.0227 H   0  0  0  0  0  0  0  0  0  0  0  0
    4.0290    1.6672  -19.5640 H   0  0  0  0  0  0  0  0  0  0  0  0
    3.6818    1.3260  -21.2931 H   0  0  0  0  0  0  0  0  0  0  0  0
    4.2690   -1.7108  -21.1497 H   0  0  0  0  0  0  0  0  0  0  0  0
    4.8321   -0.6088  -22.4517 H   0  0  0  0  0  0  0  0  0  0  0  0
    6.0178   -1.6102  -21.5472 H   0  0  0  0  0  0  0  0  0  0  0  0
    5.1473   -3.6347  -15.7290 H   0  0  0  0  0  0  0  0  0  0  0  0
    6.7402   -3.8834  -16.5212 H   0  0  0  0  0  0  0  0  0  0  0  0
    5.0619   -1.3356  -16.8503 H   0  0  0  0  0  0  0  0  0  0  0  0
    4.7762   -1.7509  -14.0664 H   0  0  0  0  0  0  0  0  0  0  0  0
    8.4552   -0.2212  -13.1343 H   0  0  0  0  0  0  0  0  0  0  0  0
    4.8221   -0.6013  -18.4362 H   0  0  0  0  0  0  0  0  0  0  0  0
    7.9743   -1.8037  -17.4109 H   0  0  0  0  0  0  0  0  0  0  0  0
  1  2  2  0
  1  3  1  0
  2  5  1  0
  3  6  2  0
  4  7  2  0
  4  9  1  0
  5 11  2  0
  6 11  1  0
  7 12  1  0
  8 10  1  0
  8 12  2  0
  9 10  2  0
  9 13  1  0
 10 16  1  0
 11 20  1  0
 12 28  1  0
 13 25  2  0
 13 26  1  0
 14 21  1  0
 14 22  2  0
 14 23  1  0
 15 23  1  0
 15 24  1  0
 15 27  2  0
 16 17  1  0
 17 18  1  0
 17 19  1  0
 17 25  1  0
 20 21  1  0
 21 26  1  0
 22 24  1  0
  1 29  1  0
  2 30  1  0
  3 31  1  0
  4 32  1  0
  5 33  1  0
  6 34  1  0
  7 35  1  0
  8 36  1  0
 16 37  1  0
 16 38  1  0
 18 39  1  0
 18 40  1  0
 18 41  1  0
 19 42  1  0
 19 43  1  0
 19 44  1  0
 20 45  1  0
 20 46  1  0
 21 47  1  6
 23 48  1  0
 24 49  1  0
 25 50  1  0
 26 51  1  0
M  CHG  1  25   1
M  END
>  <OMEGA_C>  (11) 
EalxQNMEjMAbSKLB3y1DQCY8c8BAyZnB4wClQLMKlMAQKqHBtw4SQbu1or//apzBc9psQCdCX8CI
IpDBE+u5QBIMisBogpfBzLAiQT5Jg79LtaPBHJUMQfzYIz890KzBiwD9QOu2Er/Fb53BSlH3QAzE
uj6/vKXBg3eiQH+ycMDM747Bl/cfQR4qjr0b36vBTAjZQJ/9WL9KNpbB6cDPQF1usr+8WXTBEBbR
QLSCj799MlHBgofMQCLwiD9Y1KbBwQaoQGjxyj3idqPBY0p7QP74Xz+pj6LBKY+iQBEuhb8BxKvB
vsC4QEo/V8Ceu4TBBifAQOQ27L9P04TBs2j1QLeyYr9+nW/BApK3QB0ovb9Z9WHBI4v2QPTPJ79S
HVrBh+mxQBiB977BzpjBjxThQNOawr9KyYzBKTvIQPDBm7/1ND7B44M0QUZ1Wz51ALXBp4dRQPH+
k8C6qqnB5Er/P8VkZsD2r5rBScu2QHrbocCSt6fBrDIUQee+/r+DD5bBFnJJQBORQsCPo4nBZ8/b
QO3nj8BBqpbBDJAxQW/nyL/aDqPB9roKQSswsj/d8bLBTQzMQJyK+j/SoaHBqNDHQN5psD+kMa/B
+spHQFPZPj54LqDB8O2AQPNm1T8jg5zBiKJrQDe7qT9FWKrBxJuIQB372r+vMqnB6KCaQOncG78B
nbPB+ZHAQEUbzr+cYKzB5rakQC2faMDOqXvBrK/XQAGKeMBVK4TB2/qhQHD2qr92zYbB5taYQP0e
4L8qEGHBWkgHQaF6Yr5AJlLBg06aQLLsGb9DfZPBdS3/QB3f5r+OSYvBXaVyQFv1jMB0bKLBRYOl
QFLSlMAARqHBjOdDQEvhdMAU95nBxy4SQf3goL8ITZzBmky6QI+cisD8nZfBbFdtQJtpYMCOUJDB
Cw8jQXgtf787aqPBD8wMQTMrID8W5qzBjfL8QHaDFL9Kh53B70H3QCKvqz69/6XBs7OiQEu3ccAp
FI/BA24gQb3aR73oo6vBBhLZQMlOVr/TNJbB2w/QQHf0tr8QYnTBq5zRQNQXkb/3MFHBvXPMQFld
hD8iTafBIbWnQIQq3D05W6PBAhB8QMOfaz+vcaLBTX6gQAnjiL90N6vBJMq4QNCEWMAp2YTBIDDA
QHPH7r+T3oTB1Rj1QIDnXr9A4m/BFNS4QJELyb+uv2HB0NH2QEn2Kr9vVVrBcTSyQIhP2771lZjB
ev7gQOxmxL8p34zB/BfIQOW4kr9xOD7BNIQ1QRKjjj6pXbTBe69SQN8llcBOzqnB12i3QPGtosBx
zafBxFsAQGY9aMAe5ZrB9T8UQTJm/L+U6JXBgjPcQN9YkMDhvpbBJsZJQBJ1Q8DG2YnBDg0yQUYE
w79YlKLB0+4KQeZ+rj8JJLPB22zMQEwR+z+JkaLB/2fHQFFYoz/eyq/BxhRIQC7+hz6kp5/BdpWC
QNvz3j/ns5zB82BrQJHjqj/VUqrB52aGQFKH2r+hPajBNvGXQHBxLL/aJLPBuwW+QAfb1L8H2avB
4KKkQA0masDR9HvBkLjXQAfNecDiRITBTPyhQGshrb/aw4bBVw+bQO0R978OlWDBr5gHQbsWfr5I
b1LBvT6bQO1r9b44B5PBNAL/QAut6r+Pd4vBow59QCoMi8BCpqLBbGhLQPGgc8BQSJrB8IyqQBPP
ksBGIKHB33cTQXEkg79aXJvBJb9xQLLJYMA2YpDBy8K9QPiNicDPNZfBYCgkQcdRIr9iN6LBYDgK
QZlhrD4Olq7BlCb8QP0QOb/rH57BYP3yQFLqBL6TFKjBqs6kQOpBccAAzo7Bl48fQXBPyz3cj6vB
YsPYQIC0cb/hkJbBWsDPQIKDrr8TGnTBdaDQQI8yjr+66FDBru/EQACKZr0zxqvBimCoQAFGrT6n
N6LBPT6wQIga6T9dTJ/BtxZyQAT/Ez5HOqXB35i5QGt8VsDodoTBULTAQDRa6r+Hs4TBj770QJxi
UL8aRm/B7JO3QJ+yvb/iv2HBOIT1QLBYGL+9uVnBN8ixQPhEB79s0pjB+5/hQKLEwb9Xu4zBseHH
QL1enr9A8z3BfFQ0QeJXMD/1jbPBZJVfQFZUksDlP6rBVf4HQLezZ8DyeJvBPYe9QO3an8B7kafB
KvcWQUaixr+oBpTBovFLQGS3RcCe/YnB8H/fQC5jj8AzCZbBR300Qc5TZb+8UqDByrcGQeHqXz/N
3rXBr+7BQHmpMj/XIrLBb+W6QO7GhL8T3a7BcNibQNFoBkCOe5jB0w7SQI0R+z+HIJ3BCm6oQIU4
HUDwNabBkGdJQMk32j6aaJ7BznJiQH9eRz+HJazBe7hmQDcCab9/SKfB/KukQOhDZ8CWaXvB7obY
QAlUd8CXkoPBxG+iQLuIqr+pxIbBEiKZQKyT5L+972DBSnoGQb/lC75TrFHBFqiZQDUMTr/oDZTB
DhAAQexu3L8R+orB7kt9QLGnisBa0KLBh76qQCwmksDKVqHBEI9LQPn2c8BTYprBU2gTQS68gb8J
WpvBXfu9QAAwicC1aJfB9u1xQBfQYcCad5DBFxAkQRT/H786O6LBWA4KQShmqT5EpK7BWf37QKzZ
N7/FHZ7B+bbyQDSrBb7rFqjB9PekQLTKccAT747BBWsfQfBRyj30navBqK7YQDwGcb9RiZbB8+7P
QLCQsb/LEnTBJ4zQQJ10jL+O6FDBRpXEQLDUXL3AuqvBR0WoQFCxsT4MI6LBAXOwQLAe6j+VPZ/B
Xq1xQBxWJD6NFKXBAr25QFitV8A0j4TB6c3AQBi77L/ZtITBjuD0QE4TVb9bTm/BrNC3QJZLwL9m
rmHBS3/1QL2bF78x0FnB9LaxQMhLBb8Kv5jBSZ/hQPjxwr/xvozBK6PHQMz1mL9P7D3BViw0QdtT
Lz8/o7PBf8dfQBa2kcC3bKrBj8G9QLzDnsAS1KfBlQwIQBpeaMBCipvBJ/IWQWN2xL+f/pPBlsnf
QGLCjsCzRpbBQwlMQAykR8A5BorBgGk0Qc2GYb9hU6DBeYQGQbZYXD+g9bXBA4XBQIjIMj+cGrLB
QGG6QIl7hL+pyK7BQzycQBUyB0D1ZpjBj1TSQFRm+z/UHJ3BdZuoQDHAHUAgJqbBjmNJQGur5D6G
PJ7Bm/JhQA9/Sz++/qvB6dxlQKjDZL/qHafBFs6kQPDmaMD0o3vBMa3YQE+JeMAbsoPBLH+iQDHa
rL+quobBhZSZQJyf6b8zzWDB3HMGQaOcAb4M2FHBkKOZQFEmS78d85PB5xEAQRbv3b99B4vBY29z
QPnxjMBo56LBQbdEQJ10dcDtZ5rBVu2lQCTNlMBAyKHBOxsSQbiAo7+oZ5zB2DBuQEWnYcCKvpDB
vsO6QO/YisArHZjBsb0iQZiZh7//xqPBgowMQTbaDj9ZVq3B+Qn9QLifFb/Bj53Bg1v3QMdQoT5g
JqbByiWjQD/HcsC7io/BVfwfQQz0Db5cM6zBy/fYQGJiU7/LMpbBpBrNQNqzvL/RSnTBPlT2QAAq
Nr8aD1rBBefMQN4NhD+fYqfBxguoQAS72z3LhaPBnbh8QFTTaz8GvqLBgjahQE0Uib/OZKvBowm5
QEhLWsDSRYXBvLq+QKus8b91AoXBlDK2QBi1w79+tWLBRp71QMaHgb+dUm/BWXnPQDV8kL99EVLB
DSSyQL0V2r6dtpjB1mDgQG4kwb+4wIzB7cgJQahwLr5BXlDBvZs0QVdABT5pVbXBFW9TQFzqlMBk
TKrBNikBQEPGaMAfUZvBssy3QPR0osCPV6jB0kgUQUBo/L8A4ZXBWZtKQP1RRcAhPYrBG67cQI6M
kMD1QpfBqqIxQfaGzL/I+6LBmpgKQYh0oz/LtbPBPSzNQMHH+T/9jqLB7+fHQF3zpD+b2a/B8nhI
QMkxiT4bAqDBx66CQDZP3z8XAp3BCL1sQI2kqj9Mp6rBUgKHQCHE2r85fKjBrgCZQN4jLb/0WLPB
4si+QBT01L828KvBRmGlQLyvbsBd3XzBYInYQIaHecAF2ITBekigQPbqsr8MCofBdAgHQT1Oar+a
h3nBWyTHQGCSkb/snkLBeOeaQKTQ9r46O5PBNY/+QA7C4b/FC4vB+5xzQPfMi8Ak7aLBvuilQFMf
lMBYwKHBBNNEQEcoc8Bub5rBIfcRQTD2or/sHZzBnJy6QC2ZisAwCpjBgQVuQPk2YMADu5DB+8Ui
QTuvh79RZKPBzuAMQed6Dz/NF63BAN78QHnfE79DZZ3BuK33QKVipT5b/aXBbfWiQLIicsDOe4/B
TT0gQaH/Eb4M2qvBCWvYQAGOUr9aKpbBP2DNQAcUvb+nGnTBcr/2QMNRJ7/pdVrB8kjNQOkIhT+J
V6fBekaoQL6a1j2ct6PB6tt8QB+XaT9NGaPBLESiQFATiL+gu6vBBsG4QH/2WcAHM4XBTlm+QOv3
8L/i5ITB6Ve3QPo0xr/9QGLBudX1QKGDfr91jW/BpgzRQLA1kL+g5VHB/5mxQHiK4b4J4JjBN73f
QECnv7+JrIzB+HMJQbhsobyLbVHBJAI1QdQJ3D0u77TBA9NTQDhrk8CzW6rB3My3QCPOocDtTajB
lW4BQFLQZcC2YpvB4fYTQeGw+786kZXBMHHcQD+ukMBKJJfBKmNKQOTuQ8DNOYrBNaIxQafDzL8L
f6LBcx0LQcTMoz9WerPBZCbNQBja+T/sbaLBitbIQH12pz9Vza/BglxIQG62gT7yiKDBhi2CQFOU
3T/KS53BZgluQFlUqj81BqvBpfaHQOvl2r8CA6nBRpiaQEZ4KL/Qr7PBC/y/QBwt07/mMKzBuRKl
QIyhbsCLwHzB4kbYQLcaecAMxoTB58+fQCoAsr9kz4bBeAsHQeH7aL/75nnBHrnJQCUElL9IVELB
/N6ZQMeYBL9Ki5PBPvr9QBki37+A8orBVg2CQK4yisBBl6PB1A1RQJaPdMA/MpvBexSuQIedkcDq
9aHBhiMTQbqDhL++cpvBGPh1QBy+Y8DtKZHBEKXAQG0micCM65fBWLcjQfTwKb89dqLB6n0JQTiD
XT58Gq/B8lT7QNIyQ79zQJ7BKNjxQLT0bL6Ia6jB7PSmQNgOc8CTfY/BpuUeQYAoiTwpCqzBfAnY
QPqjbb9hhJbBzTLMQMhKtL8T6HPBgev1QDhtPb/WSFnBeJ3DQKZuHr4m8qvBtoGoQBQgrz7mb6LB
8Q+zQFm96T8aE6DB63FxQKxwWD4eL6XB1se6QKhFWcBA/oTBKf++QIad7r92zoTBgMW1QDFRxL+o
QGLBe3DzQGiKWb/m+W7Bs8HNQMq6hr+brFHBclSxQB2N+76XzpjB5ongQFBbvL8IjozBF/UKQbC/
677C807By20zQUiIFj8CR7TBxbZnQOy8kMD+S6vBC6gNQP0ZacBOeJzBkI/BQLPKncBWaqjBIcwW
QTtIw79++JPBf/pOQCgTS8D/uorBMGjiQLeVjsC8q5bBih40QelkZr81gqDBbdAFQZkfNj8Gj7bB
KZfAQNDyCz+/rrLBNYi4QMRVk78tca7B7aSfQHU4C0CKSZnBvDbVQKQA9j/aFZ7B9NWrQJfdG0DO
LKfBBsdKQEDaED8mZp7BMvxiQKZJUT8rTazBVTNiQK3HV7/Z0abBk0WmQORtbsAzsnzB1pjaQP24
dsCkNITBbDCgQLpYtL+4AofBOvwEQQlIE792dHnB5NXDQPP/cb9Nj0LB9RyZQM72Ob9z7ZPBbSH/
QNakzb+meIrBUN2BQD1di8AavKPB7QiuQKcrksBaLqLBpwhRQO8IdsCiW5vBS/gSQaqxgr8qU5vB
S93AQCrkiMDVNpjBH4Z2QH1aY8AUaZHBCmkjQalKHL9CRKLB7NcIQWXqEz4zQq/B6M36QBD7UL+U
TZ7BEvLwQF81sL6+oajBnE2nQHQRcsDLyI/BHEoeQdQgFz0H86vBWrrXQOAob7/gdpbB5fvMQPOa
ub8Lr3PBpcjzQFcjDr9xqlnBdnXCQIgwib50+avBTC+pQOIXrz4UkKLBzAu3QBxm6D/30KDBMP5x
QPyQmT5sBKXBaR67QC9XWcCmPIXB2TK/QFEU778QwITBkU+2QBufxr8NE2LBrGj0QKRHZ7/zvG7B
KZzOQEKKi7+HdlHBrGOxQExF676ts5jBG3bgQH0Our+Jc4zBtykHQbd9Bj7tZVDBeYYyQY+QNj/l
2bPBqtlmQMmzksD9XavB3mvBQASAnsCroqjB+XINQHBYa8CMlJzBK8sWQSSbvr/dxpPBPbriQPLh
jcBrBZfBatpPQMq1ScC0AYvBBe4zQcZ7Sr/FLqDBYP4EQeajGT8B2rbBeDW/QHYHvT4MGrPB41C2
QFBJo7+oxa3BNeqkQAujD0ArGZrBp3fZQMEC7T+M/57BD5iwQChXGUCqHajB6D9OQGpbPD8DSZ7B
De1kQJScYD+yU6zBldVdQOFcPr/pMqbB+7CmQPvCb8A6SH3B0gHbQGaddsBuiITBMk6gQGPks7/Y
xobB9nsGQRD2SL+O0XjBeb3GQF4Rkb9F+EHBWzaZQE4dJL+QqpPBfhz/QMj7xr96TIrB

>  <OMEGA_E>  (11) 
SOEvPuDiMj4AR6I+wFKjPhgY2T5kztk+2MQNP9RuED8=

>  <OMEGA_NBR>  (11) 
     76120

$$$$
50225011
     RDKit          3D

 55 58  0  0  1  0  0  0  0  0999 V2000
    3.7703   -4.3872  -20.1458 C   0  0  0  0  0  0  0  0  0  0  0  0
    3.0983   -3.8498  -19.0306 C   0  0  0  0  0  0  0  0  0  0  0  0
    5.1584   -4.6307  -20.0901 C   0  0  0  0  0  0  0  0  0  0  0  0
    9.1502   -1.2656  -19.6263 C   0  0  0  0  0  0  0  0  0  0  0  0
    3.8124   -3.5676  -17.8559 C   0  0  0  0  0  0  0  0  0  0  0  0
    5.8779   -4.3379  -18.9175 C   0  0  0  0  0  0  0  0  0  0  0  0
   10.1606   -1.0551  -20.5805 C   0  0  0  0  0  0  0  0  0  0  0  0
    7.3063   -0.8246  -12.7442 C   0  0  0  0  0  0  0  0  0  0  0  0
    8.7460    0.5728  -21.7299 C   0  0  0  0  0  0  0  0  0  0  0  0
    6.0030   -1.2929  -12.9803 C   0  0  0  0  0  0  0  0  0  0  0  0
    7.9253   -0.5675  -19.7351 C   0  0  0  0  0  0  0  0  0  0  0  0
    7.7189    0.3354  -20.7994 C   0  0  0  0  0  0  0  0  0  0  0  0
    5.1990   -3.8185  -17.7969 C   0  0  0  0  0  0  0  0  0  0  0  0
    9.9589   -0.1349  -21.6286 C   0  0  0  0  0  0  0  0  0  0  0  0
    8.1558   -0.6236  -13.8473 C   0  0  0  0  0  0  0  0  0  0  0  0
    6.4648   -1.3630  -15.2652 C   0  0  0  0  0  0  0  0  0  0  0  0
    6.8247   -0.8111  -18.7883 C   0  0  0  0  0  0  0  0  0  0  0  0
    6.3901    1.0577  -20.9104 C   0  0  0  0  0  0  0  0  0  0  0  0
    5.2483    0.1320  -20.4036 C   0  0  0  0  0  0  0  0  0  0  0  0
    9.5543   -0.0994  -13.6552 C   0  0  0  0  0  0  0  0  0  0  0  0
    3.9552    0.9502  -20.2414 C   0  0  0  0  0  0  0  0  0  0  0  0
    4.9947   -1.0317  -21.3955 C   0  0  0  0  0  0  0  0  0  0  0  0
    5.9569   -3.3934  -16.5777 C   0  0  0  0  0  0  0  0  0  0  0  0
    6.0672   -1.8614  -16.6118 C   0  0  2  0  0  0  0  0  0  0  0  0
    5.5973   -1.5430  -14.2392 N   0  0  0  0  0  0  0  0  0  0  0  0
    7.7227   -0.8992  -15.0856 N   0  0  0  0  0  0  0  0  0  0  0  0
    5.6011   -0.4231  -19.0732 N   0  0  0  0  0  0  0  0  0  0  0  0
    7.0908   -1.4893  -17.6145 N   0  0  0  0  0  0  0  0  0  0  0  0
   11.2062    0.1158  -22.8188 Cl  0  0  0  0  0  0  0  0  0  0  0  0
    3.2204   -4.6138  -21.0472 H   0  0  0  0  0  0  0  0  0  0  0  0
    2.0371   -3.6555  -19.0794 H   0  0  0  0  0  0  0  0  0  0  0  0
    5.6691   -5.0421  -20.9482 H   0  0  0  0  0  0  0  0  0  0  0  0
    9.3088   -1.9581  -18.8128 H   0  0  0  0  0  0  0  0  0  0  0  0
    3.3004   -3.1585  -16.9975 H   0  0  0  0  0  0  0  0  0  0  0  0
    6.9433   -4.5099  -18.8760 H   0  0  0  0  0  0  0  0  0  0  0  0
   11.0913   -1.5986  -20.5105 H   0  0  0  0  0  0  0  0  0  0  0  0
    7.6479   -0.6236  -11.7396 H   0  0  0  0  0  0  0  0  0  0  0  0
    8.6050    1.2957  -22.5198 H   0  0  0  0  0  0  0  0  0  0  0  0
    5.3274   -1.4521  -12.1528 H   0  0  0  0  0  0  0  0  0  0  0  0
    6.4184    1.9719  -20.2993 H   0  0  0  0  0  0  0  0  0  0  0  0
    6.2054    1.3247  -21.9614 H   0  0  0  0  0  0  0  0  0  0  0  0
   10.0517   -0.0134  -14.6325 H   0  0  0  0  0  0  0  0  0  0  0  0
    9.5123    0.8903  -13.1769 H   0  0  0  0  0  0  0  0  0  0  0  0
   10.1207   -0.7921  -13.0153 H   0  0  0  0  0  0  0  0  0  0  0  0
    3.1482    0.2943  -19.8829 H   0  0  0  0  0  0  0  0  0  0  0  0
    4.1215    1.7581  -19.5137 H   0  0  0  0  0  0  0  0  0  0  0  0
    3.6715    1.3835  -21.2119 H   0  0  0  0  0  0  0  0  0  0  0  0
    4.1841   -1.6697  -21.0135 H   0  0  0  0  0  0  0  0  0  0  0  0
    4.7081   -0.6222  -22.3754 H   0  0  0  0  0  0  0  0  0  0  0  0
    5.9122   -1.6291  -21.5019 H   0  0  0  0  0  0  0  0  0  0  0  0
    5.4194   -3.7110  -15.6720 H   0  0  0  0  0  0  0  0  0  0  0  0
    6.9611   -3.8423  -16.5845 H   0  0  0  0  0  0  0  0  0  0  0  0
    5.0933   -1.4352  -16.8942 H   0  0  0  0  0  0  0  0  0  0  0  0
    4.8897   -0.5042  -18.3752 H   0  0  0  0  0  0  0  0  0  0  0  0
    8.0393   -1.7464  -17.4297 H   0  0  0  0  0  0  0  0  0  0  0  0
  1  2  2  0
  1  3  1  0
  2  5  1  0
  3  6  2  0
  4  7  2  0
  4 11  1  0
  5 13  2  0
  6 13  1  0
  7 14  1  0
  8 10  2  0
  8 15  1  0
  9 12  1  0
  9 14  2  0
 10 25  1  0
 11 12  2  0
 11 17  1  0
 12 18  1  0
 13 23  1  0
 14 29  1  0
 15 20  1  0
 15 26  2  0
 16 24  1  0
 16 25  2  0
 16 26  1  0
 17 27  2  0
 17 28  1  0
 18 19  1  0
 19 21  1  0
 19 22  1  0
 19 27  1  0
 23 24  1  0
 24 28  1  0
  1 30  1  0
  2 31  1  0
  3 32  1  0
  4 33  1  0
  5 34  1  0
  6 35  1  0
  7 36  1  0
  8 37  1  0
  9 38  1  0
 10 39  1  0
 18 40  1  0
 18 41  1  0
 20 42  1  0
 20 43  1  0
 20 44  1  0
 21 45  1  0
 21 46  1  0
 21 47  1  0
 22 48  1  0
 22 49  1  0
 22 50  1  0
 23 51  1  0
 23 52  1  0
 24 53  1  6
 27 54  1  0
 28 55  1  0
M  CHG  1  27   1
M  END
>  <OMEGA_C>  (12) 
JE1xQBpkjMCWKqHBUEtGQGJidsC0PpjBvBGlQL0ulMCNuKDBCGcSQbcAor+aAp3Bkf5zQEJTZMDh
2I7Bzxe8QA/QisD4VpfBrpEiQSIPh7/npKTB6MzpQLIYU79Y6EvBuO8LQQuhEj/I1q3BNhjAQPB9
pb8sr0/BXpz9QH5JEb+T4Z3BkQH3QE27qz43ZabBX16mQC5idMAnYI7BplcfQbghCr5lB63BCH4C
QfqkH7+Ojl3BPd/OQLF2rr9aPnTBkWPaQKKiT79zTpbBinvMQNdhhz98SKfBYvKnQGAiBz6dOqPB
at4YQZCOy72Be1rBgCF9QHFBcz997qHBltSfQPMNhL/yKavBw56+QFYtWcAtn4TB1SbCQEtB7r/e
5ITBxRyzQFGAxb/i02PBWSD3QIIxZr+1XnHBlzyzQBCi2L79lZjBtefiQC+ivr+E6ozBvkwzQQwo
7T3RjLbBThpOQEykk8C5YKjBsl8CQPbyacCvopjBZWm1QDxZocDnlafBsfAUQUOk+r+ogJbBuDlT
QAclSsDR+ofBnC/eQF5RkMAlApfB1nUxQXmdzL+BFaTBwrv0QBCmH79g1TvB8q0JQYzYpT93KLTB
P3qqQK7dub/TcULBL2PNQB1n/D8IZaLBgZLGQGaPqT/ssK/B1dMgQb2fW7yrHmrBTjIYQefrYz+q
1FLBVe4hQTjESr+hPlDBkXtJQA6ylj4wEJ/BE+ODQOcK4T8XHJzBN/lqQAIXsT/1sanBIuSFQCy3
1b+mG6jBbaiWQDRHH7+5ALPBYDC9QDWH0L/wA6zB7GutQEuAbcCZwHrBUcHeQObndcAbrYTBQ/yi
QH+zt79VJ4fBGnicQOsRAb93AJPBEqEAQTOL37/0b4vBos9wQOBAjcAdY6HBUMmkQEIelcCQ06DB
qDlFQHx2d8AAjJjBIogSQRUqoL+g/ZzBdXS7QAyhi8D2ZpfB3EJyQCQOZcD7Go/BAZUiQawBhr9L
sqTBTk3oQKZpNr+/cEzBLMcLQUBzET/B663BGly/QOmDn78+DVDBB7z9QC5QD7+02J3BANr2QGUz
qz6/a6bBRG+lQCaudcBcgY7BNjkfQQDnCr5tIK3BRd8BQe41Cb/YEV7BevHOQEfLsr+SdXTBSqPa
QOIDTr9ENpbBtTXMQJ50hj9nWKfB0emnQMwWCz71CKPBfVcXQWAGAz4fXlvBVtB8QHW8cz+C56HB
37+fQDNqh78Er6rBx2u9QKwhW8CjrYTBBgLCQC+38r9C/YTBTCezQKPHyL+BCmTBEI32QIAyYL+G
w3HBg7mzQBw6wL5fSZjBJsriQGtdxb/FEY3BLRkzQajD3z0StLbBtBpOQKOxlMCvn6jBkl61QM5u
osAKo6fBw2IBQO3MasAmCJnBpTUVQTKd9787b5bByYbdQJQskcBk/JbB3hpRQK0xSsD1TojB/H0x
QT9Xy7+QJ6TBEH7yQK88476SfzzB1mwJQa+MpD99RbTBN7WpQIfjsr+IzULB/jjNQJ5S/T+toqLB
bffFQH9ZpT+uya/BI/8eQTlQej4VG2vBQCoVQcUHjz86/lPBrIohQcV7/L5oBlHBVHdJQOhemz4c
2p7Bj6uDQLQ65D9LSpzB9UxqQK9DrT9yw6nB/fSFQKn317/icKfBI1mWQM6xLb8kmrLBqCi9QATX
07/mb6vB2ZmrQC50bsC/93rBNj7dQPU3ecA/moTBuhKjQGkLur+FPofByqKdQP6zyb4HgJLB8WEA
QTqU7b+q1YvBuH57QGhRisBMKKLBUCOqQKW9kcDFVKHBRIdNQIoddMBhW5nBi30TQZISgb8xJJzB
/p2/QJcKicB4rpfBUDp4QDz/YsCHtY/BtXAjQRP/Ib/XfKPBJCfnQOkcNr8nbUvBJxIIQeRoST4W
wK/Blde+QLY4pL/0Uk/BVI37QBfDQr9FmJ7BWD7wQIIIhL64u6jBNG2oQHqocsBB1o7B6LwdQVDP
4TzYCK3BSEsBQQi4+L6c6lzBrhbPQAKvsL82tHPBFpzZQIvnaL8ogZbBGFnBQHRbOb78s6vB1KWo
QASLvT7c+aHBVGgWQSyGXD7v4VnBxvC0QDwH7T/UDaDB+HVwQKG/iz6tAqTB3yC/QBH7WMCOwYTB
DMzCQJbh7b+atoTBDkazQICSzL/Yb2PBCP71QPXPUL8ZwHDBv92yQDLo4r7mVpjBo3XjQFwdvL/y
s4zB94MxQYJUHz/BnLXBV6BaQCggkcClkKnBbKa7QHEbnsCfG6jB0p8JQM5haMCGB5rBpc0XQXG8
vb/nrpTB3KvhQMZdjsAqDZfBVjdVQMDWScCx9IjBuwg0QY2aWb8o0aHBYd/wQGvj5r46YDvB5roD
QTlwLD88MbfBRiupQIcMvL+mMkLBOB+9QOz3+j40mLLBLGe1QFqBl7/Fv63BhxkeQexRuj58iGnB
8rMTQQaOmD98PlLBZ9cgQe6Hy74Epk/BFDijQLJED0DUG5nB14TXQG059j/Xgp7BHdKsQNJ/HED9
LafB+phNQKbeKj8SDJ3B185fQKxiXD+ZJqvBc61eQDB9R7/HSqXBBcCsQNJ0bsCYfnvBsjrfQGHS
dcAZj4TBAKqjQK2/tr9U8obBuJSbQNtbJL9uFpPBSSMBQbhcz7/y6YrBINZ6QC6oicCIWaLBW5lM
QHu3c8CRhJnBQdipQIrbkMABh6HBMXITQVHIgr9TBZzBmRd3QEQVY8BQ14/BEji/QJ9miMBo2ZfB
MXcjQdjaJL/LUKPB7ITnQHwTLr8Em0vBUDEIQVXjLj7Ws6/BDjPAQAdiqb9KJU/B9oL7QOKzRr+4
iZ7Bv1nwQPsPkb4kt6jBmeOnQOhVcsC/+I7BlNcdQRCeZDxM4qzBIeUAQVdEzb7DV13BRFDPQJHO
sr+5qHPBgYTZQEpaab+JdJbBGXLBQCISTr4nsKvB6fioQNIJwD4bAqLBSCUVQSkqzT4eulrBZte1
QGp47T94QaDBOf9wQD/ulj5SBaTBcXC+QEF8WcD21ITBb5HCQNL77r9asoTBjnS0QIwO1L+0J2PB
jSn1QEwgQr+7DnHBhvuyQMlI2r5vR5jB1zbjQK39vb+jsYzBRLYxQbxZIj8NS7XBjh1aQGhHkMAu
x6nBHKMIQL1QaMAxMJrBkna7QGHdnMDFU6jB5a4XQeB3v79wjZTBUN5TQE+dSsDDEInBNE3hQGuL
jcCSOJfBwAw0QdOCW79fl6HBIF/xQJC0z756ojvB6OsDQWY9Iz/yMbfBx2urQG5nxr+Z0kHBa1e9
QH1P6j7jqLLB4Dy1QJM0mr8fm63BiUgcQQCRFj9eiGrBlGcRQecYrj8w+VLBVIggQcHDJL5pwlDB
n06kQFevEEBaWZnBBXTYQA1b9T8+u57B7uitQLEcHEDQcafB24lOQA8ENT+RF53BhcZgQIgLYD9G
N6vBe09eQFFpQb90MqXBysarQBP6bsDtvXvBLWfeQDDqdsCWmoTBVYqjQGVYtr+m34bBDbybQBMN
Gr+/9pLBh/4AQVUT07/p8IrB84x6QBXygMAWlaTBGk1EQEk0WsAQCp3B51CoQFZ5icAj96HB6qwS
Qd4zpb9Q0JvBY4BjQJmlRcDnxpLBCeC3QDrgfsCGspfBBIQjQSD8i7/bJqPBypzuQOItQr8lu0nB
DoEMQVg+sD50963BPMDbQPohAMBAKE7BLjf9QJP5K79Ak53BACP3QEi0DT46tqbB12mcQC24WcDe
/4/B1GwgQRqAjb5dN6zBOFDxQCRpPz7pW1rB6mnPQOCGqb+0j3HBUuPYQFc/XL/6HJbBeuvMQH1+
Xj+AH6jBlWenQHhZcryzFaTB2xUCQRADxz8FHVbBpth8QBg3Vz/RC6PB++CeQEWVkr/wQazBhDGt
QMF8RcDI4YTB96S9QFfAz7/F5YPBC4LMQH8KEcBs5mHBPRzhQDYu0r12423BRZexQK5jEb+XPJnB
Zj/gQPl3r7+X3IvBclg1QYT6kbw8PrXBsRViQOmaicAcXqzBaNoCQByVS8DYIZ/Bj1W9QB6xl8C6
1KfB3BQVQTfe9L8d25TBaDY6QIaRJsAQCo3BBtzYQJHxhcAbspXBjs0yQULcyL9W1KHBzb/6QINm
CL+09TnBcjUKQTZTej9l3rTBdHDZQOXtL8BsukHBiarNQOAn5z+og6PBziLIQL19jD/NpbDBDOwA
QTrMCkC0q2TB/WfyQGOhAkANEEnBTf0SQaSAuT9rg1HBe99HQBm9Vz4cL6DBwwmEQMUU1D/qUJ3B
CkFsQGzDoT9j5qrBk06EQB/z4r8xaqnBwnGWQDmFNL/UCrTBRtS7QD1y4b+EIa3B5zSTQDgmT8AK
JH7BPrjHQGJiccD2DIPBO76iQEgocb+mfIXBpYCZQHEcOb9kHpTB8GT+QIQHyr/7wInBcR+GQJKi
k8DSLaTBQhesQN6kp8A3u6DBbb1mQNzZZsC24J3BPUQRQaaBsL+Vhp3BRtK/QMfAmsDZGZfBdv2G
QFfUTMAKS5TBPKEgQR7Vpr+6v6XBV27hQKV2Zr+BBUnBd1IJQfgcTT7+za/B/4i6QAcuAr89YVLB
85H7QL0qKr9OcJ7B3ZPzQJSV5j2pqKfBZsatQGfycsBE55DB9qscQaNFA78/367B+CP/QHlGzb8v
sVXBbX7PQBtiwb/MkHLBExnaQFFtQb/sFpbBPavKQK4VbT9WTajBExylQH4KIj4K7qLBhGQUQRhg
BcCGD0zBDmN+QJNdkD85LKHBVB2WQJ2Rf7+VRarBG9PBQIr/WcAKNobBT0fEQDHi7r+qsITBHymy
QDhSUb+p92bBpYX1QBic9L+bM2rBe4myQKySvr4BOZjBp4PkQJZ9pr/vIYzBC9IvQfqy0L7TAbnB
v+luQO8CncCapKvBkiG6QPDnwMABeKXBzKErQO9HScA4aKDBOFgUQeSn/b8EhpbBS8rcQMpZqsDN
dJTBcLtwQA1qG8Dde4/BOHQvQXQD7b8OEKXBtWPoQMjsKr9ugjjBsGMGQfJsUD+swrbBdk6jQEU4
Jz33FEnBZ2fPQL1l8T9VK6TBzs/CQMhZjj8BwLDBHV4dQUBGKsC8EFjBhvYdQZTbm7+U9UbBDv8Q
QfVGLsDvJD7BNxhJQBejFj9lX53BJmmJQN9I+j/A95vBUFBpQInQwz/b7ajB4x53QIqhxL/raqbB
bkSLQAOHFr8h+bHBkd+wQBqZ2L87pKvBFWuuQHBOdcAUbH/BA2riQEtvdMAs1oXBxrSkQA6JuL91
lobBNI6cQIi24L7wbpLBoqABQV+vp79g6YnBtBdeQI7QkMDvlaHBqVQtQKjKcMCrUJrBJ9qZQM1J
m8A/LZ/BWJwTQTcwkr82S5rBagBSQBNJVcBXmZDBLi2sQPOujcDddZXBNu0lQX4FLr+jvJ/Blpn0
QKlXur6iRlDB2jQQQSydej8zF6nBc1/fQDICzb87n1DBcd3+QISXDL/QTJzBbIn7QMmIAD8i06PB
kquTQFN5a8AHFo7BED0kQWktxD5HGafBZr31QLuqyj5QN2PBg7POQPDho78+03TBsN3XQFbie7+5
gZbBd4nQQFbJlj8Qk6XBBTerQMSlKD7x9KPBOB8GQTsd3j8DiWPBJJ2AQArZcD/Y76LBaxKoQKP2
UL/ziq3BTLenQKLDTcDPqoPB/S66QE0c5L+gtoTBHczMQPSUAsD1zGLBqJPiQP/ijb1uH3XBDrOx
QIDUHL8E5JnBcdHbQP8b3r8pKY3BU/06Qffbdz9iu63B3dNBQIh/m8ANAanBwbvXP29zYMCxMJzB
NZisQDO+rcD2x6TBK/gUQVh2+b80l5TB1twsQM9AL8CaE4vBiAfNQJ2SlcCnpJPBn0Y1QYz7kb/3
Q57BXtYBQajAi7uk1EHB+fcOQZyZ5j+dp67BFOrdQK0MDcACTELB9gLNQNs2AEDu0p/BRTfPQOu/
yT9pxa3B9dAEQRxjC0AhmHPBKkT9QK/7GUAexFfBxRkXQQZHzD/AeF/BeklMQBt9az7+yqHBJU+C
QNxezz83B5zBqCl2QMQxwz+fQ6rBP4iNQKxxwr8oM6zBOT+iQEKQfr488LTBnDfGQFMxsL/dSa7B
qC2PQFcxTsBOt3rBC7bBQA7pecCafIHBGvifQLMBjb+Y6obBqBCYQBukXL+BiZXBo4f2QOEzEcB0
EozB7ZlXQMN7gcBKW6LBC2MwQCZMbMDLnJjBdbaYQNhchcD28aLBI44UQfUcUL+Oh5vBct5iQBEg
XsAHcI/BIg6yQJF5e8Ab0JnBleokQdpwxL5Gf6LBgG/sQAGrgr8O2EnBsckKQb8zYD9M9azBRVPI
QOSswb6FcFLBulX+QELszb4vT53Bpbb0QBKJ3z7kFabBcGqeQJGMZsAA+I/BxwYgQXh76z7YM6vB
WoQBQUx19r9F5lbBVNrRQNX4xb9DkHLB2uvaQImkVr8LPJbBfD7HQH0kcT9Ef6fB3semQMlDIL4C
I6TBZKUUQSEDK8DkHE7ByE9zQPDP7D4rEqPBi22lQA3xob8FyqzBo125QG1bVsDBCYbBUZvCQDdt
67+bjYTBjqm7QApHJb/ypmbBODj1QHyXC8CS+2rBJ9myQExAOL9edZnBTgjkQN21sL9FMozBtEw0
QaxkgD/Yx7PBp+owQEMzh8BiX6nBb1TXP53HZcAvLJjB6banQLwxjsC0aKrBjlUYQcMsur9D15TB
FbJEQIDDTMAx+YfB6HvUQOXHf8CWVprBNTc1QYGMM79cKqHBSZr2QHFgU79joDnB9RcHQVEBxD9Z
krPBpai2QDt6qT7z20jBtnfCQF2y6j/Ge6LBE/3BQIYfmj8p8a/B960aQXnIV8AbSFrBrE4hQdYs
+r/T6UnBK90PQYLoTsBnvz/B/nFFQPpgor7gsKDBvHV0QJmQoD/79pzB/cxfQMcoZD+lzKrBGG2O
QF+2AsAmZqrBTX2bQKMUVL9kebTBXmrFQKYb27/Yo63BDwyoQJkxbsDJ9X3BUOjXQBLIeMD904bB
r9ikQLYHpL8DB4bB+YCbQMKIgr+cipTB5FoBQQyMu78DBorBQliIQG3/nsBu8qLBiRhTQBMji8B4
XJzBvUmzQFivocBpj5/BazAPQdFw17+KmZ3BDDxrQAlJdMAfW5LBXly/QAPnkMDti5XBNBcgQWch
yL9fAqXBQXjgQGr+r70/Xk/BjV4OQU0stj6ANK3BOdfSQOkqtr8NIlDBEWz7QNp/SL8ZAZ7BznL6
QDZhZD5B86XBF3qgQLz7esBR247BxbkfQdp7Cr8HxqzBT6fgQAYoKD+ZfWLBQlDHQBmCnL/SDHXB
pzbXQIwIYr9TXpbBIJTVQF47mz9NI6bBdmyrQHxaCT94RaLBDArvQIp9BkBDWmLBifeJQKbK0D/X
vZ/BACyZQIvp074e9KrBvcatQPz5VcCbHYTB7ae4QFDW6r+kDYXBEm/GQFcY/L/F3WLB6eHTQF7H
oz1r/HTByymzQDSFdr7OR5jBBWrbQJSZ079FHY3B6c40QRGswr4M3LXBhwt+QJMnrMDElqrB6GER
QDjxiMDA+57BiOzKQC2bsMAxpKTBWJIPQQGIHcDXnJfBvy88QEkgVcDcXY3BHUvgQEDeksAX+ZLB
Q1YtQeVlEMC8vKTBuo/qQIMJuT61eEDBRjEOQbClkj/GGLPBbkrSQOwAAcAssEHBASXdQL+yA0DL
1KDB6iHRQOhUyj8pW67BAOrsQHfQIEArpHLBcVPaQJqxK0AglVfBvCsIQVcyCkBPulzBDDZYQIR0
lD9RAZ3B4mGWQBanEkCrbJnByZ2DQFkrDkDx/qbBzPV2QEdVYL/6AqjBfFaSQLuGIz78Q7LB7sKw
QI57mb9JvqzBT1uTQCUWXsB7x3zBcybKQEiIeMDKNIHBcNqbQOC+pr/AyYfBB/abQEayjb5Tx5LB
QGL3QM0UB8CSzovBGfuCQBj9jsAVdqTBEg1VQOhDisBDD5vBVqevQFu9iMACKaTB3yARQZhlur+Y
AZ3B02p9QPuxfsDjW5HBsOfDQFfJe8AKdJrBXcIgQdHCtr8zH6XBnQbdQKaWW7+iJUnBEV8KQYmf
rj0dma/BPEvEQGDAbbwJOFbB1en7QGHmNr8FLp7BqAH1QN3MHz3klKfB+H2rQDASc8C4/ZDBLW0d
QUErJ7/1Y67BrvTtQB8qAsCqL1LBfPjLQA4Kw7/Nm3LBZNzZQJ+VQr+175XBmWXMQM1cXT/bn6jB
vBKmQI5CGz4QDKPBMcIDQXHZP8D2mUTB7BaBQBWolD+qi6HBP9iVQBl8g78e96nBmLnAQBdwW8Dm
dobBPNHBQD738b/RzITBymK8QJf5tL7Dw2rB3j7lQF4WFsDBv2bB876yQMuNtb7NPJjBAPjiQLAA
p7/G6IvBBvgwQQTzGb+iXrjB1wFnQMNkl8Ap5avB9ZwQQHIEj8ARS5vB/V3CQMtDjMDMXqvB/MIT
QbLUAsAx4ZXBZr5XQNPSdsCnLorB6RfmQB3RccB8PprBdk4vQSQDAMCMPaTBpeTiQKsYHL8vljjB
beoHQfXbLz/PqrbB6JS3QEIeaD/30U/BQnjRQMNY7D8M3aTBb/DEQKhDgD93J7HBpv0HQaVweMBP
LU7BUHQSQeU6IMCRAT/B70D0QK27U8AkvDbBe+1LQH51KT8pnJ3BDhWMQGL8/z+BjpzBbNJtQHBD
xT8cZ6nBBa11QPNMwr8Y6aXBkkeLQE0EJr8xy7HB7OKvQJBr4L/OHKvBibauQNffeMAeuH/BuLbh
QBb/c8DQdYbBkkuiQF5Wvb/07IbB9YacQGI5xr52fJLB7qoAQf5wpr/jYonB

>  <OMEGA_E>  (12) 
MCVqPghhbj60NcU+uAnGPhTG/D4y9Ao/ACQWP4RFFj+CEBo/QEMdPw==

>  <OMEGA_NBR>  (12) 
     85523

$$$$
50225003
     RDKit          3D

 46 48  0  0  1  0  0  0  0  0999 V2000
    3.8425   -4.3149  -20.3332 C   0  0  0  0  0  0  0  0  0  0  0  0
    3.0925   -3.6926  -19.3150 C   0  0  0  0  0  0  0  0  0  0  0  0
    5.2157   -4.5704  -20.1422 C   0  0  0  0  0  0  0  0  0  0  0  0
    9.1162   -1.3188  -19.5548 C   0  0  0  0  0  0  0  0  0  0  0  0
    3.7104   -3.3421  -18.0991 C   0  0  0  0  0  0  0  0  0  0  0  0
    5.8351   -4.2223  -18.9247 C   0  0  0  0  0  0  0  0  0  0  0  0
   10.1582   -1.0948  -20.4722 C   0  0  0  0  0  0  0  0  0  0  0  0
    8.7742    0.5292  -21.6616 C   0  0  0  0  0  0  0  0  0  0  0  0
    7.8969   -0.6184  -19.6924 C   0  0  0  0  0  0  0  0  0  0  0  0
    7.7195    0.2823  -20.7646 C   0  0  0  0  0  0  0  0  0  0  0  0
    5.0774   -3.6259  -17.8909 C   0  0  0  0  0  0  0  0  0  0  0  0
    9.9910   -0.1634  -21.5166 C   0  0  0  0  0  0  0  0  0  0  0  0
    6.7817   -0.8377  -18.7531 C   0  0  0  0  0  0  0  0  0  0  0  0
    6.5522   -1.3577  -15.0883 C   0  0  0  0  0  0  0  0  0  0  0  0
    6.3986    1.0075  -20.9066 C   0  0  0  0  0  0  0  0  0  0  0  0
    5.2455    0.0743  -20.4455 C   0  0  0  0  0  0  0  0  0  0  0  0
    3.9468    0.8950  -20.3433 C   0  0  0  0  0  0  0  0  0  0  0  0
    5.0341   -1.0709  -21.4684 C   0  0  0  0  0  0  0  0  0  0  0  0
    5.7275   -3.2589  -16.5682 C   0  0  0  0  0  0  0  0  0  0  0  0
    6.0316   -1.7454  -16.4933 C   0  0  2  0  0  0  0  0  0  0  0  0
    5.5555   -0.4954  -19.0967 N   0  0  0  0  0  0  0  0  0  0  0  0
    7.0542   -1.4142  -17.5156 N   0  0  0  0  0  0  0  0  0  0  0  0
    7.6795   -0.8062  -14.9563 O   0  0  0  0  0  0  0  0  0  0  0  0
    5.8271   -1.5880  -14.0839 O   0  0  0  0  0  0  0  0  0  0  0  0
   11.2934    0.1327  -22.6358 Cl  0  0  0  0  0  0  0  0  0  0  0  0
    3.3650   -4.5961  -21.2602 H   0  0  0  0  0  0  0  0  0  0  0  0
    2.0438   -3.4845  -19.4674 H   0  0  0  0  0  0  0  0  0  0  0  0
    5.7932   -5.0330  -20.9288 H   0  0  0  0  0  0  0  0  0  0  0  0
    9.2476   -2.0241  -18.7475 H   0  0  0  0  0  0  0  0  0  0  0  0
    3.1371   -2.8550  -17.3241 H   0  0  0  0  0  0  0  0  0  0  0  0
    6.8888   -4.4112  -18.7817 H   0  0  0  0  0  0  0  0  0  0  0  0
   11.0874   -1.6369  -20.3764 H   0  0  0  0  0  0  0  0  0  0  0  0
    8.6509    1.2474  -22.4587 H   0  0  0  0  0  0  0  0  0  0  0  0
    6.4087    1.9138  -20.2833 H   0  0  0  0  0  0  0  0  0  0  0  0
    6.2453    1.2879  -21.9591 H   0  0  0  0  0  0  0  0  0  0  0  0
    3.1242    0.2416  -20.0172 H   0  0  0  0  0  0  0  0  0  0  0  0
    4.0823    1.7061  -19.6127 H   0  0  0  0  0  0  0  0  0  0  0  0
    3.7060    1.3241  -21.3271 H   0  0  0  0  0  0  0  0  0  0  0  0
    4.2153   -1.7214  -21.1272 H   0  0  0  0  0  0  0  0  0  0  0  0
    4.7784   -0.6436  -22.4493 H   0  0  0  0  0  0  0  0  0  0  0  0
    5.9587   -1.6604  -21.5550 H   0  0  0  0  0  0  0  0  0  0  0  0
    5.0469   -3.5288  -15.7473 H   0  0  0  0  0  0  0  0  0  0  0  0
    6.6683   -3.8191  -16.4637 H   0  0  0  0  0  0  0  0  0  0  0  0
    5.1071   -1.1854  -16.6975 H   0  0  0  0  0  0  0  0  0  0  0  0
    4.8130   -0.6198  -18.4385 H   0  0  0  0  0  0  0  0  0  0  0  0
    8.0088   -1.6201  -17.3001 H   0  0  0  0  0  0  0  0  0  0  0  0
  1  2  2  0
  1  3  1  0
  2  5  1  0
  3  6  2  0
  4  7  2  0
  4  9  1  0
  5 11  2  0
  6 11  1  0
  7 12  1  0
  8 10  1  0
  8 12  2  0
  9 10  2  0
  9 13  1  0
 10 15  1  0
 11 19  1  0
 12 25  1  0
 13 21  2  0
 13 22  1  0
 14 20  1  0
 14 23  1  0
 14 24  2  0
 15 16  1  0
 16 17  1  0
 16 18  1  0
 16 21  1  0
 19 20  1  0
 20 22  1  0
  1 26  1  0
  2 27  1  0
  3 28  1  0
  4 29  1  0
  5 30  1  0
  6 31  1  0
  7 32  1  0
  8 33  1  0
 15 34  1  0
 15 35  1  0
 17 36  1  0
 17 37  1  0
 17 38  1  0
 18 39  1  0
 18 40  1  0
 18 41  1  0
 19 42  1  0
 19 43  1  0
 20 44  1  6
 21 45  1  0
 22 46  1  0
M  CHG  2  21   1  23  -1
M  END
>  <OMEGA_C>  (13) 
9Ot1QKcTisB9qqLB3utFQI1TbMAthZrBueamQI9AksAqI6HBEtwRQZvPqL84cJzBbnZtQE3kVcDf
ypDBibm6QO0ch8DVZZfBJogiQYohjL8dx6PBE2MMQVt3Bz/tSq3BFrP8QExRHr8bip3Bawb3QOCI
kD7SHabBUnqiQOoOaMCDII/BDdsfQQJHJ74FIqzBvwPZQK9wVr9hBpbBSqvRQAbIrb+PaXHBvcHM
QN30gD+fQKfBQ9unQPIlmD1nkKPBZph8QJQeZT8av6LBGRehQCESib9Cv6vBc0e3QNSRUMDBi4TB
iALBQG1o378z8oPBj8axQKun/b4DxpjB87vhQJ4Ftb/fH4zBx771QGJkTr/nTG/BOXe6QE5Cy7/N
V2HB8bE0QTznBz4rFrXB5FxXQIMTk8D5FKrB9swCQLcCX8AxvZvBOGK5QCAOocA4bqfBTfYTQRCL
AcDk+pXBhcVIQKG4NsDPl4rBW3HcQKwojcACQZbB9mUxQYyF0b/VAqPBK2oKQd2qnz9aq7PBYRTN
QD/49D88RKLBG9nHQKrapD8zrK/BKvNHQG5cdz4jI6DBTKKCQJZh2j/g5pzBKC9tQDJ8qT/znarB
aOOGQDhW3L+YBKnBluiYQOrEJL8SmLPB8K2+QJaG1L+ZcKzB5H+hQPjXYcD+9HvBG2PVQBRsdMCd
tYPBLG2jQA66l7+GlIXBvQOaQNitHr8dgpPB3CMAQadgz7+kZorByMp2QLlTicBYt6LBaE2nQC/B
kcDrNaHBaRRHQKXWasBHi5rB7roRQVQ7qL+yjJzBdTq7QF7lhsAOd5fBAc9uQHEJVcB2zpDBmU8i
QWLwir/Z7aPBXhYMQf6gDD9ESa3ByXH8QHDJHL8dkJ3BmZH2QH9Clz7XFKbBHh2jQGy0Z8BOKo/B
i44fQS7fFb4JOazB8evYQFafVr8FBpbBC9jRQCvQrr8sR3HB1yTMQI3XgT/TIqfBg4GnQKImgj0m
jqPB50x7QJUuXj9nr6LBGjGhQGQjib+A2qvB8gq4QKSgUMCQloTB0mLBQM5V37+V6IPB9IaxQMiG
BL/TzZjBZ/zhQDeSsr8SEYzB15i5QARdxb/Fa2HB7ZT2QOLQXL9a8G7Bu0w0QXMnHD4JOrXBgRBY
QH0hksDMIqrBqq25QDqJoMDChqfBVAoEQAEMXcAFwJvBJOcTQY6MAcArIZbBI+zcQDQgjcC/VpbB
QVJKQKD3NcCTlIrB3isxQWCf0L+tPaPBSBAKQZ4roz8+m7PB9j7MQG2m9D+yCqLBlynHQIqbpz+I
ha/B4RdHQPYiTj4IJ6DBJaOBQEkA1j83w5zBT7ZrQMchpz/4hKrBMC+HQOkC3r/fM6nBve+YQEqN
Ir/GqbPBUvu+QGY4078WlqzBZXmiQJWtYsALBXzBhU/WQFoMdMAI1IPBFqSjQKeFmL+2gYXBareZ
QCepKr8HmJPBxFUAQbkuyb8gSorBXL11QLeqiMAbxaLB3iBGQIc3acBtnJrB17OmQIVkkcCwPKHB
66oRQWiFrb+ZgpzBDM9tQACpU8D63JDBMpy6QEelhsATe5fBZlUiQfYkkr9N3qPBlHcMQcBXAT/G
TK3BZpj8QIrWI78skp3BwCX3QH50iD4tHabBLomiQHTgZsA0Mo/B/cwfQQwMUb6HMKzBZ/XYQOQ0
Wb95CpbBq6LRQNxTrb+aQ3HBJg3NQKRxgD9mM6fBKeqnQMA+lj2VlaPBeid9QLwjZz9yqKLBi8mg
QEgkh78D46vBcmS3QIAjUMD6mITB4RbBQDZ43r9F5oPB0rCxQChBBL/22JjBTNHhQGAps7+/DYzB
3qq7QBof1b9WG2HBOUj0QPYIOL8+Mm/BEac0QSbkmj02K7XBuQtXQF1bkcBDM6rBwDIDQD4CW8AO
1pvBWQm5QPRQoMAhiqfBCqsTQSQiBMDKEZbB62ZJQNNaNMDupYrBD0HcQLUVjcC0VZbBzxYxQWUl
2b+kJKPBzJ0KQe5hnT9CpLPBD5TNQESt8z9SJaLBmjnIQGnFpT+Ema/BqDlIQN7zgD60GaDBRCyD
QG0K2j+zu5zBsNFtQNFZrD+teqrBMHGGQDgo2r/tNqnBXKaYQEH3HL+GrrPB5ze+QKVh078BqazB
MamhQOfnYcDfFHzB5ITVQJ4AdMDwz4PBHn6jQEPTlr9ahoXB/saZQAK7Kb+DqZPB6TkAQZlLyr/8
P4rBCOB2QCW7icC8rqLB7lCnQGccksBtHKHBjMRGQFV8a8D8jprBab0RQSa8qb8ue5zBIQS7QPsa
h8DeWJfBzg5uQBtQVcDnzpDBqlQiQeRHjr/C4qPBTk8MQfR2Bz+dSq3BY5n8QF7oHb9Uhp3BfP72
QA4xlD6KEKbB3rOiQC3jZ8DWGY/BEKkfQYYZN77MO6zB7uLYQEgmVr9rBZbBbK7RQPq9rb+LYHHB
K8TMQDhCgj96KKfBQOCnQApCnT1nlqPBVl58QFUZZD+cy6LBoIChQFwAiL/d2KvB9WS3QPxiUMAg
hITBOf7AQPL/3r+C7IPBLqGxQKrx/75ozpjBMKjhQJIZtL9HGozBQOD1QKVXUL+sQG/Bq2m6QDzV
yr9dUmHBA0w0QW0bvT0LW7XB2HxYQD6iksDmHarBCNe5QBv3oMCXY6fBX8ADQIvbXcAL0JvBL9oT
QRH1AcC4BJbBNq/cQOdPjcCIKpbByEtJQOQINsCwn4rBNyExQRm91L/VLKPB62EKQYByoD+VoLPB
mwfNQII69T8YFKLBePHHQB/lpz8/ja/Bm8NHQCE+bT74RKDBkz6CQFZF2T+l5ZzB80VtQGO+qT+A
p6rBLU6HQJP827/TM6nBwH+ZQK4vIb+Nr7PBQzC/QEPm0r84hKzBr5ehQFjAYcAF6nvBj4nVQDoa
dMDAqoPBulqjQNGTl78gioXBzcSZQLIbIr9blZPBox4AQQWCzb8qXYrBznqDQH/6icCRVqPBiTJT
QMIXcMD9RJvBHmWvQNL4kMDEcqHB0eASQVveib9sg5vB4Ax3QLuXWsCWSpHBu17BQNRohsAucpfB
wjwjQdolKr86fqLB04sIQbgl7j0JTq/BfJD6QDA1W7/AWZ7B3YDwQMBywr78qajBIE+nQOrgacBn
SY/BaQYeQQAKrzouFKzBz+vXQFlxdL/YWJbBTfrQQHpAqr9DFHHBYCPCQMqXq77FF6zBLt2nQGzp
cz4IuaLBYIuzQBp23T88BqHBdsVvQHykBz7wWKXB2lW6QPPiUMBaiYTBG5/BQE4u3r/414PBZOiw
QCS0C798wpjBvvnhQJxLrr/g/IvB8OL0QJp8Rr8Mi27BM5+4QCoOxb9tXWHBtDIyQTkxLj8bAbTB
HFNrQIteksCF+arB+foPQMQWZcBkvZzB80bDQKpsnsDwqafBy8oWQX+ax7/aCJTBXXBPQEhUPsDA
J4vBYwvjQAaoi8AbA5bBB8UzQcegW7/EgqDBapsEQV5KFT+817bBD6i+QC+/nj6zKrPBee62QODB
rL9mBa7BO76gQEy8CEAhVZrBJ9zVQK516D9DMJ/BflOsQAz7EkBcWajBbB9KQPeLCj9Gq57Bw+9h
QFcdND+5qqzBLqJeQLVTbL8ElqbBd0SkQBV8ZMA+RHzBjivZQAbRccA6gIPBRUCjQLZ7nL9VjoXB
MsaYQDfOQ7+3zpPBEG4AQXGzs7/T64nBWayCQO/2icCiQKPB4qmuQAgMkcD8fqHBUHpSQJHCb8AH
HpvBG/wSQSO9ib/Xo5vBlivBQPBlhsClj5fBclV3QItSWsA2MpHBx0UjQQrYM7+czqLBQnoIQRRE
mT1Hkq/Btr76QGbKV79ZYZ7Ba3LwQMEEw75+uajBzoenQCHFacCWU4/BCQEeQSBHer06fqzBGUHY
QHwUcL/eUpbBQb/QQAqnqr/IEHHBMQPCQPKJq77pFKzBDtynQJpudz5mtKLBJ0+zQMBN3j9WGqHB
qLNvQGSy/z2WRKXBaQK7QHkmUcBOn4TB7+TBQIWG3r9E4IPB/S+xQLUlCL/QtZjBElXiQHgorb8u
+4vB0bjzQHyXOb+ZcG7BUOq4QD2mzL+kXWHBHygyQWbVDT/wwrTB1ehoQAVoksDe1qrBwzHCQFui
nsA+w6fB9C0PQBl6ZMBVfpzBRvkWQYDkxL8IF5TBAeziQG2ci8C0PJbB62BQQOr7PcAIAIvB3cwz
QVY1aL9346DBIXcEQaLtBj8cKLfBKGu+QCy9nT4JKrPB2b22QGHHrL8e+q3Be5egQHZNCUC+Z5rB
qqbVQFtD6j91Up/BdtGrQPjtEkBdcqjBTSVKQLkhCT/vlp7BR2FhQPlEMD8HnKzBdeteQCzvbr+5
cKbB/l6lQBZ+ZcDsU3zBmwnaQG6ZccACuIPB722jQDTRnb9YoYXBby2ZQAAjP79gtZPBT5oAQXlN
sr/T5onB7cjoQECG6r6d9EXBYhrUQAu62r/jIUfBxnvoQHY+0D6QyFfBHJ4UQeiS875/1prB8+K+
QGTNBcD+FVrBe0nTQIRT1DyawmrBTNIkQU5HHr47PqLBqRcKQc5/Lz0IaLDB0gj+QNAkBr+TMJ7B
qpbzQPDBgL70+ajBk/C9QHDXm7905GvB8pAfQc2L0T3ZBK3BYj3bQKaOXr/dqJbBmrasQCh3WMAm
S4/BWnHFQBIhw76kn6zBbTCmQNqsJz2ohKPBHPGkQJxPyj9lRKLB7GdxQJSH776KSabBkkanQNQh
0r+/LYDBt7LFQM3DHcBndYfBJmmzQFA0Db+nDZnBHObkQPhuzb/RZ43Bfk+MQIPVPMDvNZTBpmu4
QJCRksBCTpDBp64zQbaV+j6ANLbBptr4QDoJJr56aDfB+YHUQNzzF8AahjnBtIH4QBRYrj/r51bB
YLAYQX9SL78GnJLBdE6vQINjQ8AwA1vBHmHTQJCPLz+McHjB70o1Qbo8170zqZ/BRh4GQXH7Yz7a
sLjBrUDAQGWniD54nbPBSxa/QCamtr8j167Biq6OQMbN7D/SzJvBrynFQAyR+T9lT6DBJxqaQEVR
AkDnzanB7KtEQMiXM75i6J/BtJFcQGAn0ryT6a3BMV1yQDIxyL/ZAqfBbU6LQBZ3EMCsNnzBMauc
QMmOPr8XhoTBnULYQHEOSMDFK4LBncecQO1sN7+tjZPBRmQBQSN/xr//k4rBc+zYQDZFRr9q2UTB
8fMBQUjUib/ClUnBlGy4QFO8k7/8HlPB99kSQa26l79CmJvByzcHQRf74L8hoFzBB9DCQDFO6r9o
GGbBJxkkQcBKfr8utaLB73ANQTs1xT7qKK7BCl/9QOrnGb8BzZ3B7Aj4QG74Lz43NKfBFBjuQIFr
CMCfQmvBuWshQawNUL7586vBgVnYQNyZP7/daJbBJ/KwQLmIUcAbj4jBsWbNQKK6Wj9EWKnBwtOn
QEDObjz7tKTBPo99QKqSYD+GfqTBGYmfQHHkn7/gn6vBHgb7QDJnO8BBSX/BE9veQMm9K8AtvInB
BL6xQOpNxr6Ye5nBjT3dQEZwnL+q/4vBnGyRQNVzKsCOi4zBhiirQDp2icCP0ILB0OU2QWDCcj0y
prTB7/jQQJW9gL5aQzbBkXIOQa05Sb+clz7B4m6XQCH+bL8Of0/BjQYVQaGq478VdZTBFLkXQeth
/79RDWDBTJupQOYZCMBJ7XDBAmQzQSvuub+REaHBV3ULQZQWgD+SMLXB+nPNQBJ87D+hj6XBOgPJ
QHowdz/dB7LBO1BIQJ84kj6oN6HB+xqEQISN4T9xcJ/BQr5tQHtemT8DrazBe+CEQB9+6b8tLqjB
F1mXQGz9cb+j1LPBI4S8QOjG77/kw6vB/hgOQaZEKsDNqYHB6Fn5QOfpf8DCUnvBWVnuQJ0ITMAq
h5DBMSOaQPuvw77bFJTB4bPfQLw/Er/j9IXBbOzzQAawdb5CRE7BmubGQDfvTb5Hc03BoFQEQa55
Or+zqGDBBVUSQYVLs79dh57BzZmuQDzvKb/l717BM3zwQGlWmL/WJ3LBpHMjQcPqaL+IuaTBRYoN
QVxgfD9ZV6rBHkv9QMtPM7+HR57BS3n4QKfh+D4zVKTBwBHDQNanl79uTHHBYBEhQVe0kT6+mKrB
LpPYQK4YmL8J5pfBprWbQJUkZMDUpI/BKbfOQJfLoT8aw6PBWkqoQLknmz7L+aHBap6AQAbRjj9Q
c57BnFWdQD29+L6WTqzB0xinQFLj179Q2YHB6O+8QI+/MMCsG4nBGoKyQFfJJr+ARJnBAZfeQGYk
DcBUX5DB/AyCQGSGPsCt2JXBDISaQFwWmsBtf47BIlU2QVbcZj8VMLLBKUIDQWf41j1NyUDBqfu2
QDs3PD4sZz/B/5cVQTi9P7/LWGHBcjkUQW7iE8Do+JnBnxeMQDe7Hr9ETl7Bw0cAQUt/xr9IKYDB
H2oyQbh9ub+5+aTBktMLQRIy9D9Wwq7BMVXQQDpJ/T/aFZ3BCwzKQA7V5z90TqvBDulKQKFH3j6S
MJ3BNsWHQHun0j8F85bBQtNwQK1G7D9QtKTB+hKCQHHDk78aw6rBK/CUQHY2YT7ouLLB9Dq5QJeG
ir+ow67BNOSJQAIdCMD82HzBFICeQAtLU78v4obB97zMQEJwXsDts4PBCzibQDetZr9JKJTBn/b7
QFUbJsDByo/BbwL4QG6Om7/JokPBcIXpQAI2IcBeP0jB8OPtQC7zGr7VjlHBL40SQR7Jlb/ilZvB
4avQQM5lMMDStFrBgxDVQHMuxr5oB2TBwHkjQe5Dhr+X8KLBsOoMQU7Dpz5Qea7BH1j9QLogCb9F
np3Bk4T3QNJePT7KOKfB0ejFQFb817/ujWjBILwgQWHulL7YVKzBLOzYQFyZML9RIJbBZzeuQGLQ
T8DfSZDBdOXMQDbBXT+OUKnBBlanQIjcAz0bhKTB4Ul9QEB+aT+3NKTB+CWeQLxJm7+Rk6vBHQSr
QAxv+b9jeXzBjnjHQGxOHMCDpYfBaJOxQK0WzL6fQ5nBDPbgQKfMp7/SQozB5uW8QEa3VsC2ppnB
dvKMQF0weMD/ro3BGPo1Qbiz571dSrXBYmwFQagGhL84czXBDHHxQEV5VcCppz3Bviv5QDeTWD8p
Ek7BU7QUQazL378qXpTBQNHFQDRwcMB3SV7BiqHNQLNV2z5Tu27B7JEyQUHGxL/aYaHBjN0KQe9E
aT/fq7XBKiTNQFeS7j+Sm6XBNTPIQPycdz+c/7HBpN9HQJJpqj7n1KDB55SEQPUD5j+kMZ/BDvRs
QGzEnT9uX6zBuZ2DQCsJ5b98FajBKWOVQAJgY795sbPBCfG6QKkN7L+f9KvBuueSQLbfLcA/0HjB
p+CaQBQvgr8xm4DBupLeQAFvScAJJYTBHrqZQJ5B775e9ZPB7Kz5QM24eL8V94fB

>  <OMEGA_E>  (13) 
NAvJPhCoyT6wpcw+LAvJPsaGCz/usgs/2t5kP5idYj/oYV8/5FdTPw==

>  <OMEGA_NBR>  (13) 
     93811

$$$$
50225005
     RDKit          3D

 48 51  0  0  1  0  0  0  0  0999 V2000
    4.3559   -4.5520  -20.4887 C   0  0  0  0  0  0  0  0  0  0  0  0
   10.0866   -1.9970  -19.4569 C   0  0  0  0  0  0  0  0  0  0  0  0
   10.2672   -1.3942  -20.6982 C   0  0  0  0  0  0  0  0  0  0  0  0
    3.3600   -4.2219  -19.5695 C   0  0  0  0  0  0  0  0  0  0  0  0
    5.6991   -4.3914  -20.1486 C   0  0  0  0  0  0  0  0  0  0  0  0
    8.9086   -1.7870  -18.7376 C   0  0  0  0  0  0  0  0  0  0  0  0
    9.2659   -0.5850  -21.2275 C   0  0  0  0  0  0  0  0  0  0  0  0
    3.7071   -3.7316  -18.3105 C   0  0  0  0  0  0  0  0  0  0  0  0
    6.0461   -3.9012  -18.8895 C   0  0  0  0  0  0  0  0  0  0  0  0
    7.8917   -0.9699  -19.2527 C   0  0  0  0  0  0  0  0  0  0  0  0
    8.0750   -0.3824  -20.5186 C   0  0  0  0  0  0  0  0  0  0  0  0
    5.0503   -3.5711  -17.9704 C   0  0  0  0  0  0  0  0  0  0  0  0
    7.3604   -2.1059  -15.2217 C   0  0  0  0  0  0  0  0  0  0  0  0
    6.6316   -0.7100  -18.5280 C   0  0  0  0  0  0  0  0  0  0  0  0
    6.9986    0.5143  -21.0759 C   0  0  0  0  0  0  0  0  0  0  0  0
    5.5915    0.0577  -20.6545 C   0  0  0  0  0  0  0  0  0  0  0  0
    4.5795    1.1773  -20.9128 C   0  0  0  0  0  0  0  0  0  0  0  0
    5.1483   -1.2176  -21.3799 C   0  0  0  0  0  0  0  0  0  0  0  0
    5.4263   -3.0404  -16.6077 C   0  0  0  0  0  0  0  0  0  0  0  0
    6.7498   -2.2515  -16.6024 C   0  0  1  0  0  0  0  0  0  0  0  0
    8.5025   -1.4308  -14.9892 N   0  0  0  0  0  0  0  0  0  0  0  0
    6.8114   -2.6391  -14.1141 N   0  0  0  0  0  0  0  0  0  0  0  0
    8.6797   -1.5493  -13.6492 N   0  0  0  0  0  0  0  0  0  0  0  0
    7.6638   -2.2752  -13.1232 N   0  0  0  0  0  0  0  0  0  0  0  0
    5.5839   -0.2215  -19.1991 N   0  0  0  0  0  0  0  0  0  0  0  0
    6.5435   -0.9467  -17.2214 N   0  0  0  0  0  0  0  0  0  0  0  0
    4.0858   -4.9336  -21.4689 H   0  0  0  0  0  0  0  0  0  0  0  0
   10.8655   -2.6324  -19.0449 H   0  0  0  0  0  0  0  0  0  0  0  0
   11.1870   -1.5550  -21.2526 H   0  0  0  0  0  0  0  0  0  0  0  0
    2.3142   -4.3472  -19.8341 H   0  0  0  0  0  0  0  0  0  0  0  0
    6.4746   -4.6482  -20.8642 H   0  0  0  0  0  0  0  0  0  0  0  0
    8.8000   -2.2797  -17.7757 H   0  0  0  0  0  0  0  0  0  0  0  0
    9.4168   -0.1154  -22.1959 H   0  0  0  0  0  0  0  0  0  0  0  0
    2.9241   -3.4770  -17.6010 H   0  0  0  0  0  0  0  0  0  0  0  0
    7.0954   -3.7805  -18.6333 H   0  0  0  0  0  0  0  0  0  0  0  0
    7.1976    1.5266  -20.7001 H   0  0  0  0  0  0  0  0  0  0  0  0
    7.0622    0.5557  -22.1704 H   0  0  0  0  0  0  0  0  0  0  0  0
    3.5877    0.8484  -20.6130 H   0  0  0  0  0  0  0  0  0  0  0  0
    4.5725    1.4252  -21.9712 H   0  0  0  0  0  0  0  0  0  0  0  0
    4.8558    2.0587  -20.3383 H   0  0  0  0  0  0  0  0  0  0  0  0
    4.1519   -1.4971  -21.0482 H   0  0  0  0  0  0  0  0  0  0  0  0
    5.8426   -2.0232  -21.1562 H   0  0  0  0  0  0  0  0  0  0  0  0
    5.1351   -1.0404  -22.4528 H   0  0  0  0  0  0  0  0  0  0  0  0
    4.6071   -2.4296  -16.2055 H   0  0  0  0  0  0  0  0  0  0  0  0
    5.5046   -3.8950  -15.9207 H   0  0  0  0  0  0  0  0  0  0  0  0
    7.4694   -2.7619  -17.2557 H   0  0  0  0  0  0  0  0  0  0  0  0
    4.7367   -0.0565  -18.6621 H   0  0  0  0  0  0  0  0  0  0  0  0
    6.3196   -0.1793  -16.5841 H   0  0  0  0  0  0  0  0  0  0  0  0
  1  4  2  0
  1  5  1  0
  2  3  2  0
  2  6  1  0
  3  7  1  0
  4  8  1  0
  5  9  2  0
  6 10  2  0
  7 11  2  0
  8 12  2  0
  9 12  1  0
 10 11  1  0
 10 14  1  0
 11 15  1  0
 12 19  1  0
 13 20  1  0
 13 21  1  0
 13 22  2  0
 14 25  2  0
 14 26  1  0
 15 16  1  0
 16 17  1  0
 16 18  1  0
 16 25  1  0
 19 20  1  0
 20 26  1  0
 21 23  1  0
 22 24  1  0
 23 24  2  0
  1 27  1  0
  2 28  1  0
  3 29  1  0
  4 30  1  0
  5 31  1  0
  6 32  1  0
  7 33  1  0
  8 34  1  0
  9 35  1  0
 15 36  1  0
 15 37  1  0
 17 38  1  0
 17 39  1  0
 17 40  1  0
 18 41  1  0
 18 42  1  0
 18 43  1  0
 19 44  1  0
 19 45  1  0
 20 46  1  6
 25 47  1  0
 26 48  1  0
M  CHG  2  21  -1  25   1
M  END
>  <OMEGA_C>  (14) 
6GOLQMSpkcDj6KPBomIhQf2c/7+sp5vBm0YkQV92sr/llaXB5gpXQH8Zh8BkjpzBzl62QKSGjMBU
MKHBlYkOQWu85L+M5pXBREEUQRLDFb/d0anB50BtQM7SbsDZe5LBz3nBQBatecDJHZfBvoj8QBpK
eL93BZrBSTMBQcjKw74NJqTB2JuhQJSMZMBQw4/BWojrQMjHBsD0i3PBXjbUQKTENb9AOZTBVfTf
QH+qAz9qm6jBzu2yQIB7bD1ePKXBAouSQEWwlj9rTafB+L6kQNvZm7//CavBkqStQCaWQsCb3ITB
V/7XQCkYEMCq0YTBOgoIQcwlt7+Z02/BIvfZQEDnKMBN02HBOOAKQYBOxr8QY1rB3z31QIWcEcCe
+FHBXK+yQKDNYr62l5nBtmTRQIZbcr+FxYnBLL+CQAjgncBbwKvBEdktQe55KMD3W5jBFf4yQbMJ
x788BarBRBsUQC4ci8AvrJ7BJjDPQBG+lMDd6abB2cwMQQDnEcC2NI7BaqsWQSBa7L1EkbHBIiU7
QFyHXsDJzozBNA3jQBr0ccAZEZXBBFPmQFBowz/ImaXBSv3hQGhCDj/1XLHBXJ1lQAYuWT9956TB
q1GSQGRrtj/yxK/BZ2KbQJTBA0DMtKLBBdyEQGmhv7+7YqjBNva6QOx8AcDQP6nBeVKkQJkrhb9s
n7PBW22TQN1+G8DXpIHBvCWwQChIecAiu37BigXvQIjCMMCqC4rBLpOXQJA5Z70FTJXBSTrKQOyW
N75RrITBFiiHQH3qisAZ46LBukQfQd6f5L/ioZrBsSgiQUB5l78bkKTBQpNOQDhagMCaiJvB/CKy
QFzHhcCKKqDBrGsMQU6/yb/C4JTBWyMSQaiRv74TzKjBQslkQD9UYcAOdpHB/T29QIcubMD/F5bB
7Ez4QOBPQr+t/5jBwCr+QKCsL75DIKPBBmCdQAYOV8CGvY7BiEznQHCS8r9hgHHBjPrPQNCU/752
M5PBhLjbQLqkOT+glafB/bGuQOiDiT6UNqTBME+OQGOtsT+hR6bBJ4OgQL7cgL81BKrBwGipQJcX
NcDS1oPBhMLTQJqZAsDgy4PBUewFQa8onL8GyG3BULvVQLBoG8C6x1/BT8IIQWFRq799V1jBDQLx
QPYdBMAL7U/BinOuQABLLrzskZjB5CjNQExhPL+7v4jBtAZ9QMEgl8CRuqrBKLsrQV77GsAtVpfB
LeAwQZYMrL9y/6jBoaMLQOZchMBlpp3BVfTKQMn+jcAT5KXB764KQXBoBMDsLo3BgY0UQcB3wz16
i7DBfa0yQM8IUcD/yIvBYtHeQIx1ZMBPC5TBMhfiQG5l3j/+k6TBecHdQKQ8RD8rV7DBuCVdQCGU
hz+z4aPB2RWOQIJo0T8ov67BliaXQCJAEUACr6HBM6CAQEqkpL/xXKfBY7q2QLz8578GOqjBqBag
QPhcVL+imbLBiTGPQE4ADsANn4DB6umrQJjJa8CPr3zBt8nqQPlDI8DgBYnBXFeTQJAaHj47RpTB
d/7FQABIAT2HpoPBZNaQQHgSjsB7/aHBgJgjQbGY4b9/35rBiNElQZGFlL9K2aTBRudiQBYThMCf
dZrBlvG7QAIBiMCghp/ByvQQQVuNyb9u55TBNFYVQcRzv76p6ajBS1V6QC0LaMBnd5DBmqjHQAXn
b8BoiJXBTjoAQaDWR78P2pjBO30CQSBqRr48BqPBVEaoQEXoW8CSAI7BkD3zQLr29L8i+XDBwIXY
QChrC79B05LBNIjhQNCuLT/kTKfBTia1QEDBRj7Ap6PBZdaTQPBMpT+wjqXBjkinQJrbi78OWKnB
5Pe0QIAnOcDiL4PBRMbeQIToBMA/aYPBBr8LQZVsm7/etm3BJ97iQHgWHcCgBl/BOh8PQRSGqb9+
V1jBFqH+QP1yBMBYg0/Bri62QGBlpL3kAZjBatfWQIRTR7+gWojBMriHQG+RmsAixanBPmswQbpU
GMCrtZfByV80Qdrhpr+Oc6nBksUfQFjPiMBBYJzBmGLUQJjHj8B9Y6XBob4PQRo9BMD7LY3BCTsX
Qahowz2QsrDBqPhIQEKkWMClporBNlTpQCy6ZsACr5PBzYDnQNQU2T8WW6TBBrjiQOyoNz8dEbDB
rh9pQGxlcT9Q96LBxKeSQHyLxD/BBq7B5IOcQP6KC0DxCKHBDtmHQCQksr9tf6bB0TG+QAID8b+P
qqfBGvClQJBea79L7bHBgaiaQI8TE8A+qX/BwI64QGWVb8DMX3vBtqT1QOa/JMBrwojBlmCbQGAh
jT3IjpPBqKTPQAAeY7ybO4PBQECJQKDposDHD6bBSKIZQbR1Ib/tHZrB5E8bQQ4zqb4w+KTBNXFh
QF1QgsCpiKHB6cStQDikscDYzqDBbJ4FQd/3Jr+9J5XB6PkIQcAVNb0Y3arBzWV5QGvoYMAUwZfB
Ob+5QA7In8BDB5fBOPHlQJD5vr7s+prBEr3pQGAmS7055qXB+jehQChefsAigJLBubDkQAHE6r9u
xX3B1OG6QK6ByL4DHZbBVN/BQHjnbj7oSqzBNimfQG4ZbD9IiKXBVBaqQDyQGEBEC6PBe/RnQBCc
WT8kTKvBEjKuQDS4V8BS6ofBWGrMQAVYCsB8D4nBCsgFQdxJoL+/tn3BZWXVQNI8BsCJFGrBTpwK
QfqAkr9tnmjBPa70QKZ+07+90VzBmIiaQNBUUj4ZO5vBGkS0QLqdgL8e0YzBjdt/QDLRsMDcrK3B
lu8nQdzpWL9qgJXByuIqQQzpo76O0KjBRI4oQIKzbcBFn6XBSuDAQIIEy8AoVaTBv+oEQcgrZr/D
sozB/mgKQaB4OD6YVrPBl8ZSQLwhLsAHSpTBDDzWQAh+q8DG/ZLB7VLLQPQBYT/o/rLBrhi1QAyp
Mb/Xu6/BBauQQBbGNEDNRJ7BAWmtQJ0ePEDueKrBbALIQBqIG0DTnJ7B10E3QCFXqz+MeabBT2FW
QIChQr6riKzBxrBsQILbrD/l/7LBZpORQJpoRsCTTIPBJPS9QD7thMCYKoPBcYvjQFefF8CKdY/B
smB6QMhyCT77wpfBEuicQAJgKb+myofB

>  <OMEGA_E>  (14) 
6KIPwTB4DcHhNwnBgsPLwA==

>  <OMEGA_NBR>  (14) 
     97386

$$$$
50225007
     RDKit          3D

 49 52  0  0  1  0  0  0  0  0999 V2000
    3.7887   -4.3235  -20.3405 C   0  0  0  0  0  0  0  0  0  0  0  0
    5.1665   -4.5949  -20.2132 C   0  0  0  0  0  0  0  0  0  0  0  0
    3.0790   -3.7449  -19.2694 C   0  0  0  0  0  0  0  0  0  0  0  0
    9.1273   -1.2849  -19.5555 C   0  0  0  0  0  0  0  0  0  0  0  0
    5.8346   -4.2983  -19.0101 C   0  0  0  0  0  0  0  0  0  0  0  0
    3.7441   -3.4496  -18.0666 C   0  0  0  0  0  0  0  0  0  0  0  0
   10.1606   -1.0522  -20.4802 C   0  0  0  0  0  0  0  0  0  0  0  0
    8.7698    0.5937  -21.6333 C   0  0  0  0  0  0  0  0  0  0  0  0
    7.6683   -0.8676  -13.4903 C   0  0  0  0  0  0  0  0  0  0  0  0
    7.9063   -0.5846  -19.6784 C   0  0  0  0  0  0  0  0  0  0  0  0
    7.7213    0.3339  -20.7329 C   0  0  0  0  0  0  0  0  0  0  0  0
    5.1190   -3.7377  -17.9311 C   0  0  0  0  0  0  0  0  0  0  0  0
    9.9843   -0.1082  -21.5120 C   0  0  0  0  0  0  0  0  0  0  0  0
    6.4419   -1.4716  -15.2013 C   0  0  0  0  0  0  0  0  0  0  0  0
    6.7886   -0.8370  -18.7550 C   0  0  0  0  0  0  0  0  0  0  0  0
    6.3911    1.0481  -20.8610 C   0  0  0  0  0  0  0  0  0  0  0  0
    5.2464    0.0888  -20.4276 C   0  0  0  0  0  0  0  0  0  0  0  0
    3.9376    0.8867  -20.2886 C   0  0  0  0  0  0  0  0  0  0  0  0
    5.0453   -1.0327  -21.4775 C   0  0  0  0  0  0  0  0  0  0  0  0
    5.8259   -3.3774  -16.6503 C   0  0  0  0  0  0  0  0  0  0  0  0
    6.0079   -1.8536  -16.5762 C   0  0  2  0  0  0  0  0  0  0  0  0
    6.4586   -1.1317  -13.0602 N   0  0  0  0  0  0  0  0  0  0  0  0
    5.6906   -1.5122  -14.1318 N   0  0  0  0  0  0  0  0  0  0  0  0
    5.5595   -0.5161  -19.1018 N   0  0  0  0  0  0  0  0  0  0  0  0
    7.0515   -1.4294  -17.5292 N   0  0  0  0  0  0  0  0  0  0  0  0
    7.6831   -1.0869  -14.8238 O   0  0  0  0  0  0  0  0  0  0  0  0
   11.2686    0.1829  -22.6530 Cl  0  0  0  0  0  0  0  0  0  0  0  0
    3.2760   -4.5597  -21.2613 H   0  0  0  0  0  0  0  0  0  0  0  0
    5.7095   -5.0305  -21.0389 H   0  0  0  0  0  0  0  0  0  0  0  0
    2.0258   -3.5288  -19.3723 H   0  0  0  0  0  0  0  0  0  0  0  0
    9.2663   -1.9960  -18.7547 H   0  0  0  0  0  0  0  0  0  0  0  0
    6.8914   -4.4991  -18.9134 H   0  0  0  0  0  0  0  0  0  0  0  0
    3.2029   -3.0020  -17.2462 H   0  0  0  0  0  0  0  0  0  0  0  0
   11.0896   -1.5969  -20.3999 H   0  0  0  0  0  0  0  0  0  0  0  0
    8.6439    1.3285  -22.4147 H   0  0  0  0  0  0  0  0  0  0  0  0
    8.5013   -0.5351  -12.8886 H   0  0  0  0  0  0  0  0  0  0  0  0
    6.3886    1.9382  -20.2147 H   0  0  0  0  0  0  0  0  0  0  0  0
    6.2378    1.3537  -21.9065 H   0  0  0  0  0  0  0  0  0  0  0  0
    3.1260    0.2104  -19.9821 H   0  0  0  0  0  0  0  0  0  0  0  0
    4.0662    1.6725  -19.5298 H   0  0  0  0  0  0  0  0  0  0  0  0
    3.6851    1.3478  -21.2549 H   0  0  0  0  0  0  0  0  0  0  0  0
    4.2326   -1.6988  -21.1521 H   0  0  0  0  0  0  0  0  0  0  0  0
    4.7854   -0.5842  -22.4477 H   0  0  0  0  0  0  0  0  0  0  0  0
    5.9753   -1.6113  -21.5784 H   0  0  0  0  0  0  0  0  0  0  0  0
    5.2265   -3.7171  -15.7928 H   0  0  0  0  0  0  0  0  0  0  0  0
    6.8111   -3.8659  -16.6255 H   0  0  0  0  0  0  0  0  0  0  0  0
    5.0538   -1.3620  -16.8171 H   0  0  0  0  0  0  0  0  0  0  0  0
    4.8140   -0.6833  -18.4566 H   0  0  0  0  0  0  0  0  0  0  0  0
    8.0073   -1.5783  -17.2754 H   0  0  0  0  0  0  0  0  0  0  0  0
  1  2  2  0
  1  3  1  0
  2  5  1  0
  3  6  2  0
  4  7  2  0
  4 10  1  0
  5 12  2  0
  6 12  1  0
  7 13  1  0
  8 11  1  0
  8 13  2  0
  9 22  2  0
  9 26  1  0
 10 11  2  0
 10 15  1  0
 11 16  1  0
 12 20  1  0
 13 27  1  0
 14 21  1  0
 14 23  2  0
 14 26  1  0
 15 24  2  0
 15 25  1  0
 16 17  1  0
 17 18  1  0
 17 19  1  0
 17 24  1  0
 20 21  1  0
 21 25  1  0
 22 23  1  0
  1 28  1  0
  2 29  1  0
  3 30  1  0
  4 31  1  0
  5 32  1  0
  6 33  1  0
  7 34  1  0
  8 35  1  0
  9 36  1  0
 16 37  1  0
 16 38  1  0
 18 39  1  0
 18 40  1  0
 18 41  1  0
 19 42  1  0
 19 43  1  0
 19 44  1  0
 20 45  1  0
 20 46  1  0
 21 47  1  6
 24 48  1  0
 25 49  1  0
M  CHG  1  24   1
M  END
>  <OMEGA_C>  (15) 
lXlyQCxaisBeuaLBElSlQJoJk8CMtKHBlg1FQCWtb8DJJ5rBSAkSQZh3pL+ycZzBFLW6QGCLicCj
FJjBy59vQI3FXMB0iJDBo5EiQR+uhr9s16PB6VAMQXf5Fz8CEa3BXGL1QM4XXr8R2FfBugD9QCmm
Fb9JbZ3B2BT3QPnvqj7o3KXB+s6jQDE3b8Dyco/Bzb8fQZ2V3b2MGKzBFiTOQLhdvL+lOHPB8jvZ
QN9CVr80CpbBrIPMQE0nhj9W46bBjuKnQH3StT2sa6PBuAF8QC39Yj8fT6LBJnOhQO8uhL/i0avB
nG26QAwoWMDcM4XBAEHAQMJC7b8FnITB9qzOQNDckL+p9lDBIBm2QHqPwb8JHGLBIuexQPAfBL+L
0JjBLqbhQBL2tr/MO4zB+tv1QCQhi79FLm3BJUw0QSZUOz5LObXBSqpRQKnokcAdF6rB7LO2QD/6
oMCmT6jBCacBQPLXYcCR+prBmkIUQSJ+/7+NCZbB/IXcQHL4j8CaTpfB+/tMQBYhQMAl+InBKG8x
QXtozL/lMqPBQE0KQQUMqj9HUbPBSwUIQXv+CL/RN07BLm/MQFsV+D+ht6HBppvHQDtGrT+IQK/B
JRFIQGZsVz5A25/Bah6CQF4V1j/wPJzBCdlrQE6FrD/2CarB2HGHQOZy2b+WN6nB4CGZQM2LFb/W
lLPBCza/QBJAzr+foKzBbD+nQInlbcBPr3zB7/TZQJNrd8AFAYXBErmhQKFWrr95iYbBGwyaQL/p
Lr8gp5PBwh0AQQMGyr8QNIrBSFlxQJoMi8B4h6LBuzdDQHHzbsDhKprBW5qkQI0HlMBYRqHBjgwS
QQSvpL/t3JzBUKxsQFqwWsCKgZDBb2C5QOoCisDSmJfBmIIiQf6Chr/DSKTB+DYMQRuHGj8kYq3B
Iw7TQJZagL+QwVHBMv78QEAHFr+Fx53BHu72QFQqrT4QLabBGRGiQCxlbsChJI/BkaEfQQ6d0b1F
fqzBPc/QQCrGsr9gMXTBMWvZQHp/V79LV5bBPTvMQMAYhj92NqfBP8anQIcJyT06faPBmnB7QKsH
ZD9HiqLBlFOhQNrNh7+XkavBayy4QBESVsAm14TBatfAQDDC6r930ITBjkX3QFLxGr+/MlrBXuL1
QL5zWb/Dx2/BKFGyQAgq6r5BxZjB9K7hQAwOwr+h5IzBl5a6QMm5v78DvWHBKg40QUfuOT7Os7XB
J1dRQIUvk8Bu6anBuRoAQDmGYMBeLZvBolK2QCeYosDMvKfB1lQUQWUJAMBLe5bBxoxJQFsIPMCP
IIrBLhHbQLi0kMDYpJbBQ18xQQhozL/6saPB7TEKQSNJrD+vk7PBPlbKQJv9cb9wD0HBi1PMQErM
+T+yMqLBCPjGQPVGqj9ona/Bld1HQKiYXz6q55/BSLmBQM2e2T9xqpzBxOVqQJwHqT9KX6rBpmmH
QPrS279TwqjBPN+YQHnFJb/icbPBwyC/QK330b+zPKzBNJCjQHWxZsAnCHzBMafWQAToeMASMoTB
RPmiQKOtpr/QtIbBhS2bQD9sCr/0SJPBFsb/QG0S579gdYvBPt9wQNWhisCkjKLB3WGkQNOqk8A8
XKHBCSlDQG0zbsB/JZrBXyQSQZwQo7/CzpzBZ2W5QCq6icBZtZfBlBhtQAELWsBrg5DBYaMiQThD
hL9oMqTBbTIMQZnAGj9KZ63Bcz/TQFt+gr+TllHBegP9QF17Fb/8yp3Bz9z2QNDwqz6zNqbBI0+i
QOfPbcACN4/BQbMfQYvwub0YcqzB6fzQQGLRsr8kFnTBx2/ZQK7eV7+yX5bBDCrMQM/OhT9wO6fB
zaunQCI4wj03iqPBVoZ7QOlMZD/0caLBnfKgQF5Ihr+gu6vBT6C4QBrIVcAc7ITBOxPBQPro6b/A
y4TBMFP3QGavG78sAlrBRO31QN+KV79+n2/BFDayQMeZ9b4i4ZjB1OPhQPSlv79S2IzBqNm6QBSZ
wb/+nmHBEjY0QShGUj5clLXBl4RQQM2xksDe6anBve+1QE03osB82qfBCwAAQK3BX8AnGpvBSnUU
Qavm/b8EZpbBghjbQFJ8kMAhzpbByUpKQJ9pO8D1GorBLZIxQaYPyb/WjaPByB8KQc+sqz+6orPB
VpPKQO0feb+l4EDBD0LMQFo4+T8IMaLBz+rGQNp5qj9soK/BTuRHQIphYD4s1Z/B8AmCQB2J2D/p
f5zBPLNqQBHUqj+mOKrBuweHQCyc2r8u9qjBZF6YQMoTH788jbPB6K2+QK6j0L8HgazB4DukQMAQ
Z8BHKnzBcjbXQIpVeMBxXITBeiKjQLwipr+lqIbB3+KaQLOxF787epPBTRIAQdyQ4b/JU4vBxDOA
QMGLi8AKIaPB2pNPQBhidMBLtJrBDnysQGRmksBXzqHB80QTQRDEgb9hbpvBLCh3QKrjX8AB75DB
L1jAQF5AiMBeBJjBAIQjQQqGHL9shKLBzZ0IQbjCCz52Wq/B1KXwQERTIr8yJ1fBDET7QFKoTr94
QJ7B9t/wQGj2sL67lajBAMCnQC7absBhh4/BeSMeQYDfAD1jL6zB0l7NQCuptL91xHLBdp/YQKQ4
bb8SS5bBwGDCQDz5nb6F7qvBKUCoQB19hz6EiKLBUcSzQGbz4D+B06DBimNwQKBGFT7dAKXBD6e8
QApEVsCcFoXBrvLAQCme6L+FcoTBYxbMQKsTj78rZFDB/PK1QMvHzL+DsGHBJpyxQJQdBL/BopjB
3h3iQPs1sL9REYzBpRfyQK5mTr8CnGzBWyQyQX60Mz/IQrTBse1hQNKdk8DonarBYNQLQMyIacAz
wJvB2Sy/QKhvn8A/TajBRk0XQbYRvb865JPBVepRQLasRMC0f4rBREriQCNTjcCXAZfBIxY0QXNx
S78FjqDBCI8EQXjQFT8m8rbBDpUEQbzSOL5cX03BApy+QFe6qj7eA7PBZES3QOqlqb/40K3BeASh
QOw9CkBkHJrBaRnWQC1x7D+sBZ/BUl2sQB3EFEDhIqjBazRLQDQoDj+bSZ7BqY9hQO2mNT8oVKzB
U6NfQECpab/uKabBQeaoQKwlbcB6x3zBaZjcQOuac8DinoTBXQ2iQFwErr92iYbBdKGZQNEBPL92
opPB8V8AQdKjs7+jw4nBIh+AQOE/i8C0OKPBC32sQLXlkcCSBaLBptBPQJ4OdcB4rprBI0ETQWfS
gb9UZpvBJKrAQLAZiMAOQJjBm/x3QOxtYcBb65DBzpQjQQIbIL+ofKLBR9YIQZYxKj6ePK/BKtfy
QCP3Rb+gA1fBL077QEYTSb+dMJ7BmRXxQK06mr77d6jBzUioQATMb8CEpY/Bc1keQbBD5DzLIKzB
0eXNQPwRub8ZyXLBKJPYQMfBbL+5RpbBEKTCQLWUg74r4avBJuunQPklij79Z6LBSoOyQO+S4T9h
YaDBAf5vQJ5xCD5w/aTBdoa9QAivV8C8OYXBljnBQJJ/67+PdoTBMmbMQG6Bjb8mhlDB8kO1QIl9
w78A62HB2WKxQA4hCb94pZjBmyTiQNU2sL/2D4zB5Y/0QIb4fL83XGzBqYkyQbCnKD8pS7TBBVRh
QMH9ksDts6rBRQK/QEeCnsCOmajBye0LQE2DasDhoZvBizIXQYcDvr8x4JPBr6/iQEn3jMAeV5fB
LQNTQBBVR8COY4rBVBs0QXW+U79qi6DBqN8EQYIaIT9RybbB4DwGQRUHy77BHU3B/v6+QJNF1D4N
yrLBnM+3QLAyor8MEq7BKV6fQNp/CEDnnZnBD77UQOnQ7j+qgJ7BVfWqQEpGFkDplafBx/tJQIl0
Aj/kOJ7BT+9gQNK2Nz80NKzBYoBgQGzibL8NZabBJDqqQNyqb8AnAn3B4qrdQCBCdMAt5ITBrCCi
QAvRsb+/dobBglmZQMKdSb/Mw5PBRmIAQc3Jsb+PvonBBiOAQJz0i8A+9KLBuS6sQDLyksDAQaHB
vmVNQLeqdMD3wJrBmjoTQcn0gL+sj5vBcce+QGKQiMB9VJfB/npyQPixX8Ag15DBdMQjQUZSJb9+
nKLBwnoJQYBoRT4JaK/BdfbQQM5Abr/YYlHBeHj7QLNrQL+cap7BGt3xQDxsd776pKjBgCylQDTQ
bsCLEI/BquceQcj8GTxUSqzBUuDPQKeVq7+vzHPBk0/YQNBXbb91sJbByKvDQMJqTr7FPazBTb+n
QM83kD5L1KLBSU6wQORB5D+0uaDB1nVwQJvarD2NoqXBaxe5QIvXU8AGlYTB+o/AQJ865b8QpoTB
+ST2QLA0F7+zaVnB6Ij1QDhFWb/X+G7BQFexQCCHA78UBJnBoGbhQNXQur/mtIzBPKG4QL5Ws79s
nGHBOXYzQUx5Ez9nh7TBA7ljQNkelMCcjarBLam/QGRDoMDakafB4fgJQJLDacBuFJzBxewWQVMx
vb/hAZTBkY/gQNa1jcDECZbBgalLQGQBRMDZlYrB0zA0Qf2zXr9RnKDBWMYFQZwwKj8Y9LbBJXvH
QEqNWb/S0UDBbFTAQJHv+z4XBbPBOnO5QKyemr+Nta7B/lycQFAMCEDzAprBPkfSQCDW9j9evJ7B
K16oQNE8F0B776fBU4VIQPJl2z5z7p7BtNdgQBpeKj/o2KzB5g5kQFBme7+kIqfBtnyjQBimZMBv
63vB2drXQPn8dMCbhYPBjFiiQH42pL84nYbB6mKZQP26Pb97CJTB3AYAQXOK0L+j2orBpM5+QFAY
isA7TKPByyFNQLaqccAk8JrB7WyrQKHOkcCywaHBlzQTQZtbhL/kwpvBAVpzQG7jXsDzBZHBHJK+
QEudiMBJ0ZfB+40jQbwaJ79k2aLBIeUIQa5WQz43cK/B2VLSQNXBhL8OR1HBikf7QAKhR7+2ep7B
kxLxQP+Vh77NpqjBeI+lQAqhb8BcZI/BiWgeQaC4mDwaa6zBpcvQQEnmsr8m0nPB1KTYQJQUcb8N
m5bBj47CQBqPTb4P/qvB3hGoQA35nz6PaqLBc5KyQD3L5j9uVKDB7yFwQBYzLz5/5KTBQBK6QMvs
VsCP4ITBYn/BQPhX678/roTB9nH1QF44DL8NpFnBOHn0QH7cRL/CTG/B8MyxQCo0/74htJjBfyPi
QE/Tvr89uIzBhvG6QKx8yL8jYmHBebsyQcYFIT8SmbTB8WNhQP9tkcDv5arBzMAJQFmhZcBfJJzB
b3i+QNXDnsCWMqjBehgXQY1Swr9tSZTBjXZNQAifQ8C5porB3FDgQGtmjsDUo5bB3wo0QWrBX7/W
9qDBf/wEQU+WKz/p7bbBOqPJQP6mgr/mjUDBDPi+QEs0+T6lzbLBcWy3QEMCmr/HT67B56OfQByW
CkAtgJnB3NvUQKBI9D+Lhp7B66+qQOE/GUCee6fBjolKQBSeCT/vDZ7BolRgQBT8Qj+YDKzB69xg
QFkfY78VWabBDNWkQGEYacCDeXzBTuTYQFw/eMAqB4TB8jyjQDcwqr/5lYbBCRaaQDyNNr85nZPB
Xm0AQQyX1L9774rB/vNxQDvki8DXoKLBYXJEQKL7cMCUMJrBPSSlQAYhlMDukqHB3iwSQUgtpb++
cpzBLf5uQEjLW8AepJDBb4W6QABuicAhB5jBaa8iQWkcir/R56PB0E0MQfLIBj/IfK3Bv5ryQBbf
ML/YC1jBvzj9QPxBGL9Si53B1yT3QDBqlD5sNqbBIoCjQK7VbcAqfo/BIcwfQYKqJ77wW6zB0HrN
QHYouL+8QHPBDKDZQOgUUL+6AZbBoazMQJ6mgD+jY6fBWgGoQECspj0dbKPBScB8QMTVZT/ElKLB
M/GgQO1XjL+xRqvBBc+5QESXVsC6NYXBGRXAQPNg6r8ppoTBzADOQGHkkr+231DBZbO2QKhbzr/3
6mHBDXiyQMu05r6anJjBws3hQLCItr/gQ4zBLO3yQKbGXL/2f23B7Vc0QeCU3z2bhrXBTBlRQMx4
lMDB66nBMQABQEyMY8CIDpvBaZK2QI2mosB6F6jBW3AUQUeu/b+D6JXB/U9MQLOzPcDULorBwGvc
QCJfj8DFPZfBB5UxQfkfz79wJ6PBoDQKQf8lnj9z67PB3fMFQWJdg76Fi07BzBLNQIyy9j8AmKLB
mmbHQNj3oD8p2q/BpZ9IQEUJfT7lxZ/B6OyCQG6k3D+44ZzB/0hsQIs0pz8DfarBaOCGQA8y3r8I
T6jB2muYQEi2M7+/NbPBUYW+QEsK2L/B46vBskGmQCSxa8CxxHzBjy/ZQJBodsA/6YTBWcWhQGm0
qr9zsYbB7CGbQNAECb8OLpPBBSQAQcxRzb9BSYrBJ3/xQKx2hr6QmlDBJmLNQC6wh7/zVkzB6lD+
QMDz8LzD12XB7+UTQQDZjL9ga5zBMnu2QKB30r8IR13B+MbmQLzvFL9B0HbBU/0jQZwMQr9bw6PB
0sELQaDyUT8fcazBbPSIQB+IkMCae6DB3Lj+QJi4BL++TZ3BpOH2QL4B7D42PaXBtxzDQASTtb+o
nXLBWskfQZDaOD4i46vB7YqhQCoxX8B/OZLBdL3aQL74gr+wzpbBWBfLQOywjT/FCqbB7/SnQCCR
zj0DlqLBK7F6QLFZWj8fGaHBwbqhQDXEgL/2IavBrk2nQO4V/b+0KYLBUvW/QGWUN8DdNorBh6hQ
QLE4gcAQIZvBH19vQNw6WcBuO5LB1RK0QOLKB7/CP5jB1rHhQNYFCMAMGZDBEPGsQEJfhsBV/5rB
vjczQVQnBD9FgrXBcrEBQTfaLj7Ai0PBVELDQP6RnL93BjzB2R0NQa/mEj8hGWnB7zQXQeBc578h
GpbBVRebQAIzEcCu7VnBYt7vQFC0vL7okIPBGJozQZSHm7+JLaPBrOsIQUzNyj8gYbLBrXCHQCoR
osAe66fBhPbJQF9+/j+AyKDBk1PFQBV1tT8gXK7BiJlIQILkEj4fpZ7ByC2BQE/jzz+K5ZrBt0No
QIIRqj/dsKjBlq2IQAYP2r8xeajBrSaYQOTlC7/UwrLB9PK/QGHNxr/POqzBZLqNQE0ZJcD+BX3B
sROZQCVUkb83kobBPjXPQBmSa8D6qoXBn6CeQJjaFL9aU5LBbeP/QF73G8AkM4/B9rn4QA7bpL/b
ykPB0Y/RQNAOH7+WH0fB6IEDQcN4D8CGtFLBvXgRQWEbpr9QnpvBae+4QEydZL+niVnBsT7uQGvZ
IcBc7GTBwK4iQc8Jlr8MzqLBIx4NQQ9plz60GK7BraicQMYujsAFx57Bm+L7QGCmH79kpJ3BgF33
QM6UGT6BBafBZFnHQCyQ6r9+02jBL5AgQWMMvb5QAKzB1+CqQDrvTMBrvpDBvt3WQC6xR7+EXZbB
VaDNQBzIYj/zBanBpuymQCA0kD2hmaTBI3x+QNxNfj9PG6TBGMecQDIDkb8LA6zBxeiqQK4xCsCY
IXzBEyzFQNYAIsAQJojBSuBxQFD0eMB2g5vBvs2BQAfERsAcupLBbRawQDXf2769gpnBy83dQPn9
rr+9WYzB2T+8QL6QgMC0OpjB0Bg2Qea0R77eybTBeN8FQaWIiL89zjXBL1zGQDWGzD1GizvBE4IS
QSI/MMDJKlDB8SUTQRVc9L+hi5TBBeiaQObIwr6d91vB7t34QHNEUsCVDXDBzYQxQTaE2L/fRKHB
H5ELQfzAaj//HrXBujCgQDy4o8AIeqXBwsLOQAyX7j/OAaXBR3/JQJVQhD+drrHB73dHQLAU2z7L
/qDB/PGFQF4i7D/2yp7BbKpvQGmbrj+bLqzB8nCBQGva2L+VwqjB09KUQOTcQ788ELTBmOG4QJN5
5b9qeKzBDR2WQEt+QMC19nfBYhWXQATTo7/Izn/BgeXcQC1/UcDif4XB/ueXQFvo/74pTZTBcMP0
QEsee798tofB

>  <OMEGA_E>  (15) 
3EyePrB3qT5k5ak+SEXpPhDn6T44bfE+HPz0PoDImz6eyx0/NMIzPw==

>  <OMEGA_NBR>  (15) 
    106050

$$$$
50225009
     RDKit          3D

 52 55  0  0  1  0  0  0  0  0999 V2000
    3.7766   -4.3807  -20.2657 C   0  0  0  0  0  0  0  0  0  0  0  0
    3.0358   -3.7738  -19.2319 C   0  0  0  0  0  0  0  0  0  0  0  0
    5.1459   -4.6633  -20.0846 C   0  0  0  0  0  0  0  0  0  0  0  0
    9.1306   -1.2595  -19.5226 C   0  0  0  0  0  0  0  0  0  0  0  0
    3.6610   -3.4597  -18.0128 C   0  0  0  0  0  0  0  0  0  0  0  0
    5.7731   -4.3510  -18.8640 C   0  0  0  0  0  0  0  0  0  0  0  0
   10.1859   -1.0124  -20.4134 C   0  0  0  0  0  0  0  0  0  0  0  0
    8.8160    0.6380  -21.5882 C   0  0  0  0  0  0  0  0  0  0  0  0
    7.9066   -0.5697  -19.6774 C   0  0  0  0  0  0  0  0  0  0  0  0
    7.7422    0.3617  -20.7232 C   0  0  0  0  0  0  0  0  0  0  0  0
    5.0250   -3.7632  -17.8215 C   0  0  0  0  0  0  0  0  0  0  0  0
   10.0298   -0.0631  -21.4416 C   0  0  0  0  0  0  0  0  0  0  0  0
    6.6381   -0.9546  -13.2007 C   0  0  0  0  0  0  0  0  0  0  0  0
    6.5101   -1.3411  -15.3336 C   0  0  0  0  0  0  0  0  0  0  0  0
    6.7718   -0.8437  -18.7899 C   0  0  0  0  0  0  0  0  0  0  0  0
    6.4056    1.0648  -20.8868 C   0  0  0  0  0  0  0  0  0  0  0  0
    5.2573    0.1130  -20.4441 C   0  0  0  0  0  0  0  0  0  0  0  0
    6.2638   -0.8952  -11.7498 C   0  0  0  0  0  0  0  0  0  0  0  0
    3.9372    0.8977  -20.3475 C   0  0  0  0  0  0  0  0  0  0  0  0
    5.0804   -1.0535  -21.4504 C   0  0  0  0  0  0  0  0  0  0  0  0
    5.7014   -3.3356  -16.5462 C   0  0  0  0  0  0  0  0  0  0  0  0
    5.9771   -1.8299  -16.6263 C   0  0  2  0  0  0  0  0  0  0  0  0
    7.7890   -0.6316  -13.7390 N   0  0  0  0  0  0  0  0  0  0  0  0
    7.7103   -0.8770  -15.0828 N   0  0  0  0  0  0  0  0  0  0  0  0
    5.5612   -0.4353  -19.1008 N   0  0  0  0  0  0  0  0  0  0  0  0
    6.9973   -1.5726  -17.6442 N   0  0  0  0  0  0  0  0  0  0  0  0
    5.8233   -1.3738  -14.1835 O   0  0  0  0  0  0  0  0  0  0  0  0
   11.3380    0.2234  -22.5537 Cl  0  0  0  0  0  0  0  0  0  0  0  0
    3.2942   -4.6299  -21.1993 H   0  0  0  0  0  0  0  0  0  0  0  0
    1.9890   -3.5503  -19.3761 H   0  0  0  0  0  0  0  0  0  0  0  0
    5.7135   -5.1192  -20.8824 H   0  0  0  0  0  0  0  0  0  0  0  0
    9.2530   -1.9739  -18.7220 H   0  0  0  0  0  0  0  0  0  0  0  0
    3.0971   -2.9861  -17.2228 H   0  0  0  0  0  0  0  0  0  0  0  0
    6.8235   -4.5606  -18.7256 H   0  0  0  0  0  0  0  0  0  0  0  0
   11.1171   -1.5497  -20.3107 H   0  0  0  0  0  0  0  0  0  0  0  0
    8.7109    1.3843  -22.3616 H   0  0  0  0  0  0  0  0  0  0  0  0
    6.3902    1.9714  -20.2641 H   0  0  0  0  0  0  0  0  0  0  0  0
    6.2647    1.3422  -21.9419 H   0  0  0  0  0  0  0  0  0  0  0  0
    7.1197   -0.5279  -11.1645 H   0  0  0  0  0  0  0  0  0  0  0  0
    5.4106   -0.2132  -11.6189 H   0  0  0  0  0  0  0  0  0  0  0  0
    5.9860   -1.9009  -11.4014 H   0  0  0  0  0  0  0  0  0  0  0  0
    3.1293    0.2201  -20.0343 H   0  0  0  0  0  0  0  0  0  0  0  0
    4.0444    1.7061  -19.6093 H   0  0  0  0  0  0  0  0  0  0  0  0
    3.6940    1.3283  -21.3301 H   0  0  0  0  0  0  0  0  0  0  0  0
    4.2639   -1.7088  -21.1130 H   0  0  0  0  0  0  0  0  0  0  0  0
    4.8377   -0.6472  -22.4434 H   0  0  0  0  0  0  0  0  0  0  0  0
    6.0142   -1.6319  -21.5091 H   0  0  0  0  0  0  0  0  0  0  0  0
    5.0460   -3.5482  -15.6887 H   0  0  0  0  0  0  0  0  0  0  0  0
    6.6492   -3.8811  -16.4274 H   0  0  0  0  0  0  0  0  0  0  0  0
    5.0456   -1.3006  -16.8758 H   0  0  0  0  0  0  0  0  0  0  0  0
    4.8324   -0.4958  -18.4187 H   0  0  0  0  0  0  0  0  0  0  0  0
    7.9124   -1.9487  -17.4986 H   0  0  0  0  0  0  0  0  0  0  0  0
  1  2  2  0
  1  3  1  0
  2  5  1  0
  3  6  2  0
  4  7  2  0
  4  9  1  0
  5 11  2  0
  6 11  1  0
  7 12  1  0
  8 10  1  0
  8 12  2  0
  9 10  2  0
  9 15  1  0
 10 16  1  0
 11 21  1  0
 12 28  1  0
 13 18  1  0
 13 23  2  0
 13 27  1  0
 14 22  1  0
 14 24  2  0
 14 27  1  0
 15 25  2  0
 15 26  1  0
 16 17  1  0
 17 19  1  0
 17 20  1  0
 17 25  1  0
 21 22  1  0
 22 26  1  0
 23 24  1  0
  1 29  1  0
  2 30  1  0
  3 31  1  0
  4 32  1  0
  5 33  1  0
  6 34  1  0
  7 35  1  0
  8 36  1  0
 16 37  1  0
 16 38  1  0
 18 39  1  0
 18 40  1  0
 18 41  1  0
 19 42  1  0
 19 43  1  0
 19 44  1  0
 20 45  1  0
 20 46  1  0
 20 47  1  0
 21 48  1  0
 21 49  1  0
 22 50  1  6
 25 51  1  0
 26 52  1  0
M  CHG  1  25   1
M  END
>  <OMEGA_C>  (16) 
hrRxQEoujMA0IKLBCkpCQJ+FccD02pnBiaukQGA5lcBOraDBFBcSQc04ob9iLpzB9k1qQChrXcAm
GpDBbL24QLk7i8CM6ZbBSPkiQSCVgb+2TqPBQg4NQVJRIz+LtKzBQwP9QKzaEb9Wa53BM8D3QJkv
uT4UyaXBCM2gQO3XcMBgko7B8HkgQbw0gb1liKvB62rUQPZidL8cNlPBxlLQQI+qq7+hVnXB27LY
QBr9V7/HUZbBsPrMQAFKiD9AGKfBFzyoQA5V5z1+jaPBrHDIQK4rZb/8/jvBZPp7QEbPZT/Ax6LB
PZKiQLbYhr97mqvByHG2QKx6VcCVXoTBIkS/QD466r+3AoXBTT/5QOqyIb/80lvB7br2QOyBYL9Z
U3HBmvWxQAnm3r5rzpjBKOrfQIpKyb9pJ43B4Fi6QArar7+G72LBZmg1QTzAZD4NbrTB2dNSQFUo
lMAXmKnBUJj+P7k4Y8BLApvBptS2QLbQo8AbD6fBOgwUQZmp/L+WxpXBhTZGQHIbP8BEyInBK1ra
QHHwkcDuzZXBe98xQclbxr9BfKLB818LQQwysT+k5LLBk3zMQEVV/D/OHKLBrHjIQKTOqz8Fia/B
VdTjQNQmB7/EoTLB1COtQL9dWr4m5znBcY2/QIpR87//azbB7kVIQCRYYT4zRqDB82uBQOJg2j/U
35zB/GpsQLwGqj8NpKrBjHGIQIi72r9256jBk86aQBOxJb8ujLPBJHTAQFHh0L+NEqzB+HihQAEW
Y8DlBHvBWsbUQE9jeMBCa4PBs3WhQFF5pr+OAYfBOaOaQL7T/b6UWZPBUDL9QFxu+b8P/YvBGVlx
QJa7i8C9faLBAE6kQOd2lcAQ+aDBYfVBQKx9cMB1OprB2BMSQXT8pL8LXpzB1ym4QBA5jMAKI5fB
H6RpQCOYXcAwapDBLdEiQcQqhL9vkKPB4uAMQRKBJj+skazBNRj9QP9bFr/jYJ3Bebf3QG6QvD7t
kaXBzTugQDq+csA1zY7B9zcgQQ5Pg70jpKvBqdPVQBBagb+PWlPBBwjRQCZmtL9ccHXB0OjYQJAS
YL9UQpbBsxHNQDnWij99p6bB702oQBRIAj40P6PBmefKQK5ter/N/TvBLzJ8QMVOaT++UaLBonCi
QLVEgr+dfKvBacy1QL4UWcA8g4TBKJC/QMYu8r+VDIXB24n4QFqvDL+AiVzBPob1QJZqTL+WBHLB
0zeyQIxz5b6KmZjBig3gQMvs0b8XRI3BD8K8QO7KxL/SpmLB1+E0QcNNaj6nrrTBE7xSQJE7k8DX
AarBKXy2QKQCpMCeW6fBYIH+PykpYcDhbpvByBsUQaU6AcBTFZbB+p3ZQMGIk8BI+JXBCKxFQBXm
PsDwHIrB4K0xQevoyb/M6KLBhSILQTe5tD8sorLBHeXMQGG5/D/ieqHBdl7IQLwLsj8qBq/BmALl
QD0o/b6tEzPBex6tQJg80r5QpjnB+Y/GQOpjAMBbHDbBTH1IQPDkaT5s6J/BSp+BQNwo2j/lSJzB
dYJsQHxerj9TGqrBpkmIQBjB1r9+4KjBcJ2aQGcaF78HW7PBAkTAQDVzzL8zE6zBZ3WgQG9PZsC8
bHvBnr3TQJ9CfcAkiYPBNf6hQDxUrL/9+obBkhKbQF47A7+AGZPBlgj9QCXzAsDbSYzBcrJsQMSl
jMD8KaHB6ixEQNwNd8CGDZjBfsiiQDiPlMBsGqHBtG4SQeB6pL+8M53BcnJ0QPx7ZcCi2I7B5hy7
QCtEi8A/75fBGF8iQdxEi7+Z+6TBGK8LQcBgDD/RC67Butz9QKlIE79N753BpuX2QMc8pD5ueqbB
G6qmQCJ8dcAsyo7B5AYfQWyIK754W63BDRzwQAuXWL8eHljBvSPNQPzkur+Zc3TBbRXbQP1FTb83
NZbBr3/MQEybhj8hPKfBxfenQBpzCT5lEaPB8IwJQXpks75jzUnB8Ox9QPV8dz/5kqHBquueQKzY
gr9//6rBIE/AQBl6W8APPoXBhZrCQNbO8r/NJIXBVHPJQNQgmb9/QFLBS36zQBzYyr+gEWTBK7iz
QKqe3b6pf5jB5gLkQJ7at79hnozBfhXzQBy+gL8+b23BssAyQWjHlj2cA7fBQYpHQNe/k8DROqjB
hzsAQMBgasBGJ5jB/R+yQEzEocAYG6jBohQVQS3j/L91sZbByJ9VQMrAS8A/0IfBqTvdQOPCkMAA
6JfBji0xQbMw0r/iiqTB91IJQZSKoj+2XbTBI9jNQImc+z/sWaLBWDvGQMTsqD/bn6/BesYDQaCv
o74fLznBG2EXQXCCg78240rBYVsOQd0GKT8S0k7BtixKQJQNoz4NoJ7BfPSEQEh64j/xvpvBNhdr
QLcwtD/ZSKnB4/2EQAel07822afBw1WVQPwcG79tyLLBjgS8QEl00L8i/6vB+bywQL6CcsDQyXvB
1b3gQL9+dsCGyIXBQVqjQMCOvr/wiYfB3PmcQHu8Cb8p75LBClMBQRSGy7/XqYrB3pxqQJpOjMBq
BKHB3K2hQEyOlMDHMqHBdMtDQE76dsAdwpfBgZQSQZ9Co78AsZ3B0M+6QIHji8A0IJjBUqN1QLLM
ZsCxpI7BWgsiQVdwib9ds6XBW/4KQe30FT8mQq7BRDf+QB4eD78MEp7BWWj2QCfCtD51d6bBejin
QJRwd8Dr047B3EceQVQPEL608K3BXk3uQIgLV78GDFjB7HfNQEUKvr8jz3TBAhbcQOLSTb88M5bB
KdPLQOo7ij+f5qbBF+OnQN7lED5MuaLBIiUIQUzwr74WKEnBaA99QMbKcj95+6DBZOieQMcXgb/8
uarBDMrBQGQaXsASZoXB6gTEQCEj+L8aUYXBCCPHQL1dlr/P01LBboKyQMVDyr+46mTBb4+0QOic
3L5ZQ5jBkW7lQLduvL8yx4zBIdzyQAXMgr/wQW3BkmsxQbS7zj1W47fBLEBEQFbrksD/AqjBL1yw
QB2LocB1UKjBhe7/P4CyacC/rJfBW5IVQZzF/L+GR5fBMuTcQO+XkcAVSpjBjBpYQDqkTcAlfofB
SdAwQaQn0b/ziaXB0lYIQVbPqD+BdrTBulvNQNSB/T+/3KHBCt3EQFpbrz+MNa/B5LsBQcZsmL5E
yDjB4ecVQZuzg7+PlEnBW0oNQdseKT+oKk7BU15KQIqajz7JBp7BLGmEQAEP3z/8EpvB/t5oQF8a
sz8smqjBEGOFQJSz079ejafBMseUQJr9Fb9AcrLBJzG8QJERzb8z3avBm+GyQAhNdcAu8nvBmSbi
QFIqecCjIobBwMykQF4yxb8g2IfBZ1GeQJmQCb8yk5LB8AsCQSyi0r/v9IrBjnV+QL0yicDA96LB
8/xKQHglcMCtwprBAuCqQPrCkcBaFqHBrB0TQa2Qhb/VFZvBysRuQJPuXsBDq5DBXsa8QDlsicCo
+JbBHv0jQdihIL/ptaHBDVAKQcGTnz6RZK7B4o/7QHKVQ78CGZ7BmNvyQPTQM75/FqjBxeiiQLIC
ccABu47BY5YfQex10D3OGKvBOd3UQOllgr/igFLBBIHQQD4Nrr+awnTB1ubXQP5wd79Sn5bBDcTE
QAxfjL30vKvB2FGpQPMmyD4PJqLBbsfJQAjXhL9VKDvBmkG0QCjk7T8QTZ/BrB1zQPVilD4tA6XB
QKS2QFwXVsCRRITB+Zy/QDMu67+Ex4TBNOj3QDNmDr/cWVvBMi31QJb3RL/C8nDBA4axQL4e+77I
xJjBmD/gQJCLyb+t8YzBDM+7QL3hwL9OH2LBjpI0QagAOz+2vbLBXPNiQBLIj8CnuKrBMB4IQI8i
Y8DDOJzBuo++QPO2nsA/aKfB+2kWQTJhyb83vZPBC5xHQPnfQ8BpZ4rBjTXeQKfxj8Bmg5XB0080
QcK6Xb9RnZ/BIf8GQa4YWD+FubXBnEbCQOxbKj9GQ7LBeoW5QItBhr9kkq7BghnkQPSLF7+u5jHB
O1KsQAH66r5TgTjBFsbEQDroBMDh8DXBWqKgQC6eC0Cmd5jBPVfWQCNu9z+GL53BwpKtQMY/IECM
OqbBM1FMQAFDHj/PJ57B2ndlQDmWbj9X86vBxT1jQH3QQL90+6bB7megQIPVY8DdVHvBQr7UQIkZ
ecDj+oLBH9ahQDsMp799wIbBwSaZQFOEOr998pPBLVv+QM0u7b9lZovBVCh+QLQyisDj+aLBlduq
QFxZksDgK6HBUyVLQOZzccApxZrBtCITQVnogL/vJ5vBKBi9QFBcicCSH5fB5pZvQJDvXsATwJDB
cs0jQRoREr/Q06HBmK0JQUlpkj43qa7BW1/7QB5JRr+zNp7BvxTyQOyYY75wTajBZ2qjQAKBcMAN
3o7BOgofQWjwBD7VT6vBvzvTQI5DeL+dllLBTS7QQMxErL8VyHTBxf3XQDpQd7+ApZbB7MLDQEic
C7411KvBfQypQM38uj5fPqLB+vTGQPIRcb8sZTvBZse0QOsO6z8ds5/BuB5yQAdVjT7I3qTBlkS3
QMGiVcD+ZYTBnM6/QKb+6b960oTBpWL3QMrPEb98FlvBQX71QHY6Tr/6o3DBX4uxQCfD/L60w5jB
mpPgQCgBx78Y64zBazu6QBe5t790aWLBtK4zQayISj/EArPBIBxiQMlckcDBqqrBfmW+QEV8n8AM
f6fBlhwIQNDnZMAqLZzBca0WQbUdwr8Ov5PBq6PeQPGHj8DrupXBYcVIQGBBQ8CjforBijw0QWFw
Rb+HsZ/BcRwGQWkmSz9mE7bB/8fAQEg2ET9ljbLBZ2m4QA+YkL/gU67BCnDhQHmcBb9j8THB80Sq
QKifor5BUTnBniXAQAuG+79R6TXBxqWhQHf+C0AS3pjBRP/WQFd08z8htJ3B6weuQBy9HUAquabB
Ep9MQM2dIj/H/53BwQZkQI/6ZT/T6KvBuAthQPb2RL+JlabBeDuhQEMmZMB3j3vBEo7VQG8oeMDW
LYPBOPGhQPrqpr8g2obB+FmZQGwyOL+J2ZPB/dP+QD6e57+ESovBV3N5QGusisAu5qHBot1NQDNt
d8DRxZjBzGCpQJYfkcCvmaHBRKcTQcomgL9AX5zBUod7QOUMZ8AVU4/By2HAQH6BiMDRLJjBsUUj
QWj4Jr/a+6PB02MHQWsxGT7zEbDBu7b7QPZcQL+RmZ7BnIHvQJb+jb7CxqjBK2yqQCIndMCxBI/B
HCkdQXigiLwqlK3B2/HtQAaARL/xQFfBPxjNQBabuL+T13PBhnXaQFQlYL/OS5bBlF/AQBL6Tr5a
hqvB0myoQEu1uT6RvaHB5MoHQXxTXr6FpkjBudm0QPpK7D8G9p/BUrNvQIM9hj6XgqPB05nCQJ5j
WsCoMoXBXKfDQBaB8L9144TB1srHQIm6l79PsVHBmyGzQCHpzb9QrmPBYFyzQEG64L6hH5jBA77k
QEWwsb/UVozBVNXxQBx1ar+3jmzBxIkwQcYsDj/cerbB1VRWQA88kcBlKKnBco0JQNkfbcCBC5nB
2Om5QCWwnMBgnajBgUoYQdlmur8145TBWFVaQKpvUMAHS4jB5aXiQF7rjMA89ZfBmuwzQZf2Xr+F
eqLBBboCQdl3Gj9CjrfBhaa7QLp/6z7Pc7LBJD20QK98mr94ba3B58EBQcV5WL4oHjjByzUWQQBp
WL83k0nBkcYLQTpdTz/Rh03BP5qjQJ1UD0Au95jBTIfXQKel9T+nkZ7BWUCsQDGzG0BWFqfB4AFO
QEXJKj/OfpzBsdVdQKPYVj9TqarBRLtdQK+6Sr+OpKTBrGiyQOUxc8AxDXzBIGfjQP/Hc8ByioXB
TiikQHRsv78MWIfBkEecQBKTJ7+j25LBkbwBQfSstr9mIYrBdmWBQJCbjcB6vaLBQUOtQIBAlsAS
NqHBfBhTQPFecsCbp5rBTFgTQQ96g7+8lZvBX1TBQPiyisDLj5fBmep6QPGrW8CS/pDBV30jQcI4
Q7/HIaPByowIQeBXO71FD7DBDn/7QFoeR780Qp7BGb/wQKy1xL6Lv6jBEzepQOnvbcBqaY/BQCAe
QaAGXb4WLK3BU2joQOplwL4zi1fBwtXLQG4ZsL9F+HLBRDbZQEAcWr+SLpbBzR7CQKgJur4YAqzB
Y5unQMAddD7Fx6LBO+0BQSS2Bz8NPkrBdeSwQJNz4D8d16HBWFRvQMDP8DznBKXByga+QI1mVMC2
FYXBwAjBQFyj5L/ai4TBQuPJQCx4lL+DjVDBHLq3QESB47/7x2HBqjKyQBhP475fhJjBz4fiQNp+
qL9v/IvBVCPqQNBQ/b76AG3BGzkyQWiOaj6yJLbBvQ1kQDOulsCMI6rBNnW/QNG/pcC4c6fBTBYQ
QHOOZMAb4pvBgm4XQdSPtb+jy5PBvgLjQFnpkMDdZ5bBEJdWQOlBPMDWx4rBlv0zQXdxer/3O6HB
5XEEQTCXrz7i2rfB2zG+QJPcgD7hPLPBMTG3QETAsb85pq3BZ436QDOn4j5fUznB1NASQXeYeD7I
FEzBfYb/QGbyyD8YkE/B1+udQJ9mC0B7QJvB8iTTQBce9D/1OaDB/DioQBUtEEBWYKnB+IdJQBzS
6j7gb57BFhNeQMftBj+WkKzBcs9hQF0Jhr/OqKXBycmqQGYDbMAlqnzBi1feQFsccMDXqoTBLvWh
QPOirb8y14bBUtCaQH4nGb+BMpPBkIYAQSezqr/5lYnBs05YQBVPgcAAVaPBZYQuQBQzbcAitpnB
HB6ZQMIwhcBokKPBXlYUQQbJVr/BeZrBgYReQLM4YMCVTpDBcTqxQKNcfMB0MprBliglQZGmyr6o
G6HB3MQLQd74ZD++x6vBCi7+QKfl1r6EiJzBScX1QFn84T5dP6XBLkacQKuUaMBifJDB390gQR3O
8D5LwKnBYNP0QBQY8L/pK1XBa4POQFSW17/5Y3LBkM/ZQO5VXr+50JXBXYzIQJRhdD9g8abB65Cn
QNy3F75rAqTBS4ALQeOXFcAE2UXBX8V0QGX48T5VNaPBWT2nQMBPnr851KzB4NK1QETkWcBwTobB
Oxq/QChY879pe4TBcgXWQGbTgb+Od1HBDfK9QBB/ZL+92GPB0S+yQKygPL8PVJnB0oThQCiMt78/
zIvBidPwQJoLE8AgmWnBK7M1QSoBhD9G6bHBDYIzQKyLhsARh6rBdG3TP4W6ZsBDi5nBohmpQNaM
jcAg76rBWqgXQeSyv78k1ZPB3mE+QEfUT8Dj74jBl7TTQNxdgMCXcJrBqlk1QRlYOL8JkZ/BOYcI
QYGRyD/4V7LB3jbDQEbZ6j/q1aHBU2XEQE9anj9TYq/BNVkJQTL46r9gVTbB/0cKQWRGW8AXqEPB
JVobQRqbBcCNXkzB7TFGQP3fnr50IaHBp350QBP6nz8q+5zBYE5jQMGmaz+N8arBDd+PQDMVAcCX
varBu1eeQHcZSL97hrTBCUjHQASm179LfK3B+nujQA+kcsBy7H7BBWTUQAd3fMCI6YbBIaihQAlw
qb903YXBNzKaQA6shb/wo5TBieT/QN7qw7/VZonB4FSKQFQ1k8D8k6XB9savQORzp8Bb36HBhaps
QDCzZ8A4QZ/BO3ETQYGyMr9u2JrBp8jBQLOTm8By9JfBHxOIQPccUMAfWJXBr1AjQaXZF7/Iz6LB
5KAHQVqU0r7DhLDBohL7QBDgJb/Cs53BRWnvQG4w+b5TjqjBEnmuQElLdsA1tpHBRGgdQejk6L5G
pK3BE07wQJK+1r82EVTB/hrNQJBs2b//VnLBbM7YQE3ARr9sk5XBZFjAQFi6976YnKvB++mkQMYl
Gj5BhqLBKZ0JQXPV878H3UPB7mGrQODM1z/pA6LBX/1pQEN6Ab4ft6TBorbAQJGUX8Cxv4bBmrjB
QMMD+78cpITBGnfLQCTmib8QA1HB/021QNLHi7+pCmTBgg6xQH7I477p+5fBq23iQCmDqb/HmIvB
z+rxQOeNBMDXuGjB1hAxQdJcrr5ch7fB4Ql6QLfCm8BlQq3Buby+QFMdwMCwoabBDoYyQCqKScCu
A6LBTf0XQfQKUb9mkJLBR2beQPNMq8CEH5XBj5JwQI+LIMBzeZDBDAY0QaNnHr8PnqDB5SADQbbe
o74Z1LjB+RS8QP7uyz3V/rLBwLe1QNBmwr8496zBIb0EQWbTvb+mWzTB+ngMQdIFP8BrGULB0GMY
QR7ntL+nTEnBMKiXQHGrBkBWipvBvkrNQIlG9D+7dqDBSsyhQKelCEC4rqnB4w1DQMnsoz4sUJ7B
ldNXQDqxoT5AcqzB+fFeQB0xm79l8qTBa9WsQKQRfsAikYDBwZThQA1xeMD5O4bBa/ahQNMhxb8C
ZIbBgyWaQLwwGb8SiZLBN1gAQfOxpL9EA4nB

>  <OMEGA_E>  (16) 
6PekPph/pj6oyKg+GFivPmiu7j6QVO8+IHb0PkC59z7s+xU/TBMjPw==

>  <OMEGA_NBR>  (16) 
    115086

$$$$
50225013
     RDKit          3D

 46 48  0  0  1  0  0  0  0  0999 V2000
    3.6449   -4.3891  -20.0842 C   0  0  0  0  0  0  0  0  0  0  0  0
   10.3075   -1.1026  -20.3058 C   0  0  0  0  0  0  0  0  0  0  0  0
   10.1476   -0.1895  -21.3670 C   0  0  0  0  0  0  0  0  0  0  0  0
    5.0060   -4.7219  -19.9283 C   0  0  0  0  0  0  0  0  0  0  0  0
    2.9502   -3.7468  -19.0400 C   0  0  0  0  0  0  0  0  0  0  0  0
    9.2415   -1.3522  -19.4221 C   0  0  0  0  0  0  0  0  0  0  0  0
    8.9162    0.4665  -21.5567 C   0  0  0  0  0  0  0  0  0  0  0  0
    5.6715   -4.4220  -18.7238 C   0  0  0  0  0  0  0  0  0  0  0  0
    3.6128   -3.4490  -17.8352 C   0  0  0  0  0  0  0  0  0  0  0  0
    8.0015   -0.7002  -19.6118 C   0  0  0  0  0  0  0  0  0  0  0  0
    7.8376    0.1961  -20.6927 C   0  0  0  0  0  0  0  0  0  0  0  0
    4.9709   -3.7964  -17.6696 C   0  0  0  0  0  0  0  0  0  0  0  0
    6.8525   -0.9717  -18.7228 C   0  0  0  0  0  0  0  0  0  0  0  0
    6.5290   -1.3461  -15.1412 C   0  0  0  0  0  0  0  0  0  0  0  0
    6.5043    0.8906  -20.8851 C   0  0  0  0  0  0  0  0  0  0  0  0
    5.3551   -0.0523  -20.4372 C   0  0  0  0  0  0  0  0  0  0  0  0
    4.0383    0.7450  -20.3830 C   0  0  0  0  0  0  0  0  0  0  0  0
    5.1888   -1.2263  -21.4354 C   0  0  0  0  0  0  0  0  0  0  0  0
    5.6932   -3.3827  -16.4077 C   0  0  0  0  0  0  0  0  0  0  0  0
    6.0293   -1.8795  -16.4906 C   0  0  2  0  0  0  0  0  0  0  0  0
    5.6412   -0.5894  -19.0743 N   0  0  0  0  0  0  0  0  0  0  0  0
    7.0656   -1.6618  -17.5328 N   0  0  0  0  0  0  0  0  0  0  0  0
    7.6611   -0.7960  -15.0567 O   0  0  0  0  0  0  0  0  0  0  0  0
    5.7606   -1.4159  -14.1461 O   0  0  0  0  0  0  0  0  0  0  0  0
    3.1339   -4.6268  -21.0055 H   0  0  0  0  0  0  0  0  0  0  0  0
   11.2502   -1.6118  -20.1705 H   0  0  0  0  0  0  0  0  0  0  0  0
   10.9717    0.0076  -22.0366 H   0  0  0  0  0  0  0  0  0  0  0  0
    5.5386   -5.2071  -20.7328 H   0  0  0  0  0  0  0  0  0  0  0  0
    1.9102   -3.4834  -19.1644 H   0  0  0  0  0  0  0  0  0  0  0  0
    9.3704   -2.0408  -18.6002 H   0  0  0  0  0  0  0  0  0  0  0  0
    8.7993    1.1755  -22.3630 H   0  0  0  0  0  0  0  0  0  0  0  0
    6.7161   -4.6701  -18.6067 H   0  0  0  0  0  0  0  0  0  0  0  0
    3.0816   -2.9538  -17.0358 H   0  0  0  0  0  0  0  0  0  0  0  0
    6.4799    1.8096  -20.2811 H   0  0  0  0  0  0  0  0  0  0  0  0
    6.3749    1.1462  -21.9471 H   0  0  0  0  0  0  0  0  0  0  0  0
    3.2202    0.0816  -20.0661 H   0  0  0  0  0  0  0  0  0  0  0  0
    4.1395    1.5714  -19.6641 H   0  0  0  0  0  0  0  0  0  0  0  0
    3.8149    1.1518  -21.3803 H   0  0  0  0  0  0  0  0  0  0  0  0
    4.3709   -1.8807  -21.0996 H   0  0  0  0  0  0  0  0  0  0  0  0
    4.9535   -0.8282  -22.4335 H   0  0  0  0  0  0  0  0  0  0  0  0
    6.1243   -1.8031  -21.4819 H   0  0  0  0  0  0  0  0  0  0  0  0
    5.0486   -3.5689  -15.5361 H   0  0  0  0  0  0  0  0  0  0  0  0
    6.6222   -3.9632  -16.3075 H   0  0  0  0  0  0  0  0  0  0  0  0
    5.1161   -1.3324  -16.7677 H   0  0  0  0  0  0  0  0  0  0  0  0
    4.8957   -0.6608  -18.4118 H   0  0  0  0  0  0  0  0  0  0  0  0
    7.9780   -2.0364  -17.3683 H   0  0  0  0  0  0  0  0  0  0  0  0
  1  4  2  0
  1  5  1  0
  2  3  2  0
  2  6  1  0
  3  7  1  0
  4  8  1  0
  5  9  2  0
  6 10  2  0
  7 11  2  0
  8 12  2  0
  9 12  1  0
 10 11  1  0
 10 13  1  0
 11 15  1  0
 12 19  1  0
 13 21  2  0
 13 22  1  0
 14 20  1  0
 14 23  1  0
 14 24  2  0
 15 16  1  0
 16 17  1  0
 16 18  1  0
 16 21  1  0
 19 20  1  0
 20 22  1  0
  1 25  1  0
  2 26  1  0
  3 27  1  0
  4 28  1  0
  5 29  1  0
  6 30  1  0
  7 31  1  0
  8 32  1  0
  9 33  1  0
 15 34  1  0
 15 35  1  0
 17 36  1  0
 17 37  1  0
 17 38  1  0
 18 39  1  0
 18 40  1  0
 18 41  1  0
 19 42  1  0
 19 43  1  0
 20 44  1  6
 21 45  1  0
 22 46  1  0
M  CHG  2  21   1  23  -1
M  END
>  <OMEGA_C>  (17) 
UkZpQDdzjMBtrKDBleskQSchjb9FcqLBrVwiQboVQr6U76rBLTGgQMUZl8AQbZ/BJdA8QCDLb8Dh
UZjBVt0TQdwTrb+FYJvB4agOQXPb7j4VdKzBB321QO6AjcBVypXBfThnQKW7XMBlro7BCwYAQQU+
M7/e5JzB6836QGrSSD6liqXB6xGfQP73csBPW43B9UfbQK/DeL8yyJXBj+3QQBtNrL9PQnLBPyPQ
QHP8Yz+6FKfBxFyrQOtTVr1gf6PBEDqBQC22Pj9zEKPBrgqmQGH2nL+1e6vB1S62QNZ9WMAPQ4PB
8O/AQHGT8L/A7IPBE4W0QCzgFr8/mJjBPxniQKm11L8+Q4zBAij1QHTIS78M6HDBhla4QIs7tb9g
VmLB2pFIQH8OlMA2C6jB+gA0QeJQzr8YXaHBF4wvQfv1+TsDS7DBKTyxQHOgpsDU3KXBQoL0P/rv
XsCqUJnB/OwVQW6cAsAtzZTBvskMQeJ1lj9c57LBGerWQNxxlcCa2pTBGTlFQMIKPcBASYjBpVvP
QN6g5z/EP6LB2v7LQJy3kj++k6/BDhdOQFIIpz1Lh6DBLXeEQOwiyT8qUJ3BSid0QDxukz/fCqvB
i96LQJO78L8IzKjB7YKeQGAEVL/Fd7PB6fnDQM/M5r/82qvBS46hQBhoZMCyk3jB3ujTQMWkfcC4
dYLBF7ejQIaMqr89JIbBRqmcQLIpKb9LS5PB/0v/QBxVAsA38orBYh9rQBUOjcCVvaDBULgkQaIV
jr8OnaLBGR4iQWYnR76WFavBxM89QJj6cMB/dZjBokmhQC7dlsCpcZ/B0bQTQXs1rr+ohJvBr2sO
Qchl7T5fjazBnKRnQCd8XMAs047Bvku2QPWHjMCS0ZXBG8P/QNyXNL/2+pzBC2/6QNJMRT6KnKXB
8WqfQDhiccDkb43BvCDbQCBUeL/YzpXB++PQQOfVq7+s/HHBG8bPQMJEYz+mG6fB4Q6rQLTNbL37
iKPBvumAQKA8PT/bGqPB/calQM2Vnb83h6vBQRm2QE/jVsCsSIPBW/fAQCuK7b9224PB0ki0QEq2
GL/GopjB5zjiQFfR0L/DKozB8dv1QCblWL91RnDBCKK3QGuesL8wTGLBHcxKQLdQlcDOF6jBH84z
QXZjz7+IkKHB+EMvQQ6+OTvHdrDBNxT2P1UzYcBtgZnBla2yQMJOpsCv1aXBeMoVQcNmA8DW95TB
YoMMQehYlj9t/LLBtgNFQKe9PMCxfIjBi93XQPDFk8Bv2ZTBBAbPQH705j/9PqLBFY/LQNDmkj/7
l6/BHHVNQFptmj3Rk6DBMCGEQNxWyD9GWZ3BzpBzQA/Gkj8JFavB2qOLQCWL8b/v16jB0DaeQGwh
Vb9cgrPB3rzDQJc+579f6KvB7CihQFznYsArvnjBPcbTQLQZfMAiaYLBWs6jQIvPpr+hCYbB4Wac
QIwNLb9tWZPBvK3/QHJK/b/BvIrBCqxqQKmujcBgf6DBhMAkQQEeir/ixqLBS+ohQWlOLr4uRqvB
nmk+QEKDcsBnG5jBLhuhQDKol8DqXp/B4d8TQcqZqr9Em5vBciAOQcJL9T6Kr6zBIHNpQMl5XsCQ
i47BJbW2QAObjcD7zpXBzuH/QAZSML/ABp3Bzhv6QDI9UT4trKXBX2GgQI2Qc8BsVY3B53XbQBRh
dr8HzpXButjQQNQarb+cJ3LBgkrPQIGXZD9MF6fBVNCqQDHGZb3tbKPBn5GAQHotPD824qLBJl6l
QN+Wnb9IZavBAbC3QFGnWMAkTIPBB5XBQMRk8L8y74PBan+0QPWdF79rjZjB1cfiQCdl0b99OozB
b1q2QDglqL8b/GLBfpT2QPMibb9X9W/BunlJQDS2lcAgzqfBA+kzQV17yr/Rw6HBo/MuQXCW6zyi
t7DBUxX3P8ubYsAsBJnBZBOyQLMDp8A62KXBsyUWQTUwAcB0B5XBMgwMQUfXlz/5IbPBtqZHQHbr
PsCLH4jBN0nYQAYMlcDc9ZTBz5POQODH5z+FPqLB18HKQAAukz9+kq/ByyxNQDVGij0QSqDBDuiD
QOfYxz9sIp3BJRhyQEwkkj9N16rBNWeLQEXb8b8VpajBd3edQAylVb/MXLPBU2DDQOXX5r/J1qvB
DnmjQJqBZcCfjHjBeMLVQN/PfMDWmILBGxakQLtWrL8ZKobBmtCcQGpALL8NNpPBeigAQXdZ/b++
1orBTwV2QAKtjcD1+KDBFl8lQep6L7/MSKHBcNsgQXCYNb2wEKvBRp5GQDh0dsCjkJjBduqmQKOD
lsBGnZ/Bmo8UQYyzir8ngZrBiIkLQdRo3j3sd67BefFuQL5ZY8AUy47BpTC7QPDZjMBr2JXBqj3+
QGhMX78zr53BNoT1QMyDtr469afB/1yjQFpVdcAFY43BzDvaQDMpi7/1NJbB7iPQQL+rqb+B4HHB
C8/HQHiysb676KvByWmqQAgt4T2rs6LB88WxQGy4zj8mdKDBnd92QLDL2L2B/aXBTEq5QNslWcAf
NIPB56TBQHnu779Qz4PBXUizQF6DMb9P1JjBU63iQGCrzr+aGozB2Dz0QBUWRr8v/m/BzHO2QGHq
sb+7YWLB1QZXQEoPlcCneKjBr8I1QT8mX7+K/J7BdsctQckSqT7o9K/Ba2EDQMvaaMCkn5nBsgG5
QGeypMDiEKbB/AYYQT4+xr/t5pLB2BIIQZiwFD8YC7bB56tKQKvgRsBmW4jBzuPcQEdVk8Dg0pTB
P8zEQNdksj5tr7LBEKO+QFnurb+5fa7BmMicQPZF+D9T4pnBi2HTQPSr4z8tMJ7Bw2SqQKqPDECA
safBkIlMQOF+Xz5ydJ/Bv+xoQK4Q9z7VN63BswZsQPQblr98pqfB3qSkQJRUZ8DBmXjBjNvXQJJY
e8CwU4LBG7CjQIPBr7/HGobByteaQHOscL+nDpTB8YgAQYyo6r8kUIrBqtB1QCqYjMATIKHBTPwk
QSD6JL9kbqHBMAogQaDZBb3tR6vB366mQGYDlsBMwJ/B3KFGQFxodMAqsZjBenMUQf40ib8mmZrB
FqUKQQikRj3xvK7Bg/W6QG3njMAU8pXBMP5uQPA6YsD45I7BFdH9QPBZa7/Lzp3BB2n0QIDj6L6d
MqjBgEqjQBQWdcC+eo3Bwi/aQJL6i7+NKJbBqhDQQAw1qr8XxnHBHE/GQAoF6L4C5KvB6r+qQKRT
4j2PtaLBdyy1QG5ezj8WEqHBgh52QPAj/bwUmKXBr0e5QEdyWcCORIPBQbnBQEhT8L9cx4PBxn+z
QD68KL/spJjBjsviQFXGzr85DYzBNVzzQOtbOr+qAXDBr8q2QLtxt7/TKWLB1NtWQPp8k8DXp6jB
Cnw1QXQOSb+xH5/Bfq8sQSDJvz6HL7DBy624QAo3pMB7N6bBDoYDQHsuZsD+v5nBVTQYQXLSwb9V
8ZLB1d8GQWaB/T4ZYLbBOIncQKDxk8D05pTB2uBKQLLJRcA3cYjBJerCQE4zOD6BCbPBLSG8QIFP
vb/Fyq3B5HyhQIbVAECQhJrBwz7XQFjW3D+9DZ/BszGuQDqDCkDOeqjBzrlOQMn2vT47DJ/Basto
QDNEBz+E/KzBzrBmQI7xi7/Yz6bBhqOkQKT4Z8DZv3jBftPXQMDGe8AQbYLB5s6jQE71r7/3FYbB
NkKbQP6NWb9EppPB25wAQYLn6b+7P4rBqrdqQHlyksAhhKHBRmhsQOKkHD/PlqfBj66SQJIHmD/6
AK/B5rU+QPXCgsCnf5jBeQKiQABmmMCbGaHBsemFQFA3sTx1Lp7BEAe/QMW4lT86EK3BdiRsQB/n
cMBKHo/BRtK4QCLRjcAOwZfBBWuyQGCcHrxqOJzBCePOQLZADT9vxaPBnC+jQPSIecA50Y7BosbD
QBwGQL+W9JLB2+LLQCuZsL8Sf3LBL3T+QBPTzj4cCaLB01wDQaJ5fr+1D53BDTP7QGVXB8DLMaXB
F0UbQe9Ejb8jMJrBp+C8QJ8cW8D+LIXBGVquQMeLAMDinIHBSQPsQEShk79WI5PBJUunQK4Qir+Y
uIrBB2DyQOeJkL+b+HbBTy68QKOmi79Oh2DBz/5HQJTpmcD/v6jBF2ooQCvJHz/RI6nBTnCGQBeP
0j88NbbBcj30P5NIfcBdx5jBvMOyQMoXpcBB9afBY/xfQLXP0L75c5jBGsjUQMFu0D95r7LBqyNK
QP11WsCFI4jB0//aQM7FksCJbZfB4aoHQdPN+T5zuqnBd/AEQewVmD/AkJzB8p0AQQpHRsAXjaHB
VTHZQEs4AsDUX6fB84EHQRs/AMDSaazBeHceQWvNBcCkpZbB/PUkQVEKe7+1d6HBynQfQZ6jor4F
ZpTBJyC4QLIWhMBdCn3BLAHfQAAWWcAoUYfBgSmPQMUvCcDFW3vBZ9n4QD7WyL+dm4zB36uKQGoA
Ir8sAIvB

>  <OMEGA_E>  (17) 
8LbxPQDt8T2Q9gA+XHqTPkAumT60ckc/

>  <OMEGA_NBR>  (17) 
      5082

$$$$
50225003
     RDKit          3D

 46 48  0  0  1  0  0  0  0  0999 V2000
    3.6583   -4.3796  -20.1017 C   0  0  0  0  0  0  0  0  0  0  0  0
    5.0179   -4.7155  -19.9397 C   0  0  0  0  0  0  0  0  0  0  0  0
    2.9618   -3.7310  -19.0625 C   0  0  0  0  0  0  0  0  0  0  0  0
    9.2214   -1.3654  -19.4346 C   0  0  0  0  0  0  0  0  0  0  0  0
    5.6793   -4.4151  -18.7329 C   0  0  0  0  0  0  0  0  0  0  0  0
    3.6205   -3.4317  -17.8559 C   0  0  0  0  0  0  0  0  0  0  0  0
   10.2815   -1.1214  -20.3247 C   0  0  0  0  0  0  0  0  0  0  0  0
    8.8903    0.4575  -21.5649 C   0  0  0  0  0  0  0  0  0  0  0  0
    7.9856   -0.7039  -19.6148 C   0  0  0  0  0  0  0  0  0  0  0  0
    7.8183    0.1940  -20.6935 C   0  0  0  0  0  0  0  0  0  0  0  0
    4.9765   -3.7844  -17.6829 C   0  0  0  0  0  0  0  0  0  0  0  0
   10.1179   -0.2060  -21.3827 C   0  0  0  0  0  0  0  0  0  0  0  0
    6.8430   -0.9681  -18.7188 C   0  0  0  0  0  0  0  0  0  0  0  0
    6.5261   -1.3460  -15.1328 C   0  0  0  0  0  0  0  0  0  0  0  0
    6.4879    0.8950  -20.8765 C   0  0  0  0  0  0  0  0  0  0  0  0
    5.3401   -0.0486  -20.4289 C   0  0  0  0  0  0  0  0  0  0  0  0
    4.0232    0.7478  -20.3713 C   0  0  0  0  0  0  0  0  0  0  0  0
    5.1731   -1.2199  -21.4303 C   0  0  0  0  0  0  0  0  0  0  0  0
    5.6932   -3.3769  -16.4146 C   0  0  0  0  0  0  0  0  0  0  0  0
    6.0284   -1.8730  -16.4853 C   0  0  2  0  0  0  0  0  0  0  0  0
    5.6302   -0.5875  -19.0672 N   0  0  0  0  0  0  0  0  0  0  0  0
    7.0639   -1.6480  -17.5251 N   0  0  0  0  0  0  0  0  0  0  0  0
    7.6591   -0.7983  -15.0430 O   0  0  0  0  0  0  0  0  0  0  0  0
    5.7507   -1.4091  -14.1428 O   0  0  0  0  0  0  0  0  0  0  0  0
   11.4418    0.1096  -22.4684 Cl  0  0  0  0  0  0  0  0  0  0  0  0
    3.1497   -4.6198  -21.0237 H   0  0  0  0  0  0  0  0  0  0  0  0
    5.5526   -5.2032  -20.7413 H   0  0  0  0  0  0  0  0  0  0  0  0
    1.9235   -3.4638  -19.1922 H   0  0  0  0  0  0  0  0  0  0  0  0
    9.3510   -2.0566  -18.6149 H   0  0  0  0  0  0  0  0  0  0  0  0
    6.7225   -4.6669  -18.6107 H   0  0  0  0  0  0  0  0  0  0  0  0
    3.0879   -2.9314  -17.0606 H   0  0  0  0  0  0  0  0  0  0  0  0
   11.2223   -1.6363  -20.1974 H   0  0  0  0  0  0  0  0  0  0  0  0
    8.7718    1.1665  -22.3709 H   0  0  0  0  0  0  0  0  0  0  0  0
    6.4688    1.8103  -20.2667 H   0  0  0  0  0  0  0  0  0  0  0  0
    6.3545    1.1576  -21.9363 H   0  0  0  0  0  0  0  0  0  0  0  0
    3.2058    0.0834  -20.0544 H   0  0  0  0  0  0  0  0  0  0  0  0
    4.1251    1.5729  -19.6509 H   0  0  0  0  0  0  0  0  0  0  0  0
    3.7981    1.1565  -21.3674 H   0  0  0  0  0  0  0  0  0  0  0  0
    4.3560   -1.8758  -21.0954 H   0  0  0  0  0  0  0  0  0  0  0  0
    4.9362   -0.8191  -22.4270 H   0  0  0  0  0  0  0  0  0  0  0  0
    6.1088   -1.7961  -21.4798 H   0  0  0  0  0  0  0  0  0  0  0  0
    5.0449   -3.5694  -15.5471 H   0  0  0  0  0  0  0  0  0  0  0  0
    6.6223   -3.9570  -16.3139 H   0  0  0  0  0  0  0  0  0  0  0  0
    5.1150   -1.3251  -16.7598 H   0  0  0  0  0  0  0  0  0  0  0  0
    4.8861   -0.6615  -18.4032 H   0  0  0  0  0  0  0  0  0  0  0  0
    7.9810   -2.0091  -17.3564 H   0  0  0  0  0  0  0  0  0  0  0  0
  1  2  2  0
  1  3  1  0
  2  5  1  0
  3  6  2  0
  4  7  2  0
  4  9  1  0
  5 11  2  0
  6 11  1  0
  7 12  1  0
  8 10  1  0
  8 12  2  0
  9 10  2  0
  9 13  1  0
 10 15  1  0
 11 19  1  0
 12 25  1  0
 13 21  2  0
 13 22  1  0
 14 20  1  0
 14 23  1  0
 14 24  2  0
 15 16  1  0
 16 17  1  0
 16 18  1  0
 16 21  1  0
 19 20  1  0
 20 22  1  0
  1 26  1  0
  2 27  1  0
  3 28  1  0
  4 29  1  0
  5 30  1  0
  6 31  1  0
  7 32  1  0
  8 33  1  0
 15 34  1  0
 15 35  1  0
 17 36  1  0
 17 37  1  0
 17 38  1  0
 18 39  1  0
 18 40  1  0
 18 41  1  0
 19 42  1  0
 19 43  1  0
 20 44  1  6
 21 45  1  0
 22 46  1  0
M  CHG  2  21   1  23  -1
M  END
>  <OMEGA_C>  (18) 
DyFqQF8ljMBK0KDB25KgQP3klsCOhJ/B8o49QB/IbsAXgJjBB4sTQSPErr8EepvBNb21QNpIjcDv
3JXB4bZnQH6hW8DO2I7B94AkQbaJj78TmaLBgD4OQZA86j7ahKzB6In/QD4xNL8v65zBei/6QDOg
Rj46jKXBej+fQKQzcsCEdo3B/uIhQb33Ur7QD6vB7/naQB7Xd78AwJXBk9XQQCdIrL/zH3LBwpzP
QGweZT/7AqfBxOGqQHI6R71rbqPBLb6AQBlwPz9a+KLBz4mlQEwmnL9ZcavBtC62QIoeWMAhUYPB
8ejAQHa/77/T4YPBNiq0QNVnFr+fiZjBPgviQMDy0r9gM4zBKBf1QKZdTL8fsHDBXQW4QPxdtL/s
SGLBtBE3Qalw4D1Tv7PBxpRJQAvVk8CIMKjB3K6xQPWApsBF7qXBoDT2PwCvXcCsiZnBwJ0VQcme
A8BZ65TBeh7XQCdXlcDM4pTBs6BFQC2cO8AnfIjBco4zQRlx0b9FlKHBJ1kMQUFPlT+d97LBsQDP
QEu55z8+IqLBIljLQFIrlD+Jfa/BEyxNQFPGqj1nb6DBuwCEQEJTyT8PNZ3BXhRzQLMHlD938KrB
ImSLQAsZ8L9Mw6jBifWdQJKxUb9varPBBHvDQA7o5b+I1qvBtm+hQE9wZMDKwHjBGerTQOY/fcDp
goLBua2jQC2eqb8VFIbB0FqcQAZaKb/DOZPBc2T/QKOVAMDd2YrBtVZqQAMPjMBOtaDBf8Y9QCRM
b8B1V5jBFqegQNHylsBdb5/Bm5gTQWjhr78hfJvBX/tnQAnhXMDrq47BiNm1QMKujcAaxJXBK6Ek
QYTGj7+ljKLBuXMOQdr07D7xcKzBRKr/QIwoNr/i75zBu3r6QC9NRj5dhaXBgGifQGJgc8AuVY3B
6RUiQe43Tr6g+arBcQnbQKzoeb/6yZXBvbHQQA3Aq78JRnLBTRDQQNKJZz+J8qbBIg2rQLBt7Lw8
X6PB60qBQIc0ST/ww6LBuwalQOQ0mL9Xc6vBWn+2QEq8WMAAP4PBAOLAQDDH8L8x7IPBZEy0QKIF
Fr82i5jB0f7hQM+c1L9ZQozBcLj0QGNcR78m8HDB4i+4QJtLtr+aVWLBSVs3QfIr/T3hlrPBK9FJ
QJBfk8AMHKjBcpn2PycsXsAJWpnByLexQM5npsDY4KXBQpsVQTSQBMCy9pTB5+RFQO95PcADQ4jB
RzXXQBPblcDJzZTBVq4zQbWj0b8jhKHB0JsMQYSflj+227LBkLzPQAfG6D+HDaLBLc/LQETUlT9n
a6/BEtFNQN1IBT7vO6DBkRuFQA0QzT9J8ZzBJBR0QHWfmj/ir6rBRLCKQNMy679dxajB/GWdQHHl
Rr8oYrPBFbnCQOBm479N76vBy/ehQG72ZMCxhnjB+lvUQJd5fcD8dYLBhYujQJOvq7+IKIbB2Xqc
QIhYKr87PZPBMEP/QBLqAcAR74rBSYpqQBGPjMD0mKDBvWc+QMV6cMCDLpjB1eCgQH8ol8Dlbp/B
paQTQZjpqb9WgpvB60hpQFCvXcDmkY7BFW62QLKljcDb05XBBokkQUWiib+VpqLBXPwNQePd+D65
lazBo3//QFQ5Lr+y9JzBBc35QNSZWj5GmKXBKzKgQP2Nc8DaV43BJr0hQejLKL5YIqvBzAzbQBpp
db+myZXBcdLQQC4Irb+eL3LBygTPQKbwZj/SCqfBrIyqQJbnT71LcqPBa0eAQMIGPT975qLBY0il
QO8CnL86favBqJG3QKzXWMDaTYPBZWLBQICb8L/J7YPBiBS0QMRDGL+clJjBymziQLxY0b9EPIzB
cnS2QLsSqL/o9mLBVYP2QE95a7+VFnDBEdk2QaySJT5N17PBmYBJQCAHlMAM9KfB7nz3P7HIX8AS
HJnB1sOxQF+UpsA96aXBKtwVQa7jAMCC7pTBrYNHQP15PsCCHojBMeXXQLiJlcBB9JTB56wzQR0/
yr8NoqHBefQLQXydmD/NCrPBRy/OQLOj6D+8KqLBjaDKQKnglD8rha/BS5VMQH6Kiz3QWqDBFYWD
QLPFxz+tHJ3BuKtxQMM9kz9N2KrB/lKLQBzN8L9XzKjB+XWdQLDBUL9rcLPBUFXDQNX55L/08KvB
pmqjQBTfZcDqjHjBI6vVQJPwfMDioILBu9SjQC63rL9oIYbBa0acQOx5L7+hSJPBxfb/QNaB/b9I
4IrBzBlzQMw3jcAN8aDBH7dEQJVwdMDqhZjBR0+lQBXYlsCyoJ/BzcsUQbKTj79OiJrB0s1tQNav
YcBNyo7BAfi5QI9hjcD95JXBWrclQYG1RL+3ZKHBwi8MQd4A0T2gaK7BuOT+QFhtW799nZ3BeH/2
QLntob4T06fB66yiQLIVdcDRbo3B0mkhQQa55r0RIqvBS8raQK2Vir/dM5bBJffPQEkbqb9O+nHB
0AnJQLpqlr6K6qvBUl2qQAausT3gvaLBCrWuQBQvzD+OQ6DBEDx4QH/4WL4QQqbBNgy5QA9LWcCQ
SYPBV7DBQKIw8L9W3oPBIbqzQA9/Nr9+5pjBnvniQExVz78pHozBlUfyQIv+Kb/SdXDB6KG3QBEY
vb8YG2LBrF82QWaTyz6WV7PBE41TQHNrlMBNaqjBYawBQJC6ZcDvipnBNgC3QIJ6pcDkFabB9xkY
QQfyy78C8JLBMk1KQNFkRMAvWIjBJY3bQC6ElMB255TBzQI2QT77f7+PMZ/BOugIQQcmFj9c9LXB
Q0vGQOGH5D7WY7LBX4TAQP0Ppb8w/a7BiNCYQO267j9RuJnB7dPPQAx36D9x3Z3BAZSmQD1kC0D6
cafBXt5LQL0YZT0ixZ/BEuVoQMaewT7fbq3BmdtxQABCpL8RFqjBGJqkQDdlZ8BKsHjBiYvXQNPc
e8BEfYLBpt2jQI2Yr7+dOYbBtFubQCRner9gK5TBt6MAQceH7L/sTorBbjd4QGvgjMBWLqHBLuan
QPQBlsDCt5/B5FZIQMvjdMCT0JjBPEgUQfKwir9bfprBAM+7QO24jMDH4JXBevpvQOVQYsDc+47B
z9gkQba2I7/UOKHBUJkKQZjRZj0rlK7BGI79QJrQbb/Cwp3BUk70QAr87L4oJqjBA8CjQLT1dMAD
d43BOugfQUDZJ7wUAKvBN9/ZQFGWi7+DIpbBizTQQCvQqb+NwnHBOEDGQKIk5r5+26vB5feqQNYM
Bz5ksqLBNRW2QCy00D+QG6HBYnN2QAAtJDzPkKXBElS5QCUOWcAmN4PBDY/BQC2R77+wvoPBiF+z
QBGoI790nZjBGXfiQD09zr/oCIzBhg/0QAQUQr9F+2/B2sK2QNnls78SL2LBeTo0QVZjLj9xvbLB
hsRZQA4GlMCZuqjBwy+6QGAgpMC5JKbBo0IFQH7oZsAy85nBFvcXQQsQxb+T4ZLB2GXdQMeIk8BS
xJTBUl1LQGi7RcDslYjBQFY1QZbRR78h5p7BhugGQeoAAT/sOLbBkRPDQByyNj4BCrPBcrW7QP6X
vL+Bs63BUJWiQIDHAkB/kZrB7jPYQNlc3T8uGJ/BrVqvQJGgC0D/iKjBLXlPQOZ32T4VCJ/BdpZp
QG9QET+U+qzBhAtmQJ5Yhr9fvabB4HykQCGjZ8BAuXjB0erXQL4ce8DxTILBV5GjQJxer782AobB
cxCbQNNKUb+ZnJPBY3MAQViC6b8mP4rB

>  <OMEGA_E>  (18) 
APAJPgj6Cj7Q4BE+mH+YPhgjoj4=

>  <OMEGA_NBR>  (18) 
      9363

$$$$
50225001
     RDKit          3D

 49 51  0  0  1  0  0  0  0  0999 V2000
    3.7692   -4.3431  -20.1679 C   0  0  0  0  0  0  0  0  0  0  0  0
    3.0540   -3.6968  -19.1405 C   0  0  0  0  0  0  0  0  0  0  0  0
    5.1224   -4.6903  -19.9773 C   0  0  0  0  0  0  0  0  0  0  0  0
    9.1590   -1.4033  -19.3549 C   0  0  0  0  0  0  0  0  0  0  0  0
    3.6858   -3.4136  -17.9165 C   0  0  0  0  0  0  0  0  0  0  0  0
    5.7586   -4.4028  -18.7531 C   0  0  0  0  0  0  0  0  0  0  0  0
   10.2334   -1.2025  -20.2306 C   0  0  0  0  0  0  0  0  0  0  0  0
    8.8932    0.3806  -21.5258 C   0  0  0  0  0  0  0  0  0  0  0  0
    7.9410   -0.7229  -19.5752 C   0  0  0  0  0  0  0  0  0  0  0  0
    7.8095    0.1643  -20.6625 C   0  0  0  0  0  0  0  0  0  0  0  0
    5.0343   -3.7763  -17.7136 C   0  0  0  0  0  0  0  0  0  0  0  0
   10.0954   -0.3256  -21.3250 C   0  0  0  0  0  0  0  0  0  0  0  0
    6.7839   -0.9645  -18.7095 C   0  0  0  0  0  0  0  0  0  0  0  0
    6.5376   -1.3421  -15.1198 C   0  0  0  0  0  0  0  0  0  0  0  0
    6.5013    0.8921  -20.8689 C   0  0  0  0  0  0  0  0  0  0  0  0
    5.3325   -0.0455  -20.4689 C   0  0  0  0  0  0  0  0  0  0  0  0
   11.2651   -0.0861  -22.2406 C   0  0  0  0  0  0  0  0  0  0  0  0
    4.0285    0.7717  -20.4418 C   0  0  0  0  0  0  0  0  0  0  0  0
    5.1870   -1.1950  -21.4997 C   0  0  0  0  0  0  0  0  0  0  0  0
    5.7185   -3.3729  -16.4243 C   0  0  0  0  0  0  0  0  0  0  0  0
    6.0043   -1.8578  -16.4643 C   0  0  2  0  0  0  0  0  0  0  0  0
    5.5751   -0.6124  -19.1023 N   0  0  0  0  0  0  0  0  0  0  0  0
    7.0138   -1.6056  -17.5025 N   0  0  0  0  0  0  0  0  0  0  0  0
    7.6835   -0.8167  -15.0494 O   0  0  0  0  0  0  0  0  0  0  0  0
    5.7846   -1.4020  -14.1134 O   0  0  0  0  0  0  0  0  0  0  0  0
    3.2802   -4.5731  -21.1030 H   0  0  0  0  0  0  0  0  0  0  0  0
    2.0215   -3.4190  -19.2929 H   0  0  0  0  0  0  0  0  0  0  0  0
    5.6716   -5.1768  -20.7698 H   0  0  0  0  0  0  0  0  0  0  0  0
    9.2613   -2.0750  -18.5154 H   0  0  0  0  0  0  0  0  0  0  0  0
    3.1374   -2.9172  -17.1296 H   0  0  0  0  0  0  0  0  0  0  0  0
    6.7975   -4.6607  -18.6095 H   0  0  0  0  0  0  0  0  0  0  0  0
   11.1674   -1.7195  -20.0671 H   0  0  0  0  0  0  0  0  0  0  0  0
    8.8066    1.0847  -22.3402 H   0  0  0  0  0  0  0  0  0  0  0  0
    6.4795    1.7962  -20.2427 H   0  0  0  0  0  0  0  0  0  0  0  0
    6.4004    1.1762  -21.9268 H   0  0  0  0  0  0  0  0  0  0  0  0
   11.2295   -0.8004  -23.0763 H   0  0  0  0  0  0  0  0  0  0  0  0
   11.2189    0.9403  -22.6336 H   0  0  0  0  0  0  0  0  0  0  0  0
   12.2024   -0.2227  -21.6813 H   0  0  0  0  0  0  0  0  0  0  0  0
    3.1908    0.1173  -20.1590 H   0  0  0  0  0  0  0  0  0  0  0  0
    4.1214    1.5860  -19.7081 H   0  0  0  0  0  0  0  0  0  0  0  0
    3.8414    1.1964  -21.4391 H   0  0  0  0  0  0  0  0  0  0  0  0
    4.3552   -1.8510  -21.2032 H   0  0  0  0  0  0  0  0  0  0  0  0
    4.9834   -0.7718  -22.4944 H   0  0  0  0  0  0  0  0  0  0  0  0
    6.1194   -1.7777  -21.5329 H   0  0  0  0  0  0  0  0  0  0  0  0
    5.0637   -3.6029  -15.5709 H   0  0  0  0  0  0  0  0  0  0  0  0
    6.6644   -3.9246  -16.3198 H   0  0  0  0  0  0  0  0  0  0  0  0
    5.0735   -1.3251  -16.7092 H   0  0  0  0  0  0  0  0  0  0  0  0
    4.8042   -0.7260  -18.4755 H   0  0  0  0  0  0  0  0  0  0  0  0
    7.9448   -1.9232  -17.3227 H   0  0  0  0  0  0  0  0  0  0  0  0
  1  2  2  0
  1  3  1  0
  2  5  1  0
  3  6  2  0
  4  7  2  0
  4  9  1  0
  5 11  2  0
  6 11  1  0
  7 12  1  0
  8 10  1  0
  8 12  2  0
  9 10  2  0
  9 13  1  0
 10 15  1  0
 11 20  1  0
 12 17  1  0
 13 22  2  0
 13 23  1  0
 14 21  1  0
 14 24  1  0
 14 25  2  0
 15 16  1  0
 16 18  1  0
 16 19  1  0
 16 22  1  0
 20 21  1  0
 21 23  1  0
  1 26  1  0
  2 27  1  0
  3 28  1  0
  4 29  1  0
  5 30  1  0
  6 31  1  0
  7 32  1  0
  8 33  1  0
 15 34  1  0
 15 35  1  0
 17 36  1  0
 17 37  1  0
 17 38  1  0
 18 39  1  0
 18 40  1  0
 18 41  1  0
 19 42  1  0
 19 43  1  0
 19 44  1  0
 20 45  1  0
 20 46  1  0
 21 47  1  6
 22 48  1  0
 23 49  1  0
M  CHG  2  22   1  24  -1
M  END
>  <OMEGA_C>  (19) 
YzpxQAb7isDhV6HBQ3VDQGSYbMDUH5nBo+qjQC4XlsB50Z/BOosSQaOes7/i1prB8+NrQOp4WsD+
VI/BxEa4QOPjjMBABpbBLLwjQb7qmb882KHBjUoOQYfbwj7fNKzB9xz+QDoTOb8OmpzBjef5QPI+
KD7ATKXBqBihQGSvccBetY3Br4YhQViwpr6pmarB+BXZQEDpdr/1rJXBwDPRQB7Lq7/c6nHBVArQ
QEJfZD+F86bBm6OqQFhDOr03wKPB8D00QcBFsL3Q7LHBiemAQFCQRT/fiKPB4/ulQLv2mL9b/6vB
S/62QDjdV8DtZIPB/iLAQIfM7b/xtoPBMGeyQFbIHL+B0ZjB3HDgQNmCzb8KBYzBot/1QA4RUb93
ynDBkxu5QEl1s79J0GHBEe5RQIxWksDu0qjB42ABQG7RWsDHV5rBwn21QI6opcCPKKbBMy4UQY3M
BMCaH5TBw8pIQEKzOsByCYnBaYXZQBUklcA24JTB2a0yQasY3L9yiaDBqOcMQUzWij+nuLLBYVjP
QC3p5T8O8aHBGdDMQDGPlj8Haq/BO6wzQQfpTL9dnLjBnIAzQaC4cD+HEbXB/jxDQXwKZL5Kc63B
SjZMQDcz8D27RaHBUOKDQHsByz8sqp3B5Nh1QIQkmT9Zg6vBF16LQEXt7L82oKnBQ3ifQJKURb+C
9LPBLdLDQMaL4793Q6zBBgqiQH6VZsBFInnBJEPVQN4re8DrjoLBfFqiQCWdqb+IrIXBOLyZQK/d
Ob/czZPBmDv+QM8s9r/elIrBx+NuQMuJisCOOaHB/NSiQOCVlcB205/BfdpBQB6ja8CX8pjBU14S
QcxLtr/985rBfbG3QBEhjMB3HZbBUjprQFI5WcCoOY/BaqUjQSIinL9j5qHBZU0OQWg3uz7jSqzB
Du39QK4KPL8BtJzBns75QDkyGD6TbaXBL+WgQLAPcMBXvo3BAbYhQZ5coL7XeqrB8/TYQMqPdr/H
vJXBXj7RQChlq7++t3HBru/PQL6iXz/gI6fBKYmqQFB/f70T6KPBRhQ0QbYOAr52HrLBds2AQBRN
QT/2w6PBNgCmQDewm7/LHazB9jS3QIqeVsAleoPBVjnAQP0b6781roPBRTyyQEFQH79Z75jB6ozg
QAwIyb9R84vBoYD1QCRvSb9hhXDBmZ+5QH3Rub9ngmHBOOROQPr4kcCAp6jBGRW0QLxMpcD+MqbB
UTz/P1IHWsBuEZrB8OATQQnDBsD7SpTBPAjZQGI5lMCbEpXBlKpIQGaHOcC74IjBPHEyQaPV4L/Z
rqDBMdQMQc1jhj+377LBRSzPQP4W5D9NLqLBdcTMQGU+kz/Anq/BwNMyQSBZXL82pbjB3JEzQYDh
Yz+edbXB4EVDQTlOjL4E1q3BVfJLQKBs0j07e6HBBLeDQP2RyT878Z3BUsp1QGIPlj/RxavB6GWL
QOKn779cvKnBFoefQMkqTL9UF7TBQ97DQOUa5r9DWazB8JaiQGj/ZcCQN3nByZLVQMzEecCfxILB
b2eiQK7Ppr/DloXB8YCZQN1NPb8X8pPBqpz+QC4H7b8AYorBabByQPAGi8BCaKHBValEQNLUbMD7
MpnB2rukQEjKlcAi4p/Byj0SQT1Us79q3prBhAdtQOYZWsB2a4/BwRG5QJ5AjMB3G5bB6msjQY/d
mr9P5KHBvwEOQTL2uj4xWqzB+5P9QFDsN78eqZzBM1z5QBGZIj4ja6XBwcehQK94cMCjzo3BRTsh
QYl/rr6ssqrBv6PYQKKCcr9ZsJXBKkXRQKvbq79Mq3HB7HPPQFD8YT8DG6fBXTCqQGiteb3a56PB
3QI0QZx7z71j+rHBP0GAQLQPPz9P16PBQxemQOfzm79DG6zBtZG3QKOZVsDAe4PBWSfAQCbV6r/R
p4PBQd2xQJh/Hb+66JjB2VjgQOERx7816ovBn2C4QM6orL9f2GHB1Qf3QJxXZ7+dHHDBvXNTQGiY
ksD44KjBoW0CQJygW8B8aprBPWS2QINZpcDaNabBfdsTQV5KBMCUHZTBJbZJQMmEOsACIYnBGmLa
QB45lMDX9ZTBZ1gyQfo33b+Uj6DBMJ8MQc3Vhz8S7LLBu5nOQCfV5D+ZG6LBCEHMQPUYlT/Ykq/B
boszQf+SUb82pbjBnUIzQeZvbD/iJrXBKfdCQSoFb76yda3BkhJLQGWztD3ylKHBj9SCQAXGyD/f
B57BAtt0QCJulD993avBmJaLQJWa8L80wKnBObGfQJKRTb+uGLTBRBjEQFWF5b8ySqzB6L+iQHdg
ZsCgVXnB5BDWQD0xecAas4LBnS2iQJdDp78og4XBjxyZQEAoPL8n7pPB+n3+QJLx6b8rWYrBYCeB
QGnEi8B1I6LB57isQGjqlMCHTqDBuEdQQMadcsA1+pnBEAYTQXjKlb9UHZrB5U6/QDqli8CVS5bB
vCx1QFtOYMA6+Y/B5dQjQcAFP784taDBPiQKQQhGsr0ieK7BeGT7QFkUgb/ToZ3BffPyQNafF7+B
K6jBkhimQIrqcsDQEY7BOT8fQTi1+L0XjqrBcJ3XQOuFir/AEJbBvHTQQIigqb80cnHBHivFQJJg
Dr+OAazB35GqQGQF9j3tJKPBLBoxQek64j5MPbHB+Qq4QNH0zT96EaLBJs51QEjLdz0JL6bBywe6
QD2kV8C4i4PBpZrAQFNO678SmoPBEI+xQFUYHL9GwJjBvaXgQKjFw79/0YvBfbX0QAfhRr/J12/B
uru3QGPhtL9FnWHB9+BlQKHrksDjzqnBG92/QLkHo8Bck6bBSJwNQJpgZMAKZ5vBo1UWQZ7hzr8A
bJLBm73gQAVrksBs6JTBP8NOQAfoQ8CnuonBwzk0QdCsZb8qQp7B8tIGQcMApz4PR7bBWuTCQLpX
vjz3drPBx3m5QPcWyr8NaK3Bjlo3QU6Xrr6vkrbBuQQrQWTZoz/kDrbB3v89QSKMTD8p+qvByAGl
QAqvBUArvZvBQDXaQChD1T/+/5/BTneyQCYfCECxtKnBnHRPQN2yCj9b45/BaMprQJ4sFj9Rz63B
iP5hQMtffb+PB6fBKbOkQOVsacDa0HnBtRvZQOCxd8DfiILBLg6iQFu6rL8zjoXBX+CYQEp9Pb+D
xJPB+2//QLFf07+e3onBAr2BQBTSi8DWJqLBUjxRQAaXcsAwBZrBLUStQJIElcA9RqDB6fsSQd82
mL88Q5rBAN51QOwmYMARAZDBbbO/QJ++i8DiPpbB7bIjQRO2Qb+h4qDBB9cJQdTt5L1OnK7BOjv7
QFH0g7/cuZ3BnovyQBNfH78jRqjBMmemQCvbcsAzDo7BP/UeQbQ+Bb5TtarBLqjXQIfgir/4E5bB
bHvQQCINqb+tZ3HBFKTEQMzoEr+F/6vBfcWqQFD1AT7VH6PBUqEwQexG8j6NS7HBmyW5QB3/zT/8
I6LB/vh1QIjkvj1XEKbBUD26QB1gV8BDh4PBDr3AQDqu6r9Jl4PBcbSxQHqqGb8fuJjBFs3gQNza
wr/JzovBBKT0QPFSRL8wxm/BWcy3QIdutb/7kWHBCkZnQM/8ksBl1anBUJwOQOtYZMAiepvB633A
QAEso8CEhabBOGYWQUi+0b8bmJLBwVBPQI+VQ8AEyYnBJRbhQGWdksCA0ZTBISE0QZoNZ784ep7B
tm8GQSMylj7Ob7bBkEfCQHM9n7uTgbPBdXS4QNf6y785RK3B8Tg3QT5NlL4CtrbBDj8qQWbGpz//
BbbBf1k9QZQXVz/r96vBapWmQCysBkBQzJvBlmbbQPb+0j9fI6DBm6SzQP7/B0CAyqnBFKNQQKiP
Fz+iwp/BcRxsQPRrHT9etq3Bb9BgQKCdc7/r0qbBn+CkQPAracByy3nBe1bZQLpPd8C1f4LBvyqi
QAtXrL9LjYXBZReZQMAqOL9PspPBrJz/QMg50b+914nB/J+DQKCjjcDsLqLBRaFUQHdUd8DmAprB
nnKvQPGilcBfZaDBPdMSQUSMkr8lZJrBy255QPjIY8CVCZDBFPvBQIa/i8DkaZbBXj4jQX9EMr8p
IaHBaOUIQeK1AL5m1q7BsLD6QIUMg7/6xp3BlkjxQMMYJr8eXajBxnioQPkvdMD7K47BixAeQXjG
xL2ZAKvBRoTXQEtyiL+WBJbBupPQQCWtqr+DW3HBAhzDQH9JHr9a56vBHOupQGR38D1KFaPBu1Iv
QShxCT+Jr7HBopW4QM3hzD/IeKLBPdtzQJwlrD2kz6XBUjO8QDckWMArpoPBMEzBQMmu67/ImYPB
fH2xQBMdFL8lkZjB6h/hQPD4vr9BwYvBRrW1QHOGob+WZ2LBGrn2QBqhcr+H4G7BOuNqQDJNlcB1
06nBJJQRQOPHasCNZ5vB69PCQJxXo8D7rKbBOIwWQXEAyr/kspLBno5SQOIfSMA3yYnBG5rjQKek
kcC3D5XBEcUzQYJOT78zxp7BYzcFQYBAgT78t7bBqijAQF3Ro73birPB6OS2QNhR0r8K2qzBHUg2
QS5KX77IDrfBlG0oQdJNrT+0drbBXOI7QY0pcD9pbKzBvn6mQLmlB0CTKpzB8vbaQO0E0j9vnKDB
7q6yQODbBUAcNarB3phPQFWhGz8dip/BzihpQAazFD87jK3BYiteQErudb+wTKbBSUqnQLOea8AD
AXrBwcbbQJJTdsDXtILBeFCiQFNksL/jhoXB2EGZQGKnLL8aZpPBggIAQaSOyL81wonB

>  <OMEGA_E>  (19) 
cHIHPuA1Cj4AYg0+kMusPuDJsD6YP7s+

>  <OMEGA_NBR>  (19) 
     14673

$$$$
50225005
     RDKit          3D

 48 51  0  0  1  0  0  0  0  0999 V2000
    3.5878   -4.4356  -20.2458 C   0  0  0  0  0  0  0  0  0  0  0  0
   10.3037   -1.0647  -20.3430 C   0  0  0  0  0  0  0  0  0  0  0  0
   10.1479   -0.1538  -21.4063 C   0  0  0  0  0  0  0  0  0  0  0  0
    2.9094   -3.8338  -19.1675 C   0  0  0  0  0  0  0  0  0  0  0  0
    4.9538   -4.7658  -20.1293 C   0  0  0  0  0  0  0  0  0  0  0  0
    9.2317   -1.3178  -19.4687 C   0  0  0  0  0  0  0  0  0  0  0  0
    8.9168    0.5010  -21.6038 C   0  0  0  0  0  0  0  0  0  0  0  0
    3.5926   -3.5796  -17.9666 C   0  0  0  0  0  0  0  0  0  0  0  0
    5.6420   -4.5039  -18.9302 C   0  0  0  0  0  0  0  0  0  0  0  0
    7.9892   -0.6735  -19.6722 C   0  0  0  0  0  0  0  0  0  0  0  0
    7.8317    0.2268  -20.7499 C   0  0  0  0  0  0  0  0  0  0  0  0
    4.9553   -3.9262  -17.8425 C   0  0  0  0  0  0  0  0  0  0  0  0
    6.3986   -1.4866  -15.3632 C   0  0  0  0  0  0  0  0  0  0  0  0
    6.8288   -0.9676  -18.8094 C   0  0  0  0  0  0  0  0  0  0  0  0
    6.4959    0.9161  -20.9554 C   0  0  0  0  0  0  0  0  0  0  0  0
    5.3440   -0.0224  -20.5048 C   0  0  0  0  0  0  0  0  0  0  0  0
    4.0249    0.7706  -20.4558 C   0  0  0  0  0  0  0  0  0  0  0  0
    5.1806   -1.2109  -21.4862 C   0  0  0  0  0  0  0  0  0  0  0  0
    5.6990   -3.5295  -16.5978 C   0  0  0  0  0  0  0  0  0  0  0  0
    5.9575   -2.0189  -16.6805 C   0  0  2  0  0  0  0  0  0  0  0  0
    7.6410   -0.9080  -15.1020 N   0  0  0  0  0  0  0  0  0  0  0  0
    5.6378   -1.4841  -14.3082 N   0  0  0  0  0  0  0  0  0  0  0  0
    7.4853   -0.5743  -13.7736 N   0  0  0  0  0  0  0  0  0  0  0  0
    6.3384   -0.9103  -13.3175 N   0  0  0  0  0  0  0  0  0  0  0  0
    5.6282   -0.5419  -19.1417 N   0  0  0  0  0  0  0  0  0  0  0  0
    7.0124   -1.7441  -17.6761 N   0  0  0  0  0  0  0  0  0  0  0  0
    3.0599   -4.6446  -21.1645 H   0  0  0  0  0  0  0  0  0  0  0  0
   11.2476   -1.5694  -20.1991 H   0  0  0  0  0  0  0  0  0  0  0  0
   10.9752    0.0430  -22.0721 H   0  0  0  0  0  0  0  0  0  0  0  0
    1.8669   -3.5687  -19.2639 H   0  0  0  0  0  0  0  0  0  0  0  0
    5.4720   -5.2201  -20.9609 H   0  0  0  0  0  0  0  0  0  0  0  0
    9.3570   -2.0029  -18.6433 H   0  0  0  0  0  0  0  0  0  0  0  0
    8.8054    1.2122  -22.4089 H   0  0  0  0  0  0  0  0  0  0  0  0
    3.0751   -3.1189  -17.1381 H   0  0  0  0  0  0  0  0  0  0  0  0
    6.6913   -4.7443  -18.8434 H   0  0  0  0  0  0  0  0  0  0  0  0
    6.4670    1.8410  -20.3606 H   0  0  0  0  0  0  0  0  0  0  0  0
    6.3716    1.1612  -22.0205 H   0  0  0  0  0  0  0  0  0  0  0  0
    3.2086    0.1059  -20.1365 H   0  0  0  0  0  0  0  0  0  0  0  0
    4.1226    1.6007  -19.7407 H   0  0  0  0  0  0  0  0  0  0  0  0
    3.8012    1.1720  -21.4552 H   0  0  0  0  0  0  0  0  0  0  0  0
    4.3600   -1.8590  -21.1447 H   0  0  0  0  0  0  0  0  0  0  0  0
    4.9508   -0.8274  -22.4913 H   0  0  0  0  0  0  0  0  0  0  0  0
    6.1153   -1.7900  -21.5196 H   0  0  0  0  0  0  0  0  0  0  0  0
    5.0936   -3.7595  -15.7086 H   0  0  0  0  0  0  0  0  0  0  0  0
    6.6542   -4.0721  -16.5414 H   0  0  0  0  0  0  0  0  0  0  0  0
    5.0267   -1.5171  -16.9834 H   0  0  0  0  0  0  0  0  0  0  0  0
    4.8934   -0.5685  -18.4640 H   0  0  0  0  0  0  0  0  0  0  0  0
    7.9164   -2.1434  -17.5231 H   0  0  0  0  0  0  0  0  0  0  0  0
  1  4  2  0
  1  5  1  0
  2  3  2  0
  2  6  1  0
  3  7  1  0
  4  8  1  0
  5  9  2  0
  6 10  2  0
  7 11  2  0
  8 12  2  0
  9 12  1  0
 10 11  1  0
 10 14  1  0
 11 15  1  0
 12 19  1  0
 13 20  1  0
 13 21  1  0
 13 22  2  0
 14 25  2  0
 14 26  1  0
 15 16  1  0
 16 17  1  0
 16 18  1  0
 16 25  1  0
 19 20  1  0
 20 26  1  0
 21 23  1  0
 22 24  1  0
 23 24  2  0
  1 27  1  0
  2 28  1  0
  3 29  1  0
  4 30  1  0
  5 31  1  0
  6 32  1  0
  7 33  1  0
  8 34  1  0
  9 35  1  0
 15 36  1  0
 15 37  1  0
 17 38  1  0
 17 39  1  0
 17 40  1  0
 18 41  1  0
 18 42  1  0
 18 43  1  0
 19 44  1  0
 19 45  1  0
 20 46  1  6
 25 47  1  0
 26 48  1  0
M  CHG  2  21  -1  25   1
M  END
>  <OMEGA_C>  (20) 
tp1lQBDwjcBa96HB1NskQW1JiL90vqLBvl0iQbaBHb4YQKvBRzM6QExddcAfV5nBgYWeQMGBmMDR
CKHBDbUTQZStqL/iv5vBPasOQSdCAD+d1KzB8u1lQJoYZcCdu4/BS4u0QD4gkMAmcZfBv6f/QDls
LL+qYJ3B6Zz6QKRAaD65/6XBo5GeQFBGe8BqvY7BXcHMQHpHvr+xz3XBm4XaQJG0d7+eeZbBDN7P
QPuHaj+kpKfBWwKrQDyft7zECaTBJ8yAQK9DRT9ipaPBccelQP//mr/Q46vBBF62QAnkYcBjyITB
86O+QCE2AcCocYXBzoL0QEFzaL/qoXHB4mi0QK71vb877mTBmofvQGADE7/GYFzBLtTKQOEGab+Q
FFXBWhq0QNO3Cr81IpnBS2XgQNI+37+UaI3BV9VDQE6glMDuUKnBNfYzQe/hyL/Ll6HBSZovQR4K
MD2ik7DBC/buP+1kZMCLHJrB4hqvQLAKp8Djr6fBSbYVQd0vAMBxJZXB5+IMQe4pmz9wRbPBGs9E
QKGcR8DsGonBXR/WQEzRl8BKv5bBr/HOQEGm6z+C4qLB4OPLQNyglD8LKrDByllNQC742D2bF6HB
jeyDQP7izD/c7J3B10ZzQNEClj8vpKvB4ISLQMLy7b9pKKnB+WyeQC7RU78i7rPBWLDDQDYd5b8d
KKzBLv+iQNuacMCCVnvBMu/UQKhOgsDjVITBm9qgQOEwwr/73YfBvJacQAWLEb8xtpPBxlL9QPAs
CcBYL4zBnslmQKUgjsCUtKHB1twkQWuHiL+GD6PB9kwiQRJ4Fr5egKvB2XE7QPSDdsCDBZnBICOf
QOSkmMAl06DB4MUTQXSvqb9LC5zBEpYOQW1TAj8JAa3BdmNnQEaQZsBibI/BJ0i1QOlikMA+PpfB
F83/QIE4Lb/Kkp3BnJD6QC9baz68JabBrWOfQNYofMCugI7BgoDNQAWvu78MC3bBHPDaQN2Ud7/b
lJbBMM3PQCxtbD8Cs6fBN+uqQOA5pLv+7aPBF+qAQBAVTD9NXaPBD+CkQAwzmb8stqvBKmm3QDKH
YcB1o4TBm3i/QJrhAMDogoXB6PayQCCDuL9qNGTBcPnyQNR4dL8H5XHBljDOQP4AY79xTFXB7dby
QC7JGb/tLl3BzI60QBrhBb+vEJnBBfvgQONh4L8MlI3BfuZEQL2PlMDeD6nBCvgzQb5gyb9T+qHB
ZX8vQZhjZD2M1rDBJzTxPyfkZcADvpnBw6WvQMIKp8DhgafBXNEVQf02AcC1f5XBDL8MQSvTnD/n
Z7PBokpGQBTEScAxv4jBCuLWQN4HmMDdlZbBvEHPQD8r7T9H/qLBe3PLQCqolD/TOLDBmaVNQAHh
DT67saDBQp2EQGdK0D8rqp3B75lyQOB/mT/bVKvBVJ2KQHQH67/o2ajBnx+dQMj7UL/WvLPBOpvC
QPNa5L9dEqzBi0SkQGaAb8Aj7XrBrgzWQIz+gcAALYTBSo+hQHa5wr/u9YfBV3WdQCrfCL+Wh5PB
hcD9QFHICsD1eYzBHVlnQOLBjcCLyaHBAAglQe+ihL/Ii6LBg5ciQazJ/r3eDKvBglCfQKxdmMAL
s6DBx8o6QN2MdcDGNpnBGsITQeydpr+uqJvBR9QOQSLhBD9Su6zBjry0QO4dkMD7BJfBhmFlQH1b
ZcCdho/BT6f/QGDJKr88YZ3BN7f6QE7mbz5G/6XBvkOeQKc/e8DZZY7BqnTNQD1Pur8PD3bBsGHa
QDD+d78jjZbByufPQCgbaz/ZtqfB/AKrQHCgmbxnGaTBdc2AQE5MRj9NtaPBT8elQLXbmr+P7KvB
abK1QCw/YMANeITBP4W+QKLt/79JdIXBZ8OzQKt2tr9C62PBlFLzQOTwdb9CTXLBtuPPQHYxYr9T
TlXBtUj0QPBBHL9hl13BNgu0QAgnCb+1MZnBQ/3fQDeP4b8wlI3B/IhGQKk0lMADOKnBci80QXEU
xL+rUKHB+eovQSGqpz0XTLDBlEuwQLXTpsCaTKfBWCDwP4bwZMCRFprBwLQVQRCX/r/WEJXBqhQN
QTdsnT95LbPBbz7WQFHpl8C0MZbBSm9DQA0qSMCF8YjBbtjOQKJq7D8yAaPBOQvMQLsAlD9oQLDB
OlxNQAMj4j22JaHBmvGDQFd6zT9K/p3BSERzQBltlj+ctKvB336LQHCb7b+kLqnBQHWeQKA5VL91
+bPBCq3DQKwR5b8LLKzBxuehQBfsbMCIu3rBNQvUQBLCgcA5zYPBD9GgQIPNvr/y2IfBcZGcQAQm
Dr+IwpPBnW/8QNPhDMCbiYzBBp9mQFJajcAU8aHBTMckQdcahr8pEKPBHhQiQb6bAr60favBGQGf
QCYjmMBHHKHBEbI7QKxAdcC1NJnBZr8TQZBkqL+wB5zB0EkOQWBQBT/29azBQVG1QMFCkMBoiJfB
u/VnQO0mZsBQm4/Bwp//QB4+LL/fhJ3BwCD6QBJscD6GEqbBf6afQHo7fMAOvY7BFdTMQPVtvr9K
4HXBmdXaQIBFeb9AiJbBaDnPQBjiaz/gjqfBn5+qQHAd4Lza9KPBsU6AQMIhQj+/V6PBET2lQGXn
mb+e7KvBLeK3QM3CYsBG2ITBgni/QIzUAcCQfoXBIDL1QGo1er/z/XDB/BizQM8ytr/MjWXBfTXv
QMxnIb8/2VvB903JQPJCY7/RTFXBcS60QNZdEL8jI5nBQjvhQAoz3r+waY3Ben9EQP13k8BYTKnB
F/IzQSsixr+tAKLBEzovQam0pj2h17DBBVqvQINzpsBI1KfB4t7xP5UxZMDp4pnBNOMVQZCvAMA9
gZXBo1QMQVMznj9JXLPBauTWQBoUmMCQ65bBdihHQKujScBw44jBcFrOQKhs6z91tqLBT+jKQGDO
lj/1C7DBVtNMQGUDrj1oyqDBIZWDQDcByj9yiJ3BDGdxQA40lj9eRKvBoyyLQCrm7b8yM6nBpIOd
QL1MTr/85rPBTTbDQCtx4795VKzB7AelQO07csDGVnvBu7DWQKdcgsAdh4TBRH6hQGSBxb8m+4fB
YrqcQAN0Hb/JtZPBzXT+QBoIB8DQHozBfyh2QHbDj8Ddm6LBHD4lQYLhI79ynqHBeMEgQQCA3rmm
aavBLQCnQOOimMALSaHB3XpGQFJlfMBtHJrBSmQUQa8gh7+j75rBhXYLQXBmBj6e767Bwyy7QLnv
j8BndJfBr41uQEhYa8BpRpDBvfz9QGQ3Xb8kQp7Bk2D1QFLUtr4Di6jBNCyjQA6LfcCm6I7BkC7M
QCQRu78beXXBerrZQOkDjL/x85bBuKTHQMZ/u75Zh6zBAUeqQIAr8z0WZqPB/s+xQHVe0D8GZaHB
tVx2QAhE2L1bhqbBq/+4QCYSYsBCu4TBYmy/QEq9AMAhU4XBV8PzQCbPY7/0r3DBdaayQHiauL+n
CWXBI53tQGW9D7/nelvBHUTIQCL5YL+hz1TBIyazQIxXKL9mcZnBLTzhQCpD2r+GMI3BF1ZXQAl0
lsDGKKrB0KA1Qd/AT78IPp/B4a0tQaJ8xz6cObDB5Cu5QPQcpsAj0afBZUQDQImYbsBaJ5vBYskX
QZNSwr+lUJPBDQkIQTDZGj9mgrbB9+TcQJRflsDJdJbByyNKQPdKUMCNwYnBRpLEQBrynD7WcrPB
V5K+QO6Hsb/X5a7BgNicQBFd/D/+4ZrBJG/TQN6K5T9wJp/Bn4WqQB9CDEB7uqjBzJBMQLlmdj79
AaDBduNnQI4w6z4G263Bo05rQBuxlr/G8qfBb+mkQGRVcsD0l3vBlyjYQAYkgcA4/oPBQTShQKnj
xb+B34fBAOeaQM/MWr9Nd5TBklv/QH8Q+r/GXIvBOhV1QDvzjsCIV6LB+HQlQRhDK798tKHByDMh
QcCCajzbVKvBVLNFQNYSesDo3JnB11ymQDdFmMCxAKHBhnYUQXvXi7/aJpvBW/cLQbjkQz5ezq7B
4uVtQJ8eacC+CJDBjJS6QFawj8DVLJfBiz7+QFAxXb8obZ7BOf71QH8/mL5biqjBvb2iQDIsfMC6
qI7BLx/NQO/ct7+EiXXB+eXZQJ4Xj78NMZfBtFvIQKyVhb50mKzBzouqQFBBFD4ETqPBjKOxQNBt
0T9KhKDB8jx3QJi/hL2Cp6bBIcC4QIArYMBujITBRPe/QLxN/r/XVYXBATeyQDg/ub9+0WPBBO/x
QOdQY7+pIXHBtHLMQF6yXb+EuVTByPDwQHYaCr+RYlzBbiGzQO+MNL+BvJnB55jhQLK12r92V43B
5C1WQHCQlcAs5KnBlsc1QdwgXr9KW5/B4kMuQTJszj4ZDrDByZ8CQBusa8Bv6prBp2q4QAAApsCK
hafBkbMXQQF/y7+0p5PBzLgIQQpBMz+LQLbBlb9JQAt/TcCYh4nByjTcQFKMlsDGJ5bBg6zFQDZd
8j4LHbPBGjq/QM/AoL/lkq/BOFqcQJYW9j+s5JnB0yLTQP405T+oHJ7Bp3qqQB5cEECikKfB6shM
QLn9ZT74BqDBEAppQFEpDj/bs63BHtFsQBzpj79AoajBSoekQEbkbsBcK3vBpaTXQJWlgMAivoPB
XuChQCBewb/p2ofBeJCaQHjoeL97E5XB5Lb/QDAY+7+UjIvBEzF2QK0jjsBMe6LBoEglQVArJ7+0
v6HBn9EgQYAu9Tt2dKvBmOimQDNvl8DvHaHBh3BGQMQ7ecD8+5nBsWoUQUy+ir+HJJvB84gLQWT6
Fj4p+a7BVfK6QKInj8C9P5fB9UBuQGH3aMDeHJDBuwr+QNTeYr8xdJ7BWXX1QO9Ptb47qqjBJ+yi
QFLge8DSto7BdSTNQH/lt7+hdHXBQdfZQE3Ojr9uIJfBf6DHQKkzqb7RmKzBfb2qQMBBEz6WVaPB
wG+zQMji0T9H/aDBT9h2QDA8Br1rc6bBtsO4QJo6YMAaj4TBjPe/QOxV/r8YS4XBaWmyQOyiur8D
rWPBRcDxQFtEX792JHHB5pHMQDMoXr9bo1TBwtbwQDOLBr9oY1zB5kCzQGBGLb+hlpnB5JPhQEqc
2r/HSo3BjpVXQPR4lMCZEKrB26k1QTQTVL+VYZ/Bc8EtQRuL0D7hNLDBMxi5QDrppMBbpafBDV4D
QJPmasBFDpvB9coXQfQQyL/llZPBxCIIQcZBIz9Te7bBxZPcQGHzlcBgNpbB1MxJQI/6TcDWl4nB
Gb7EQKaUuT6sZLPBxf29QIODq79eIa/Bvs2eQKjR/D9FYprBfTLVQJnZ4j9SvJ7BA3+sQFMGD0A6
L6jBB9dNQOfFnD7k1J/B3QVpQAhAED8qpK3B7whqQF4TjL8lHKjBKm2kQP0xb8C4P3vBFKbXQPqt
gMDJvIPBh+GhQMVTwb8Rz4fBvNGaQH3/Zr9uv5TB37L/QL8I+7+lgYvBtjl1QGTvjMBCzaLBziol
QRWLJL/pmqHBEJEgQQDq07pAYavB/LFFQMEkd8AZRJrBP1emQAmolsAqc6HBwmIUQexAi7/DAJvB
30cLQWD2yj0f/K7B1optQNEfaMDzXZDBBGi6QLf8jsCqjZfB7+/9QJtTa7+CX57BCzD1QB8Q1b61
q6jBa3miQCzze8D7+Y7Bv1bMQNsfvL9nRnXB6crZQOihj788+ZbBgjPHQGVCxr6EfKzBMGCrQOxK
Gj6kPqPB5BK2QI4e0j+FLaHBlnB3QGCJ1jxjLqbBmUu4QILzYcAov4TBBXa/QP67AMCVQIXBlbLx
QOhSQL+gIXHBdmO0QFY2yL9nUGTBqzXsQI3+8b6qsVvBtgrJQMaScL8dW1TBd3uzQNvXJ79zZZnB
6lThQATA2783I43BMpVWQNbRksDEZ6rBnZQ1QZTVSr/ALp/BeWYtQWa20z4XHrDBVMUCQCsZaMBC
VJvBzHG4QCf+o8DVAqjBk9gXQUcax7/FaJPBJcsHQevhET8ZkLbB6kBJQPliTcAj0YnBdfrbQKcX
lsAhh5bBlk3EQNS2iz4GfbPBgs+8QJiHs788qK7BjyeiQP1GAUCFlZrBCRHYQJtt3j+8Bp/BsJqv
QItvDkAqdajBBQ9QQCVk0j5okZ/BtnBqQHn8Gz++dq3BDq5nQD7yg78qnafBe/KjQFEFcsCVtHvB
my/XQFiWgcCoAITBCXShQIwVxL9WyofBrgybQMhPWb99d5TB/nX/QKHr+r9mRovBpo1mQFpNjsCl
pqLBnAUlQdvXi78YdaHBFC8jQeJoOr6PAqrBwt2eQDfRmMB/XqHBdu44QKHrdcCoN5rBqF4TQRqz
q78FxJrBnp4PQaHX8T5d96vB2K2zQL5AkMA0n5fBLjRiQENlZcDLc5DBK1X/QDjhML8dupzBtYf7
QJhDTj5HcqXBppKcQFdre8BAHo/BnPHGQBBavr+TdHXB/lXZQDDTd7/aD5bBOxDRQGumYz8VhKfB
L6yrQF8ML70XJaTBG4qBQHq2QT8cKKTBxUinQFB1nr/B9KvBNvWyQIyaYsDR9YTBw6G6QJmZAcBq
WIXBdE/BQNhrHL4j5m/BbajZQKBFCsCTRmbBKVPRQDJcJ75aV1vBu4nfQMUjqL9F4FXBEkKzQJgb
Dr8rI5nBzgveQB+12r+xvIzBIqdGQDQalcD1H6rB0AE0QVPSzL9wCaDBVtEwQUXrbjx7FK/BC0ew
QNVzp8DK36fBzNrsP4oGZcAdQpvB8twUQcnOAcDXI5TB2U8OQYAhlz+TdLLBvyzVQOHXl8DZqJbB
emk/QIrWR8AK94nB8ofPQPYQ6T8d2qLBOkTOQPWojz9wFrDBU/5NQGv4yT1bxaHB4wmEQGvjyz8t
eZ7Bt/x2QPwvkz8sPKzBjaCMQPK38L9XY6nBdPigQPySXL+vErTB4yXFQLv96L+g9KvBPN2eQAHR
csDEDHzBl7XRQMVBgsAzWoTBCCydQBDyw7+qGIjBK+aaQO00Fr+h9JPB6j77QBoeA8Dr6orBotNi
QLUplMAI5qPBCBhnQFhSIT9hhKnB/weQQORNkz/iLbHBqr+dQLwSnMATXKPBfGU3QBI2g8DI/JrB
KF6DQNT1Rj2eF6DBlnq8QDmyiz/wb6/BAq60QBHokcDdBZrBpt5kQFpDc8CMlpHB1/2vQFhk+LzS
VZ7Bh3TMQPt89z5aG6bBpGWfQE7+fsBMOpHBmFvGQH/bxL8nhHfBuiTBQEClQr8j+ZTBoBb8QK1Z
rD7daaTBqWQCQQPngb8utZ7BihT6QPf8DMCnPKbBQkcaQcOUir/LrJvBq2W5QIS7YMDguofBwzSq
QDY/B8BtLITBot23QMlOq7+nv2LB5ODtQGksk7+E0nnBY1PbQOD6Pr9JuVnBNHP6QK1nJb+g62bB
HMzpQBQAj7+Iz5TB+uCjQB0wk7+zF43B4RlAQJMem8DtKavBBewiQBKbLT/946rBVbyDQPV5zD+X
a7jBNyOuQL32qcChIKrBXIrmPwYpe8C5X5vBwN5aQIWIrb6qLZrB8EHSQERuwT+jPrXBqZ3WQOM3
mMABmZnB0E5DQJGZW8Bjo4rBOkkGQY9QtD4hMKzBG/ADQfQQlT/cbJ/BTDYAQYqtScCYEaLB7R7Y
QPEFCsDShajBPQ0HQbIlCcBida3BrpcdQTxYAsB8npfBMhYkQThigb+I9aLB6jMeQSaSfr6VSJbB
HmC1QOkIh8C+EoHBcmHbQGaVXcBM/YnBT6WKQPDLEMDBdoDBAL/2QJzFur+SBo7BUvWGQE6kOb8O
hI3B

>  <OMEGA_E>  (20) 
QF3RPrjy0j6ID9M+WHjTPjicCj/OTQs/EEMMP3zNDD/QfyA/YABbPw==

>  <OMEGA_NBR>  (20) 
     29625

$$$$
