50162157
     RDKit          3D

 85 89  0  0  1  0  0  0  0  0999 V2000
    6.8687    0.0444  -16.6748 C   0  0  0  0  0  0  0  0  0  0  0  0
    8.0214   -0.5182  -14.6015 C   0  0  0  0  0  0  0  0  0  0  0  0
    8.3502    1.6715  -15.6201 C   0  0  0  0  0  0  0  0  0  0  0  0
    7.0065    1.3067  -21.4972 C   0  0  0  0  0  0  0  0  0  0  0  0
    5.2711   -0.2752  -20.8204 C   0  0  0  0  0  0  0  0  0  0  0  0
    7.3903   -1.0928  -21.7068 C   0  0  0  0  0  0  0  0  0  0  0  0
    7.1598   -0.8793  -15.6535 C   0  0  0  0  0  0  0  0  0  0  0  0
    7.4651    1.3234  -16.6638 C   0  0  0  0  0  0  0  0  0  0  0  0
    8.6081    0.7604  -14.5774 C   0  0  0  0  0  0  0  0  0  0  0  0
    5.7186    1.0505  -20.9778 C   0  0  0  0  0  0  0  0  0  0  0  0
    7.8429    0.2342  -21.8575 C   0  0  0  0  0  0  0  0  0  0  0  0
    6.1022   -1.3444  -21.1918 C   0  0  0  0  0  0  0  0  0  0  0  0
    6.5640   -2.2173  -15.6773 C   0  0  0  0  0  0  0  0  0  0  0  0
    7.1436    2.2889  -17.7239 C   0  0  0  0  0  0  0  0  0  0  0  0
    7.7783   -4.1067  -18.6914 C   0  0  0  0  0  0  0  0  0  0  0  0
    6.7567   10.2013  -20.7708 C   0  0  0  0  0  0  0  0  0  0  0  0
    7.2394    9.0100  -21.6045 C   0  0  0  0  0  0  0  0  0  0  0  0
    7.1341   -5.1555  -17.7875 C   0  0  0  0  0  0  0  0  0  0  0  0
    7.6220   -2.7776  -17.9372 C   0  0  0  0  0  0  0  0  0  0  0  0
    5.4596    7.8401  -17.1633 C   0  0  0  0  0  0  0  0  0  0  0  0
    6.1351    5.9360  -18.6978 C   0  0  0  0  0  0  0  0  0  0  0  0
    4.5741    6.8492  -16.4073 C   0  0  0  0  0  0  0  0  0  0  0  0
    6.5575    8.7743  -20.2488 C   0  0  0  0  0  0  0  0  0  0  0  0
    6.1245   -4.3692  -16.9520 C   0  0  2  0  0  0  0  0  0  0  0  0
    5.1215    5.0415  -17.9426 C   0  0  2  0  0  0  0  0  0  0  0  0
    9.5688    1.1274  -13.4705 C   0  0  0  0  0  0  0  0  0  0  0  0
    2.6148   -3.1448  -17.4656 C   0  0  0  0  0  0  0  0  0  0  0  0
    4.8172    2.1900  -20.5725 C   0  0  0  0  0  0  0  0  0  0  0  0
    4.7773   -4.1876  -17.6798 C   0  0  0  0  0  0  0  0  0  0  0  0
    4.4477    4.0314  -18.8876 C   0  0  2  0  0  0  0  0  0  0  0  0
    5.4716    3.0417  -19.4696 C   0  0  1  0  0  0  0  0  0  0  0  0
    6.7683   -3.0643  -16.7651 N   0  0  0  0  0  0  0  0  0  0  0  0
    6.5346    7.1520  -17.9414 N   0  0  0  0  0  0  0  0  0  0  0  0
    5.9335    2.1580  -18.3920 N   0  0  0  0  0  0  0  0  0  0  0  0
    4.0537    5.8601  -17.3512 N   0  0  0  0  0  0  0  0  0  0  0  0
    5.9237   -2.6006  -14.7045 O   0  0  0  0  0  0  0  0  0  0  0  0
    7.9213    3.2003  -17.9841 O   0  0  0  0  0  0  0  0  0  0  0  0
    8.6724    7.3932  -19.3553 O   0  0  0  0  0  0  0  0  0  0  0  0
    7.8417    9.3695  -17.9780 O   0  0  0  0  0  0  0  0  0  0  0  0
    3.7791    4.7295  -19.9421 O   0  0  0  0  0  0  0  0  0  0  0  0
    3.9260   -3.3169  -16.9079 O   0  0  0  0  0  0  0  0  0  0  0  0
    9.0758    0.4791  -22.3560 F   0  0  0  0  0  0  0  0  0  0  0  0
    5.6565   -2.6121  -21.0580 F   0  0  0  0  0  0  0  0  0  0  0  0
    7.5641    8.2038  -18.8286 S   0  0  0  0  0  0  0  0  0  0  0  0
    6.1878   -0.2261  -17.4683 H   0  0  0  0  0  0  0  0  0  0  0  0
    8.2327   -1.2235  -13.8114 H   0  0  0  0  0  0  0  0  0  0  0  0
    8.8306    2.6388  -15.6214 H   0  0  0  0  0  0  0  0  0  0  0  0
    7.3488    2.3240  -21.6176 H   0  0  0  0  0  0  0  0  0  0  0  0
    4.2894   -0.4696  -20.4144 H   0  0  0  0  0  0  0  0  0  0  0  0
    8.0305   -1.9166  -21.9859 H   0  0  0  0  0  0  0  0  0  0  0  0
    8.8419   -4.3365  -18.8523 H   0  0  0  0  0  0  0  0  0  0  0  0
    7.2616   -4.0632  -19.6615 H   0  0  0  0  0  0  0  0  0  0  0  0
    7.4878   10.8661  -20.2876 H   0  0  0  0  0  0  0  0  0  0  0  0
    5.8898   10.7904  -21.1045 H   0  0  0  0  0  0  0  0  0  0  0  0
    6.7186    8.7434  -22.5360 H   0  0  0  0  0  0  0  0  0  0  0  0
    8.3166    8.8191  -21.7191 H   0  0  0  0  0  0  0  0  0  0  0  0
    6.6272   -5.9267  -18.3862 H   0  0  0  0  0  0  0  0  0  0  0  0
    7.8884   -5.6293  -17.1421 H   0  0  0  0  0  0  0  0  0  0  0  0
    8.6048   -2.4068  -17.6110 H   0  0  0  0  0  0  0  0  0  0  0  0
    7.1428   -2.0272  -18.5831 H   0  0  0  0  0  0  0  0  0  0  0  0
    4.8325    8.4175  -17.8586 H   0  0  0  0  0  0  0  0  0  0  0  0
    5.9275    8.5225  -16.4385 H   0  0  0  0  0  0  0  0  0  0  0  0
    7.0378    5.3420  -18.9032 H   0  0  0  0  0  0  0  0  0  0  0  0
    5.6798    6.2516  -19.6482 H   0  0  0  0  0  0  0  0  0  0  0  0
    5.1667    6.3425  -15.6314 H   0  0  0  0  0  0  0  0  0  0  0  0
    3.7373    7.3864  -15.9371 H   0  0  0  0  0  0  0  0  0  0  0  0
    5.5379    8.3615  -20.2494 H   0  0  0  0  0  0  0  0  0  0  0  0
    5.9630   -4.8698  -15.9860 H   0  0  0  0  0  0  0  0  0  0  0  0
    5.6531    4.4917  -17.1520 H   0  0  0  0  0  0  0  0  0  0  0  0
   10.5900    0.8387  -13.7599 H   0  0  0  0  0  0  0  0  0  0  0  0
    9.5302    2.2129  -13.2965 H   0  0  0  0  0  0  0  0  0  0  0  0
    9.2855    0.5980  -12.5488 H   0  0  0  0  0  0  0  0  0  0  0  0
    2.0282   -2.4712  -16.8236 H   0  0  0  0  0  0  0  0  0  0  0  0
    2.6990   -2.7103  -18.4726 H   0  0  0  0  0  0  0  0  0  0  0  0
    2.1121   -4.1212  -17.5284 H   0  0  0  0  0  0  0  0  0  0  0  0
    4.6221    2.8245  -21.4497 H   0  0  0  0  0  0  0  0  0  0  0  0
    3.8674    1.7818  -20.1967 H   0  0  0  0  0  0  0  0  0  0  0  0
    4.9532   -3.7437  -18.6708 H   0  0  0  0  0  0  0  0  0  0  0  0
    4.2897   -5.1665  -17.7978 H   0  0  0  0  0  0  0  0  0  0  0  0
    3.7125    3.4574  -18.3045 H   0  0  0  0  0  0  0  0  0  0  0  0
    6.3182    3.6007  -19.8948 H   0  0  0  0  0  0  0  0  0  0  0  0
    5.3325    1.4067  -18.1192 H   0  0  0  0  0  0  0  0  0  0  0  0
    3.4166    5.2589  -16.8690 H   0  0  0  0  0  0  0  0  0  0  0  0
    3.5706    6.3381  -18.0848 H   0  0  0  0  0  0  0  0  0  0  0  0
    3.3642    4.1033  -20.5237 H   0  0  0  0  0  0  0  0  0  0  0  0
  1  7  2  0
  1  8  1  0
  2  7  1  0
  2  9  2  0
  3  8  2  0
  3  9  1  0
  4 10  2  0
  4 11  1  0
  5 10  1  0
  5 12  2  0
  6 11  2  0
  6 12  1  0
  7 13  1  0
  8 14  1  0
  9 26  1  0
 10 28  1  0
 11 42  1  0
 12 43  1  0
 13 32  1  0
 13 36  2  0
 14 34  1  0
 14 37  2  0
 15 18  1  0
 15 19  1  0
 16 17  1  0
 16 23  1  0
 17 23  1  0
 18 24  1  0
 19 32  1  0
 20 22  1  0
 20 33  1  0
 21 25  1  0
 21 33  1  0
 22 35  1  0
 23 44  1  0
 24 29  1  0
 24 32  1  0
 25 30  1  0
 25 35  1  0
 27 41  1  0
 28 31  1  0
 29 41  1  0
 30 31  1  0
 30 40  1  0
 31 34  1  0
 33 44  1  0
 38 44  2  0
 39 44  2  0
  1 45  1  0
  2 46  1  0
  3 47  1  0
  4 48  1  0
  5 49  1  0
  6 50  1  0
 15 51  1  0
 15 52  1  0
 16 53  1  0
 16 54  1  0
 17 55  1  0
 17 56  1  0
 18 57  1  0
 18 58  1  0
 19 59  1  0
 19 60  1  0
 20 61  1  0
 20 62  1  0
 21 63  1  0
 21 64  1  0
 22 65  1  0
 22 66  1  0
 23 67  1  0
 24 68  1  1
 25 69  1  1
 26 70  1  0
 26 71  1  0
 26 72  1  0
 27 73  1  0
 27 74  1  0
 27 75  1  0
 28 76  1  0
 28 77  1  0
 29 78  1  0
 29 79  1  0
 30 80  1  1
 31 81  1  6
 34 82  1  0
 35 83  1  0
 35 84  1  0
 40 85  1  0
M  CHG  1  35   1
M  END
>  <OMEGA_C>  (1) 
eMzbQEy7NT38ZYXBgFcAQZ+oBL/vn2nBbJoFQUL01T8L7HnBFjXgQBRDpz84+qvBJq2oQJDmjL5D
kKbBXH3sQFfgi7+Mp63BtBzlQDMbYb/NdHrBSOLuQHRmqT+KT4XB6boJQYCpQj/0PGnB+/62QBl2
hj9/0qfBHPn6QInRbz483K7B+UTDQAgWrL/oiKnBIgzSQOznDcBB1nrBbJjkQMB8EkCayo3BuOf4
QAJqg8Dsh5XBHzfYQFI4I0GOKqbB0qjnQBQpEEEB1qzBgkrkQOj5pMDlTI7BBOfzQPjEMcBVf4/B
z7SuQGri+kB7TonBdlLEQBj0vUArlZXBQl+SQF0s20ArQoPBCtfRQFtjDEGK/aHBjPvDQGPQi8DL
nYfBgOOjQLpToUB5io/B7hkZQXROkD8hh1fBEFknQF1EScCTuYvBliaaQGooDECOlKTByt+YQH8A
hsBScI3BRlOOQIABgUDoGZfBbBevQJSrQkDGwZvBg5XYQBIdRMDqHobBYhvRQP7c5EDkh4/B/d69
QAgcCkDGIpPB7LeBQD2Gu0A7z4rBN4+9QMBvJsDGRWvB6nr9QO3RTEBh34/BLsIKQTKV7EDB15rB
3O76QIXpFUEB04/BiN1xQLhXl0B2iZ/BEEN7QIlIVMB3Q4fBcjYRQWpI9T4a2bLBtAG1QA4sJ8C9
dqjBRg3yQJVCA0HxoJbBTwLGQCCKZ779vovBErkDQXKanL92+1zBIkoNQezhKEAn8XnBKinrQKq7
FEDS8KzBCEOJQJdq8L6qUKPBHn0AQYpR9b8k46/Ba3gNQajEisCZ0ZbBXl/oQM8FgsDJSp3BWpzv
QJvbLUEPTaLBgHm8QIKlLEEP1qjBo/7WQBjlC0G/SbTBvhAFQTIbDUG/wK3BXBLUQKWnvcDaFpPB
uG38QNUitMAGI4nBdq0JQSMJGsBV44zBu5HkQB29AcAiqpTB8aOaQESuBkFk3o7BEK69QFtcCEEN
goPBbzXhQEPxqkC9OZfBr8C1QGQNyEBtL53B81WlQGz1ykAnGnrB2S9vQJld7ECC/n7BHzaxQOjI
BUG7/qHB+tC+QDrVm8B0xn/Bb+a0QPO7j0A1N4nB1HApQR6yVj99KFzBxHsYQaGfDUCqvlTBlZEU
QXAZGT/Vx0jBys4BQBwoHsCxlobBzLssQMZ0LcDzx5PBQy0HQOvgg8A7OozBR+iTQPnDNEDpmKvB
c4N3QMsS5D/IkqHBfYCeQPeYb8DgXZXBUUWJQPVTpcD0YY7BUJltQNFGXUClb5LBBy/KQFtxZkCV
KJ/BhaOqQIkPtD8J9JDB6KhaQLlIqECk84bBo4RkQOPRykCarZDBbE9XQEdOg0CaMKTBWkLdQOko
5j16o4XBSfkBQZd53L4XiGrBf7gGQUw14D9WSnvBqBTfQG65pT9WAqzB89GnQO96k74BcqbBrRrr
QHppjb9f2K3BLI7nQIagTb9k8nrBLCvwQEaSsj+QxIXBy1ILQdBpWT9ilmrBDRm2QAXZhD+2tKfB
kpn5QJ5CYz7LC6/BmBjCQCGfrb/QmanB8Y7UQPcmCcB123rBE5jkQLfIFkBtOI7BBvn3QIUWgsBN
vJXBPYIDQQl5B0FVPo7Bc4YPQdPV/0DaQZjB0S/lQCRRo8AAII7BOLf0QNvrLsChqI/BzpCaQJ2l
AUFldI7Bj8G+QFyzw0CzNZjBxWiUQAnH4UBeqYXBTO/8QDlvEUH1PJnB+H7FQKzuicADUYfBPaWj
QITWpEAKDJHBRRYbQZFCnT+5S1nBIcUoQCP+R8DXpIrBAu6YQAU5C0Ckk6TBwsCZQHuNhMB94IzB
TteMQFw4gkBAkJfBuMWtQDFTREAmBZzBHxLaQKEAQMBcHYbBStavQNSD8UDUQpjB7xq9QPQTDkC3
NJPBbUWDQGM8u0COoYrBeMfAQCz+IMAY/2rBqAH9QGJCUUCjmZDBy8OyQIDeHkGTlKDBOjXYQAZR
AEEeN6rBUaBpQF7klUC+8Z/Bsd5+QAw/T8A0wYbBE1QQQalu7j5eRrPBSoWzQC/YJ8B7s6jBgcbL
QGr1CkFrMaDBetXGQNI9K74H0ovBY7MFQWRakL/83l3Bt2gOQcD8LUDQqnvBZQvqQFT2E0CU96zB
p6iIQJh8974qDaPBCGz/QDrU9r9xLbDBkscMQRKeicDpk5fBlmrlQInDgMDDNJ3B+pbvQLPB+UBa
XIrBhOELQazwEEF4HojBFYggQXbxA0FyTJnBDnIMQUfD30BUipvBbLbUQDXDvMApmZLBUV3+QGWD
scBGGonBbFwKQfXrGMBSPY3BMIflQCQB/L+zuJTBHQR2QLz6B0GaupDBxnauQOayDkGXRovBHvnf
QDQRw0BZTZXBX6y9QJeyt0BYeqDBU06zQMSk2kBR14HBL7V7QKXQ7UDKOX/By/IDQdnmIUErs5rB
+TTBQNmFmcDx/37BbPW5QLuxlEAUkYvByFMrQbK0cD/LRF7BTnsaQfAvFEAmplbBe+0WQezbND+g
X0rBzd0EQH32GsAtlYXBFrMpQFJRMMA57pLBELsJQFuTg8AYZ4rB8fiRQJQiMkB3s6vBwtZ1QDKU
4T+uYKHBv5GeQEz/bsDQ9ZTB9c+JQDvbo8DNb43BUSluQMSNYUC5MZLBj5/IQA2sZ0AVm5/B6bap
QJ8ovz8+nZDBgKZxQMuIp0C35ITBW69VQLliw0BAYY/B1j1NQLN2gEDBAKTB

>  <OMEGA_E>  (1) 
IPZ0PnDE7D4=

>  <OMEGA_NBR>  (1) 
     37199

$$$$
50210663
     RDKit          3D

 84 88  0  0  1  0  0  0  0  0999 V2000
    7.4609    9.3007  -21.9134 C   0  0  0  0  0  0  0  0  0  0  0  0
    8.0921    8.9934  -20.6927 C   0  0  0  0  0  0  0  0  0  0  0  0
    6.0589    9.2252  -22.0200 C   0  0  0  0  0  0  0  0  0  0  0  0
    7.3239    8.6011  -19.5795 C   0  0  0  0  0  0  0  0  0  0  0  0
    5.2874    8.8445  -20.9065 C   0  0  0  0  0  0  0  0  0  0  0  0
    6.7745    0.0703  -16.6642 C   0  0  0  0  0  0  0  0  0  0  0  0
    7.9594   -0.4512  -14.5969 C   0  0  0  0  0  0  0  0  0  0  0  0
    8.2280    1.7384  -15.6325 C   0  0  0  0  0  0  0  0  0  0  0  0
    6.6560    1.1490  -21.4749 C   0  0  0  0  0  0  0  0  0  0  0  0
    4.8156   -0.2521  -20.6866 C   0  0  0  0  0  0  0  0  0  0  0  0
    6.8144   -1.2820  -21.6293 C   0  0  0  0  0  0  0  0  0  0  0  0
    7.0998   -0.8448  -15.6417 C   0  0  0  0  0  0  0  0  0  0  0  0
    7.3403    1.3639  -16.6655 C   0  0  0  0  0  0  0  0  0  0  0  0
    8.5173    0.8407  -14.5862 C   0  0  0  0  0  0  0  0  0  0  0  0
    5.3714    1.0264  -20.9038 C   0  0  0  0  0  0  0  0  0  0  0  0
    5.9088    8.5178  -19.6847 C   0  0  0  0  0  0  0  0  0  0  0  0
    7.3766   -0.0058  -21.8362 C   0  0  0  0  0  0  0  0  0  0  0  0
    5.5332   -1.4036  -21.0555 C   0  0  0  0  0  0  0  0  0  0  0  0
    6.5313   -2.2023  -15.6428 C   0  0  0  0  0  0  0  0  0  0  0  0
    6.9967    2.3151  -17.7342 C   0  0  0  0  0  0  0  0  0  0  0  0
    7.8384   -4.0872  -18.4824 C   0  0  0  0  0  0  0  0  0  0  0  0
    6.8765   -5.1227  -17.8836 C   0  0  0  0  0  0  0  0  0  0  0  0
    6.0382    5.8938  -18.1631 C   0  0  0  0  0  0  0  0  0  0  0  0
    7.3130   -2.7306  -18.0209 C   0  0  0  0  0  0  0  0  0  0  0  0
    4.5642    6.9870  -16.6055 C   0  0  0  0  0  0  0  0  0  0  0  0
    5.6595    7.2833  -17.6175 C   0  0  2  0  0  0  0  0  0  0  0  0
    5.9688   -4.3413  -16.9132 C   0  0  2  0  0  0  0  0  0  0  0  0
    4.8834    4.9635  -17.7226 C   0  0  2  0  0  0  0  0  0  0  0  0
    9.4906    1.2317  -13.4978 C   0  0  0  0  0  0  0  0  0  0  0  0
    2.4851   -2.9730  -17.2437 C   0  0  0  0  0  0  0  0  0  0  0  0
    4.5806    2.2589  -20.5242 C   0  0  0  0  0  0  0  0  0  0  0  0
    4.5492   -4.1859  -17.4943 C   0  0  0  0  0  0  0  0  0  0  0  0
    4.2740    4.1041  -18.8461 C   0  0  2  0  0  0  0  0  0  0  0  0
    5.2861    3.0965  -19.4329 C   0  0  1  0  0  0  0  0  0  0  0  0
    6.6077   -3.0229  -16.7701 N   0  0  0  0  0  0  0  0  0  0  0  0
    5.7619    2.2016  -18.3645 N   0  0  0  0  0  0  0  0  0  0  0  0
    3.8395    5.8514  -17.1797 N   0  0  0  0  0  0  0  0  0  0  0  0
    6.0283   -2.6322  -14.6108 O   0  0  0  0  0  0  0  0  0  0  0  0
    7.7902    3.1961  -18.0460 O   0  0  0  0  0  0  0  0  0  0  0  0
    3.7698    4.9514  -19.8799 O   0  0  0  0  0  0  0  0  0  0  0  0
    5.0845    8.1295  -18.6414 O   0  0  0  0  0  0  0  0  0  0  0  0
    3.7695   -3.2883  -16.6815 O   0  0  0  0  0  0  0  0  0  0  0  0
    8.6071    0.1101  -22.3842 F   0  0  0  0  0  0  0  0  0  0  0  0
    4.9961   -2.6266  -20.8477 F   0  0  0  0  0  0  0  0  0  0  0  0
    8.0523    9.5945  -22.7681 H   0  0  0  0  0  0  0  0  0  0  0  0
    9.1670    9.0586  -20.6101 H   0  0  0  0  0  0  0  0  0  0  0  0
    5.5754    9.4595  -22.9569 H   0  0  0  0  0  0  0  0  0  0  0  0
    7.8104    8.3634  -18.6450 H   0  0  0  0  0  0  0  0  0  0  0  0
    4.2113    8.8025  -20.9888 H   0  0  0  0  0  0  0  0  0  0  0  0
    6.0908   -0.2192  -17.4484 H   0  0  0  0  0  0  0  0  0  0  0  0
    8.1909   -1.1437  -13.8012 H   0  0  0  0  0  0  0  0  0  0  0  0
    8.6865    2.7162  -15.6449 H   0  0  0  0  0  0  0  0  0  0  0  0
    7.0858    2.1269  -21.6347 H   0  0  0  0  0  0  0  0  0  0  0  0
    3.8383   -0.3463  -20.2367 H   0  0  0  0  0  0  0  0  0  0  0  0
    7.3659   -2.1668  -21.9108 H   0  0  0  0  0  0  0  0  0  0  0  0
    8.8605   -4.2509  -18.1100 H   0  0  0  0  0  0  0  0  0  0  0  0
    7.8343   -4.1480  -19.5807 H   0  0  0  0  0  0  0  0  0  0  0  0
    6.2755   -5.5909  -18.6770 H   0  0  0  0  0  0  0  0  0  0  0  0
    7.4376   -5.8986  -17.3423 H   0  0  0  0  0  0  0  0  0  0  0  0
    6.1187    5.9178  -19.2599 H   0  0  0  0  0  0  0  0  0  0  0  0
    6.9926    5.5562  -17.7328 H   0  0  0  0  0  0  0  0  0  0  0  0
    8.1429   -2.0301  -17.8459 H   0  0  0  0  0  0  0  0  0  0  0  0
    6.6249   -2.3050  -18.7662 H   0  0  0  0  0  0  0  0  0  0  0  0
    4.9967    6.7202  -15.6299 H   0  0  0  0  0  0  0  0  0  0  0  0
    3.8984    7.8545  -16.4866 H   0  0  0  0  0  0  0  0  0  0  0  0
    6.5249    7.7566  -17.1306 H   0  0  0  0  0  0  0  0  0  0  0  0
    5.9216   -4.8609  -15.9448 H   0  0  0  0  0  0  0  0  0  0  0  0
    5.2515    4.2975  -16.9282 H   0  0  0  0  0  0  0  0  0  0  0  0
   10.5119    0.9608  -13.8037 H   0  0  0  0  0  0  0  0  0  0  0  0
    9.4345    2.3172  -13.3285 H   0  0  0  0  0  0  0  0  0  0  0  0
    9.2337    0.7020  -12.5686 H   0  0  0  0  0  0  0  0  0  0  0  0
    1.9488   -2.2866  -16.5719 H   0  0  0  0  0  0  0  0  0  0  0  0
    2.6218   -2.4938  -18.2243 H   0  0  0  0  0  0  0  0  0  0  0  0
    1.9014   -3.8973  -17.3655 H   0  0  0  0  0  0  0  0  0  0  0  0
    4.4485    2.8840  -21.4196 H   0  0  0  0  0  0  0  0  0  0  0  0
    3.5958    1.9451  -20.1476 H   0  0  0  0  0  0  0  0  0  0  0  0
    4.6178   -3.7831  -18.5156 H   0  0  0  0  0  0  0  0  0  0  0  0
    4.0585   -5.1700  -17.5204 H   0  0  0  0  0  0  0  0  0  0  0  0
    3.4424    3.5285  -18.4136 H   0  0  0  0  0  0  0  0  0  0  0  0
    6.1296    3.6431  -19.8798 H   0  0  0  0  0  0  0  0  0  0  0  0
    5.1559    1.4618  -18.0721 H   0  0  0  0  0  0  0  0  0  0  0  0
    3.3098    5.3802  -16.4744 H   0  0  0  0  0  0  0  0  0  0  0  0
    3.2264    6.1583  -17.9077 H   0  0  0  0  0  0  0  0  0  0  0  0
    3.3946    4.4191  -20.5715 H   0  0  0  0  0  0  0  0  0  0  0  0
  1  2  2  0
  1  3  1  0
  2  4  1  0
  3  5  2  0
  4 16  2  0
  5 16  1  0
  6 12  2  0
  6 13  1  0
  7 12  1  0
  7 14  2  0
  8 13  2  0
  8 14  1  0
  9 15  2  0
  9 17  1  0
 10 15  1  0
 10 18  2  0
 11 17  2  0
 11 18  1  0
 12 19  1  0
 13 20  1  0
 14 29  1  0
 15 31  1  0
 16 41  1  0
 17 43  1  0
 18 44  1  0
 19 35  1  0
 19 38  2  0
 20 36  1  0
 20 39  2  0
 21 22  1  0
 21 24  1  0
 22 27  1  0
 23 26  1  0
 23 28  1  0
 24 35  1  0
 25 26  1  0
 25 37  1  0
 26 41  1  0
 27 32  1  0
 27 35  1  0
 28 33  1  0
 28 37  1  0
 30 42  1  0
 31 34  1  0
 32 42  1  0
 33 34  1  0
 33 40  1  0
 34 36  1  0
  1 45  1  0
  2 46  1  0
  3 47  1  0
  4 48  1  0
  5 49  1  0
  6 50  1  0
  7 51  1  0
  8 52  1  0
  9 53  1  0
 10 54  1  0
 11 55  1  0
 21 56  1  0
 21 57  1  0
 22 58  1  0
 22 59  1  0
 23 60  1  0
 23 61  1  0
 24 62  1  0
 24 63  1  0
 25 64  1  0
 25 65  1  0
 26 66  1  1
 27 67  1  1
 28 68  1  1
 29 69  1  0
 29 70  1  0
 29 71  1  0
 30 72  1  0
 30 73  1  0
 30 74  1  0
 31 75  1  0
 31 76  1  0
 32 77  1  0
 32 78  1  0
 33 79  1  1
 34 80  1  6
 36 81  1  0
 37 82  1  0
 37 83  1  0
 40 84  1  0
M  CHG  1  37   1
M  END
>  <OMEGA_C>  (2) 
pb/uQMvPFEG9Tq/BY3kBQdPkD0G0iqXBc+LBQF2aE0EJKbDBY13qQBGeCUHQopzBAzKpQCODDUFq
QKfB6MjYQIgAkD0zUIXBD7P+QFIE577njGnBC6YDQW6F3j+mHnrBN/7UQNwTkz+rzKvBKxmaQAAO
gb43fqXBYg/aQAgYpL/cCK3BijHjQFlDWL+ERHrBVuPqQFCUrj/YUoXBuEYIQbQ4Vz82YWnBneKr
QL9fgz8DO6fBfxS9QNVICEFTep3BKw3sQPD8vrt5sK7B9Q+xQEKps7+9cajBgQDRQEHyDMDlSHrB
H+XfQD8rFECw343Bj9T6QB3KgsDj25PBHwzcQN7so8CLEY/BPTnBQEiavEAeTpHBRQTqQCLCLsDD
KpDBNQ6SQD2V30AT2ITBrRq1QIUQ6UCL8IzBIgC/QD7sisA0TofB10ScQKrUnkDWx43BlNkXQc6p
nT/N9lfBwAsfQOtEPsAG84nBA5SSQLOREEB9MaTBapORQJbyhcBD9IvBAcWIQHdUg0DgxJbBqyep
QKctRkCCdpvBF3LTQK12QcAtKYbBamG4QM/mDEBt6pLBtLl1QP4+u0AOcInBuufAQIl1KMDDxWnB
nUn5QJiNTEBMXpDB2ENxQDRynkATCp/BhrSiQFYSAkGDIZXB+D9xQDhzUsC6c4XBjbYJQXqU4T3s
ErPBTOCfQGMaKMAuyKbBDNYAQe+CGUEKJbbBA6wSQeDvEEGC4aTB+WmyQDFaF0HIp7fBdO75QErQ
BUEDKZXBH8OGQALXDEEL6afBcefCQHltYL5alovBDQ4DQfhkkr+E0VzB6PsKQbDWLUCtUXrBNb/i
QIYeCEDtE63BL6Z1QHRKsb7X5KHBoLXrQIatCsBRSa/Bb8QNQVYHiMAx4ZDBQ7L6QMe8hMA4pZzB
JtHIQAjpssCLapXBygDuQKLBvMDyvIrBSszDQIFevUBZFJrBUsPfQH7MsUC53I3BZUkCQbbtAcBm
xI7Bkf/TQFuFE8AVIZbBROWfQBgM10AaFHrBg395QKxX+0B/5IPBYszQQPM1+ECSC4nB6H29QHqM
m8DDHX/BcQyoQP2EiUAKbYfBrjAoQVT5dT8b3FzBovMWQc9MFEBeQVXBHL0TQVCzMz8MGUnB+nD5
P4pXEsBFk4TBHswnQMGZH8Bky5HBG2DzP5VtecB07IrBbVqOQLWTOEBTW6vB7CFmQDz4+D9PLqHB
BMWTQLMdcsDiH5TBfd+BQJhwpcDWKYzBb1BcQEzSYUAbT5PB8yXEQFgoaUDDCZ/BLv2kQIYbuz+3
k5DBjdRTQMwqrECSy4PBjnxOQL8QxUDwQo/BjkBZQAZpjUB3kqTB9RfvQCyYFUEfQa/B8U/CQNsZ
FEHcP7DBgHkBQWeIEEEOd6XBrF2pQDyVDUEydafBbiHqQG/QCUGprpzBdlHZQJWyqT0WbYXB5yT/
QJRv6r7L2WnBRgkEQZaR3j9CK3rB42zVQC1Wlz9vZqvBc6eaQFrfeL58X6XBZ/baQF9Kn78X+KzB
vYnjQATuVr9WmXrBKKPrQGe7rz+PX4XB/o8IQd4NVT+NfmnBrUOsQKRMhT+H5abB5Oq8QIE3CEGf
p53BasrsQHpRHT3DZq7B9M+xQMEOsb+JfajBLsHQQAAVDMDzpnrBz4TgQCvsFEAo4o3BNQ38QIgy
g8CKZJPBMgbcQPoCpMBYCo/BqA/BQPaFvEA7I5HBdpnpQLN5L8B0VJDBbs2RQCZh4ECa5ITB+dO0
QApM6UCqB43BseW+QMQKi8BTRofBTaObQKJAn0AFqI3BB+wXQRlrmz950lfBLy0dQP2zQ8DamonB
OGqSQLOvEED22qPBbCWRQAyGh8DBwovBuT2IQOTqg0CkqZbBe9CoQEBaR0BqOZvBMTzSQG1XQMDV
YobB2zK4QLNuD0B/j5LBL8d0QNz8u0CqYYnB2NXAQGNbJ8AXE2rB55/6QJbMSkBdw5DBQSxxQPYH
n0Cs/p7B/EmiQCe7AUFbZpXBUW9vQGqiV8A7HYXB5BoKQV5PMD5WurLBMJGgQBgmJ8CGIqfB0BoB
QS6fGkHL/7XBChizQIH1F0FVw7fBTqMSQSbOEUG/sKTBh/2GQLCvDEFwOqjBQ3j5QFveBUELMpXB
k2XDQO7MSr5Zt4vBxkQDQQxLlL8kO13BZXILQWC5LUCnRXrB+fniQOCXCkDWiqzBJbh2QLeDs74s
z6HBttnsQF3BB8AtTq/Bo9gNQSDKh8Auto/BPd3+QP0EhsDcIpzBygnJQNjCscDompXBfOTsQA7K
vcBwyIrBwFLEQCSlvEBT5pnBVUPfQDDNsUCHf43B/KUBQQuNAMCCAI/BI9zTQIq8F8AolZbB3aaf
QMQZ2EDWJHrB3lF5QFtM/ECpAYTBSXTQQIjv+EBkOonBEEW+QEIcm8Cv5H7B7gKnQGPdiUCDRYfB
WVIoQeD2cT/filzBRP8WQT0XE0CC/FTB050TQelZLT8BFEnBOgj0P5xUGcANH4TBkdYlQNNeI8C4
WJHBLl7xP04of8DPyYrBx5SNQD09OEC9CKvBKmNmQEJJ9z/awaDBtm6SQBu7dMCd6pPBwHyCQPqD
p8BT94vB/uBaQK0xY0D8QpPBUrTDQGlGakA6257B8ESkQD2jxD8/2I/BLspSQBM7rUDasYPBQZRN
QBypxUCJOY/BgEhZQOn/jUBpiaTB

>  <OMEGA_E>  (2) 
AFjAPIC4qzw=

>  <OMEGA_NBR>  (2) 
      2954

$$$$
50162125
     RDKit          3D

 86 89  0  0  1  0  0  0  0  0999 V2000
    6.3699    8.7763  -22.4604 C   0  0  0  0  0  0  0  0  0  0  0  0
    5.6219    9.9583  -22.2932 C   0  0  0  0  0  0  0  0  0  0  0  0
    7.0339    8.2018  -21.3590 C   0  0  0  0  0  0  0  0  0  0  0  0
    6.8241    0.0156  -16.9543 C   0  0  0  0  0  0  0  0  0  0  0  0
    8.4381    1.5604  -15.9783 C   0  0  0  0  0  0  0  0  0  0  0  0
    6.9330    1.2780  -21.4329 C   0  0  0  0  0  0  0  0  0  0  0  0
    5.3399   -0.3552  -20.5596 C   0  0  0  0  0  0  0  0  0  0  0  0
    6.2045    9.9942  -19.9252 C   0  0  0  0  0  0  0  0  0  0  0  0
    8.1920   -0.6916  -15.0752 C   0  0  0  0  0  0  0  0  0  0  0  0
    7.4741   -1.1017  -21.4784 C   0  0  0  0  0  0  0  0  0  0  0  0
    7.4489    1.2854  -16.9238 C   0  0  0  0  0  0  0  0  0  0  0  0
    5.5502   10.5752  -21.0260 C   0  0  0  0  0  0  0  0  0  0  0  0
    5.6812    0.9847  -20.8455 C   0  0  0  0  0  0  0  0  0  0  0  0
    7.1994   -0.9841  -16.0300 C   0  0  0  0  0  0  0  0  0  0  0  0
    8.8180    0.5770  -15.0680 C   0  0  0  0  0  0  0  0  0  0  0  0
    7.8260    0.2353  -21.7504 C   0  0  0  0  0  0  0  0  0  0  0  0
    6.2333   -1.3961  -20.8794 C   0  0  0  0  0  0  0  0  0  0  0  0
    6.9572    8.8167  -20.0892 C   0  0  0  0  0  0  0  0  0  0  0  0
    7.0779    2.3180  -17.8797 C   0  0  0  0  0  0  0  0  0  0  0  0
    5.3871    7.9039  -17.2217 C   0  0  0  0  0  0  0  0  0  0  0  0
    5.9831    5.9860  -18.7436 C   0  0  0  0  0  0  0  0  0  0  0  0
    4.4078    6.9753  -16.4945 C   0  0  0  0  0  0  0  0  0  0  0  0
    4.9471    5.1148  -17.9982 C   0  0  2  0  0  0  0  0  0  0  0  0
    4.7036   11.8089  -20.8234 C   0  0  0  0  0  0  0  0  0  0  0  0
    5.2917   -4.1682  -16.8687 C   0  0  0  0  0  0  0  0  0  0  0  0
    9.6781    1.7646  -13.0864 C   0  0  0  0  0  0  0  0  0  0  0  0
   11.1307   -1.3079  -12.9715 C   0  0  0  0  0  0  0  0  0  0  0  0
    4.7062    2.1049  -20.5083 C   0  0  0  0  0  0  0  0  0  0  0  0
    5.9142   -2.8158  -17.2301 C   0  0  0  0  0  0  0  0  0  0  0  0
    4.2843    4.0855  -18.9421 C   0  0  2  0  0  0  0  0  0  0  0  0
    5.3178    3.0823  -19.4859 C   0  0  1  0  0  0  0  0  0  0  0  0
    6.4535    7.1201  -17.9154 N   0  0  0  0  0  0  0  0  0  0  0  0
    6.6410   -2.2672  -16.0550 N   0  0  0  0  0  0  0  0  0  0  0  0
    5.7901    2.2940  -18.3617 N   0  0  0  0  0  0  0  0  0  0  0  0
    9.8862    0.8647  -14.2427 N   0  0  0  0  0  0  0  0  0  0  0  0
    3.8858    5.9689  -17.4321 N   0  0  0  0  0  0  0  0  0  0  0  0
    7.8842    3.1786  -18.2193 O   0  0  0  0  0  0  0  0  0  0  0  0
    8.0723    9.1164  -17.6987 O   0  0  0  0  0  0  0  0  0  0  0  0
    8.7415    7.1071  -19.1137 O   0  0  0  0  0  0  0  0  0  0  0  0
   12.4320    0.7554  -14.0129 O   0  0  0  0  0  0  0  0  0  0  0  0
   11.2533   -0.8620  -15.5826 O   0  0  0  0  0  0  0  0  0  0  0  0
    3.6439    4.7580  -20.0240 O   0  0  0  0  0  0  0  0  0  0  0  0
    9.0170    0.5163  -22.3265 F   0  0  0  0  0  0  0  0  0  0  0  0
    5.8984   -2.6790  -20.6147 F   0  0  0  0  0  0  0  0  0  0  0  0
    7.7135    8.0437  -18.6369 S   0  0  0  0  0  0  0  0  0  0  0  0
   11.2861   -0.1123  -14.3163 S   0  0  0  0  0  0  0  0  0  0  0  0
    6.4341    8.3107  -23.4328 H   0  0  0  0  0  0  0  0  0  0  0  0
    5.1033   10.3925  -23.1352 H   0  0  0  0  0  0  0  0  0  0  0  0
    7.6015    7.2916  -21.4851 H   0  0  0  0  0  0  0  0  0  0  0  0
    6.0576   -0.1895  -17.6871 H   0  0  0  0  0  0  0  0  0  0  0  0
    8.9076    2.5327  -15.9527 H   0  0  0  0  0  0  0  0  0  0  0  0
    7.2053    2.3026  -21.6387 H   0  0  0  0  0  0  0  0  0  0  0  0
    4.3919   -0.5825  -20.0949 H   0  0  0  0  0  0  0  0  0  0  0  0
    6.1290   10.4534  -18.9505 H   0  0  0  0  0  0  0  0  0  0  0  0
    8.4760   -1.4370  -14.3471 H   0  0  0  0  0  0  0  0  0  0  0  0
    8.1557   -1.9011  -21.7292 H   0  0  0  0  0  0  0  0  0  0  0  0
    4.8353    8.4972  -17.9656 H   0  0  0  0  0  0  0  0  0  0  0  0
    5.8551    8.5780  -16.4891 H   0  0  0  0  0  0  0  0  0  0  0  0
    6.8467    5.3596  -19.0114 H   0  0  0  0  0  0  0  0  0  0  0  0
    5.5201    6.3830  -19.6591 H   0  0  0  0  0  0  0  0  0  0  0  0
    4.9292    6.4693  -15.6686 H   0  0  0  0  0  0  0  0  0  0  0  0
    3.5727    7.5679  -16.0926 H   0  0  0  0  0  0  0  0  0  0  0  0
    5.4580    4.5735  -17.1882 H   0  0  0  0  0  0  0  0  0  0  0  0
    3.6770   11.5112  -20.5637 H   0  0  0  0  0  0  0  0  0  0  0  0
    5.1270   12.4142  -20.0084 H   0  0  0  0  0  0  0  0  0  0  0  0
    4.6902   12.4005  -21.7507 H   0  0  0  0  0  0  0  0  0  0  0  0
    4.7552   -4.5702  -17.7408 H   0  0  0  0  0  0  0  0  0  0  0  0
    6.0855   -4.8694  -16.5715 H   0  0  0  0  0  0  0  0  0  0  0  0
    4.5876   -4.0363  -16.0340 H   0  0  0  0  0  0  0  0  0  0  0  0
   10.6251    1.8852  -12.5399 H   0  0  0  0  0  0  0  0  0  0  0  0
    9.3332    2.7462  -13.4433 H   0  0  0  0  0  0  0  0  0  0  0  0
    8.9210    1.3313  -12.4164 H   0  0  0  0  0  0  0  0  0  0  0  0
   12.0085   -1.9708  -12.9662 H   0  0  0  0  0  0  0  0  0  0  0  0
   11.0687   -0.7741  -12.0117 H   0  0  0  0  0  0  0  0  0  0  0  0
   10.2198   -1.9071  -13.1172 H   0  0  0  0  0  0  0  0  0  0  0  0
    4.4588    2.6551  -21.4281 H   0  0  0  0  0  0  0  0  0  0  0  0
    3.7898    1.6683  -20.0845 H   0  0  0  0  0  0  0  0  0  0  0  0
    6.6176   -2.9488  -18.0653 H   0  0  0  0  0  0  0  0  0  0  0  0
    5.1197   -2.1157  -17.5278 H   0  0  0  0  0  0  0  0  0  0  0  0
    3.5364    3.5247  -18.3623 H   0  0  0  0  0  0  0  0  0  0  0  0
    6.1493    3.6295  -19.9540 H   0  0  0  0  0  0  0  0  0  0  0  0
    7.3962   -2.8989  -15.8798 H   0  0  0  0  0  0  0  0  0  0  0  0
    5.1337    1.6922  -17.9066 H   0  0  0  0  0  0  0  0  0  0  0  0
    3.2322    5.3880  -16.9469 H   0  0  0  0  0  0  0  0  0  0  0  0
    3.4206    6.4403  -18.1814 H   0  0  0  0  0  0  0  0  0  0  0  0
    3.2392    4.1195  -20.5993 H   0  0  0  0  0  0  0  0  0  0  0  0
  1  2  2  0
  1  3  1  0
  2 12  1  0
  3 18  2  0
  4 11  2  0
  4 14  1  0
  5 11  1  0
  5 15  2  0
  6 13  2  0
  6 16  1  0
  7 13  1  0
  7 17  2  0
  8 12  2  0
  8 18  1  0
  9 14  2  0
  9 15  1  0
 10 16  2  0
 10 17  1  0
 11 19  1  0
 12 24  1  0
 13 28  1  0
 14 33  1  0
 15 35  1  0
 16 43  1  0
 17 44  1  0
 18 45  1  0
 19 34  1  0
 19 37  2  0
 20 22  1  0
 20 32  1  0
 21 23  1  0
 21 32  1  0
 22 36  1  0
 23 30  1  0
 23 36  1  0
 25 29  1  0
 26 35  1  0
 27 46  1  0
 28 31  1  0
 29 33  1  0
 30 31  1  0
 30 42  1  0
 31 34  1  0
 32 45  1  0
 35 46  1  0
 38 45  2  0
 39 45  2  0
 40 46  2  0
 41 46  2  0
  1 47  1  0
  2 48  1  0
  3 49  1  0
  4 50  1  0
  5 51  1  0
  6 52  1  0
  7 53  1  0
  8 54  1  0
  9 55  1  0
 10 56  1  0
 20 57  1  0
 20 58  1  0
 21 59  1  0
 21 60  1  0
 22 61  1  0
 22 62  1  0
 23 63  1  1
 24 64  1  0
 24 65  1  0
 24 66  1  0
 25 67  1  0
 25 68  1  0
 25 69  1  0
 26 70  1  0
 26 71  1  0
 26 72  1  0
 27 73  1  0
 27 74  1  0
 27 75  1  0
 28 76  1  0
 28 77  1  0
 29 78  1  0
 29 79  1  0
 30 80  1  1
 31 81  1  6
 33 82  1  0
 34 83  1  0
 36 84  1  0
 36 85  1  0
 42 86  1  0
M  CHG  1  36   1
M  END
>  <OMEGA_C>  (3) 
5NXLQLVrDEHmrrPB3OazQBpVH0GTWLLBAhbhQIE6A0E736rB717aQHBPfzx0oofBowIHQRO6xz83
p3/BUNvdQKGUoz+sdqvBuuCqQFDetb4neqTBD4vGQF7oH0G3Zp/BahIDQdUKMb8UNHHBAizvQBMF
jb/Q06vBa13uQJWHpD8GZIfBAZuxQP8zKUE4NajBpsy1QPcTfD99w6bBOGHmQNPue79mPYDBaBYN
Qc22Ez+mFnHB5m76QN3zcD7dAK7BfnfHQNGxsr8dCafBlKHeQAERDUGptqDB433iQJZZFECQCY/B
bWOsQNjs/EATxonBWnW/QFyNv0De8pXBkgyNQLQ130DB9IPBf06eQGqso0A6/I/Bt4OWQEnxPEFq
lqbB3FWpQA1ihcAv84bBptkaQQbd4T/eYVHBOhcyQYlqp78yi0/BAZmWQFS2BkD7EKTBQUG9QDU2
NMAz14nBzhiJQKu8gkB2iZfBLiuqQMlDRUA545vBe4POQK/X40DCUo/BuoLUQIEaEcCscIDBOki5
QBbQEkCw5JLBDS4eQYdeXT8c4mPBBLF4QOgAv0DsdIvBZkv8QMhuS0AhwZHBDCgBQarcEUHtlo3B
Ud0LQXZt40Dz6JjBSelGQV5hQT+4NGDBWw00QamqXL9KUnnBKDZpQL9BmEAWMaDBfUUQQRIuBD+v
nLLBSb+8QPpzK8D26qTB7tT2QBCzAEFJGJXBvJM0Qe4F5r2QD2XBHOTNQLD4BEFRdrvB7U2jQK9H
JkHVFLnBqz/zQCxV6UB34avBO9jBQL0MQr4af43BkoUOQf4WIkAWPn/B/ZHmQBxeE0AoHK3Bk4qM
QC4dFb9LwqDB6SDEQPFAJ0GqmpfBmZ0HQT/ut7+2jWXBxH0CQXtW879T1a3BhLqaQJT0B0GmuY/B
2Fy7QE8/CUG66YPBhRjbQO+Bq0BJF5jB4aSwQDJBzEDGRZ3B1LudQJwEz0CZsnrB+6ZkQOgr8kC5
vYDBzKeuQCVakkB/gYnBjFNrQNMtOEGKgqTBHhCkQKigRkEoEaDB6BWWQJJoRkFvAa7BuCqYQE4/
ksA57Y3BULzCQOXRm8B+koTBZc2SQGYpgcCtRYDBjwAqQSRP8T+Go0jB9lQVQSvCL0C2F1fBO7wO
QcRmqj91qUbB0SJAQTpD/L+ldU/BmBkxQVEpRr8AMEDBM4QjQR0d9L8B4FHBnq6OQAXtKUDIbKvB
fotyQIaL1T8LraDBccPTQA65PMCvhZDBhtSjQBFoB8DeOIzB9lRiQNGUYUD15ZLBGMfEQMBJaEDR
oZ/Bba3sQB6HOcCtE37BpUekQIiZ2D+hQI/B5dxOQD9qrEBBk4fBe+taQI4WzkBqc5HB109PQMLS
g0BVy6TBhPGzQA/CKkGuYqfBrXK1QK4EIUHSiLHB3RTJQGc2IUFoqp7BMgjeQDDelD2n4obBziMI
QaRO3T8hC4DBIRjaQHr5nD95T6vBXq2oQOCQ276K9qPBEEzhQM8vBEGlPqrBdsEFQbgj8b5dY2/B
O77sQMI5kr+Fp6vB22rwQHSHrj/oTYfBUbDLQCWRDUHb7rLBrMKyQBJiaj/nUKbB7zfsQFpsXb/8
Y37BArwOQRAhUz9NenDBfBL3QLQaTD4G763BDYnFQC5jur+rrqbB9gbgQKX3DUE7GqDB0gvjQFC8
FEDwX4/BSfaqQAg0/UB7Z4rBwp+/QNC4vkAcCpbB32aLQEIn4EBOh4TBmaadQFJqo0DWHZDBRdrN
QJQlA0EW0L3BWDS0QNb4hMC0VYXBvvwaQdTFtj/0fkzBGes9QdwAUL8V9FzBl3+TQC2BAUD2aaPB
IZ7LQCHYN8BYoYjBPBqIQJA6gkDhiJfBh22oQCuPQkAiwJvB4+TNQKiN40DLZo/Bd+LcQEOYC8Am
9n3B+fa4QPXtEkAbopLB/WofQeJ1mj8za2PB8sx2QLgov0Bn4YvBSMv8QA5CSEC/CZPBdp0BQafj
EEFL2YzBy9YLQejR4kBfvJjB/4pHQTmS3z8RwmLB7kI4Qec51j7/+4DBl1NoQGKUl0AyTKDB1loO
Qeo5AD9xsrLB0Ju7QDafL8DwgqTBRUz3QCB6AEEduJTB3KU4QbqQOz9M9mrBupWiQCyKOUEeS6bB
ppKlQNNvKEHJQLjB8r/HQN+dKEG33ZbBUxPFQOXQSr64dIzBi1MPQahqLUA1eoDBpPDhQPw6EEBN
Hq3BWcyKQBCBK7+xEqDB8N7yQM3y6kDhWqvBNN4KQc9OlL9sFWPB2nABQScc97/0t63BNtSZQHd3
B0FSr5DBp/64QFX4CUHWrITB9HPbQNV6qkAZ5JfBw62xQPfnykD2hZ3BGaibQJK/0ECBenvBwcpg
QAxe80CSkIHBcFatQE9lkkCTfInBDczpQFlJCUEfMsLBvczQQCtt40A727zBVIewQIHXBkEIUcLB
IZqnQPwIlcDWgIzBCKDKQFJ0msCmMIHBJpaZQDnEecDy4n/BkNIpQRTj3D/bT0TBw/gOQRFZDkB0
vkrB3tsUQT5T/z77V0XBoAFOQbBglr/VHWHB2P48QYmBI79emUvBUfUxQQ1ZyL/0m2HBLXyJQNm+
IkCSwarBz6ZuQKV1yj86f5/B8i7mQAMvSMC+B47BESW1QJkKDcCRyIzBrn9fQAcjYkAB2ZLBWYXC
QJPsY0DZ7p/BmDP1QD+pL8AQx3jBT36kQLZP3T/neo7BVZVMQGfnrEBJ94fBC7dZQDyWzUC+BpLB
/OdNQEEZg0Ai16TB

>  <OMEGA_E>  (3) 
jvsOPwTzDT8=

>  <OMEGA_NBR>  (3) 
     45261

$$$$
50162110
     RDKit          3D

 91 95  0  0  1  0  0  0  0  0999 V2000
    5.7044   10.7363  -20.8702 C   0  0  0  0  0  0  0  0  0  0  0  0
    5.8260   10.2046  -22.1684 C   0  0  0  0  0  0  0  0  0  0  0  0
    6.3139   10.0839  -19.7832 C   0  0  0  0  0  0  0  0  0  0  0  0
    6.9032    0.1317  -16.7164 C   0  0  0  0  0  0  0  0  0  0  0  0
    8.1502   -0.3764  -14.6831 C   0  0  0  0  0  0  0  0  0  0  0  0
    8.3915    1.8036  -15.7458 C   0  0  0  0  0  0  0  0  0  0  0  0
    6.8589    1.2829  -21.5208 C   0  0  0  0  0  0  0  0  0  0  0  0
    5.1496   -0.3077  -20.7995 C   0  0  0  0  0  0  0  0  0  0  0  0
    7.1725    8.3660  -21.2921 C   0  0  0  0  0  0  0  0  0  0  0  0
    7.2521   -1.1145  -21.7348 C   0  0  0  0  0  0  0  0  0  0  0  0
    7.2571   -0.7716  -15.6954 C   0  0  0  0  0  0  0  0  0  0  0  0
    7.4721    1.4231  -16.7478 C   0  0  0  0  0  0  0  0  0  0  0  0
    6.5467    9.0094  -22.3800 C   0  0  0  0  0  0  0  0  0  0  0  0
    8.7087    0.9143  -14.7003 C   0  0  0  0  0  0  0  0  0  0  0  0
    5.5854    1.0205  -20.9694 C   0  0  0  0  0  0  0  0  0  0  0  0
    7.6940    0.2146  -21.8961 C   0  0  0  0  0  0  0  0  0  0  0  0
    5.9765   -1.3728  -21.1926 C   0  0  0  0  0  0  0  0  0  0  0  0
    7.0565    8.9025  -19.9915 C   0  0  0  0  0  0  0  0  0  0  0  0
    6.6964   -2.1245  -15.6775 C   0  0  0  0  0  0  0  0  0  0  0  0
    7.0918    2.3670  -17.8102 C   0  0  0  0  0  0  0  0  0  0  0  0
    7.7927   -4.0238  -18.7323 C   0  0  0  0  0  0  0  0  0  0  0  0
    7.2532   -5.0736  -17.7657 C   0  0  0  0  0  0  0  0  0  0  0  0
    7.6724   -2.6929  -17.9744 C   0  0  0  0  0  0  0  0  0  0  0  0
    5.4150    7.8515  -17.2047 C   0  0  0  0  0  0  0  0  0  0  0  0
    6.0037    5.9935  -18.7954 C   0  0  0  0  0  0  0  0  0  0  0  0
    4.4596    6.8962  -16.4825 C   0  0  0  0  0  0  0  0  0  0  0  0
    6.2565   -4.3046  -16.9005 C   0  0  2  0  0  0  0  0  0  0  0  0
    5.0061    5.0869  -18.0354 C   0  0  2  0  0  0  0  0  0  0  0  0
    6.7010    8.4527  -23.7785 C   0  0  0  0  0  0  0  0  0  0  0  0
    9.7024    1.3178  -13.6368 C   0  0  0  0  0  0  0  0  0  0  0  0
    2.6894   -3.2036  -17.2508 C   0  0  0  0  0  0  0  0  0  0  0  0
    4.6773    2.1562  -20.5666 C   0  0  0  0  0  0  0  0  0  0  0  0
    4.8723   -4.1771  -17.5684 C   0  0  0  0  0  0  0  0  0  0  0  0
    4.3322    4.0641  -18.9596 C   0  0  2  0  0  0  0  0  0  0  0  0
    5.3527    3.0581  -19.5189 C   0  0  1  0  0  0  0  0  0  0  0  0
    6.8631   -2.9753  -16.7687 N   0  0  0  0  0  0  0  0  0  0  0  0
    6.4799    7.0909  -17.9222 N   0  0  0  0  0  0  0  0  0  0  0  0
    5.8514    2.2195  -18.4186 N   0  0  0  0  0  0  0  0  0  0  0  0
    3.9397    5.9048  -17.4320 N   0  0  0  0  0  0  0  0  0  0  0  0
    6.1213   -2.5166  -14.6680 O   0  0  0  0  0  0  0  0  0  0  0  0
    7.8532    3.2738  -18.1291 O   0  0  0  0  0  0  0  0  0  0  0  0
    8.1281    9.0379  -17.5651 O   0  0  0  0  0  0  0  0  0  0  0  0
    8.7879    7.0979  -19.0750 O   0  0  0  0  0  0  0  0  0  0  0  0
    3.6682    4.7481  -20.0244 O   0  0  0  0  0  0  0  0  0  0  0  0
    4.0457   -3.2872  -16.7912 O   0  0  0  0  0  0  0  0  0  0  0  0
    8.9133    0.4660  -22.4241 F   0  0  0  0  0  0  0  0  0  0  0  0
    5.5363   -2.6426  -21.0598 F   0  0  0  0  0  0  0  0  0  0  0  0
    7.7675    8.0287  -18.5703 S   0  0  0  0  0  0  0  0  0  0  0  0
    5.1432   11.6448  -20.7091 H   0  0  0  0  0  0  0  0  0  0  0  0
    5.3669   10.7122  -23.0039 H   0  0  0  0  0  0  0  0  0  0  0  0
    6.2133   10.4883  -18.7868 H   0  0  0  0  0  0  0  0  0  0  0  0
    6.1955   -0.1642  -17.4766 H   0  0  0  0  0  0  0  0  0  0  0  0
    8.4073   -1.0649  -13.8917 H   0  0  0  0  0  0  0  0  0  0  0  0
    8.8529    2.7795  -15.7810 H   0  0  0  0  0  0  0  0  0  0  0  0
    7.1911    2.3018  -21.6541 H   0  0  0  0  0  0  0  0  0  0  0  0
    4.1803   -0.5072  -20.3672 H   0  0  0  0  0  0  0  0  0  0  0  0
    7.7410    7.4621  -21.4541 H   0  0  0  0  0  0  0  0  0  0  0  0
    7.8908   -1.9350  -22.0267 H   0  0  0  0  0  0  0  0  0  0  0  0
    8.8429   -4.2326  -18.9843 H   0  0  0  0  0  0  0  0  0  0  0  0
    7.1922   -4.0006  -19.6537 H   0  0  0  0  0  0  0  0  0  0  0  0
    6.7512   -5.8860  -18.3116 H   0  0  0  0  0  0  0  0  0  0  0  0
    8.0637   -5.4914  -17.1504 H   0  0  0  0  0  0  0  0  0  0  0  0
    8.6690   -2.3263  -17.6873 H   0  0  0  0  0  0  0  0  0  0  0  0
    7.1718   -1.9407  -18.6019 H   0  0  0  0  0  0  0  0  0  0  0  0
    4.8462    8.4495  -17.9320 H   0  0  0  0  0  0  0  0  0  0  0  0
    5.8833    8.5197  -16.4670 H   0  0  0  0  0  0  0  0  0  0  0  0
    6.8644    5.3908  -19.1207 H   0  0  0  0  0  0  0  0  0  0  0  0
    5.5033    6.4232  -19.6757 H   0  0  0  0  0  0  0  0  0  0  0  0
    4.9994    6.3807  -15.6746 H   0  0  0  0  0  0  0  0  0  0  0  0
    3.6224    7.4689  -16.0569 H   0  0  0  0  0  0  0  0  0  0  0  0
    6.1551   -4.7900  -15.9186 H   0  0  0  0  0  0  0  0  0  0  0  0
    5.5507    4.5479  -17.2461 H   0  0  0  0  0  0  0  0  0  0  0  0
    7.5970    8.8842  -24.2486 H   0  0  0  0  0  0  0  0  0  0  0  0
    6.8041    7.3587  -23.7282 H   0  0  0  0  0  0  0  0  0  0  0  0
    5.8137    8.7103  -24.3755 H   0  0  0  0  0  0  0  0  0  0  0  0
   10.7178    1.0463  -13.9611 H   0  0  0  0  0  0  0  0  0  0  0  0
    9.6470    2.4047  -13.4769 H   0  0  0  0  0  0  0  0  0  0  0  0
    9.4659    0.7965  -12.6975 H   0  0  0  0  0  0  0  0  0  0  0  0
    2.1267   -2.5090  -16.6098 H   0  0  0  0  0  0  0  0  0  0  0  0
    2.6758   -2.8378  -18.2881 H   0  0  0  0  0  0  0  0  0  0  0  0
    2.2255   -4.2001  -17.2072 H   0  0  0  0  0  0  0  0  0  0  0  0
    4.4361    2.7566  -21.4561 H   0  0  0  0  0  0  0  0  0  0  0  0
    3.7510    1.7424  -20.1414 H   0  0  0  0  0  0  0  0  0  0  0  0
    4.9911   -3.7738  -18.5849 H   0  0  0  0  0  0  0  0  0  0  0  0
    4.3972   -5.1679  -17.6203 H   0  0  0  0  0  0  0  0  0  0  0  0
    3.5932    3.5047  -18.3673 H   0  0  0  0  0  0  0  0  0  0  0  0
    6.1836    3.6044  -19.9892 H   0  0  0  0  0  0  0  0  0  0  0  0
    5.2546    1.4902  -18.0840 H   0  0  0  0  0  0  0  0  0  0  0  0
    3.3062    5.3001  -16.9493 H   0  0  0  0  0  0  0  0  0  0  0  0
    3.4521    6.3845  -18.1615 H   0  0  0  0  0  0  0  0  0  0  0  0
    3.2509    4.1148  -20.5966 H   0  0  0  0  0  0  0  0  0  0  0  0
  1  2  2  0
  1  3  1  0
  2 13  1  0
  3 18  2  0
  4 11  2  0
  4 12  1  0
  5 11  1  0
  5 14  2  0
  6 12  2  0
  6 14  1  0
  7 15  2  0
  7 16  1  0
  8 15  1  0
  8 17  2  0
  9 13  2  0
  9 18  1  0
 10 16  2  0
 10 17  1  0
 11 19  1  0
 12 20  1  0
 13 29  1  0
 14 30  1  0
 15 32  1  0
 16 46  1  0
 17 47  1  0
 18 48  1  0
 19 36  1  0
 19 40  2  0
 20 38  1  0
 20 41  2  0
 21 22  1  0
 21 23  1  0
 22 27  1  0
 23 36  1  0
 24 26  1  0
 24 37  1  0
 25 28  1  0
 25 37  1  0
 26 39  1  0
 27 33  1  0
 27 36  1  0
 28 34  1  0
 28 39  1  0
 31 45  1  0
 32 35  1  0
 33 45  1  0
 34 35  1  0
 34 44  1  0
 35 38  1  0
 37 48  1  0
 42 48  2  0
 43 48  2  0
  1 49  1  0
  2 50  1  0
  3 51  1  0
  4 52  1  0
  5 53  1  0
  6 54  1  0
  7 55  1  0
  8 56  1  0
  9 57  1  0
 10 58  1  0
 21 59  1  0
 21 60  1  0
 22 61  1  0
 22 62  1  0
 23 63  1  0
 23 64  1  0
 24 65  1  0
 24 66  1  0
 25 67  1  0
 25 68  1  0
 26 69  1  0
 26 70  1  0
 27 71  1  1
 28 72  1  1
 29 73  1  0
 29 74  1  0
 29 75  1  0
 30 76  1  0
 30 77  1  0
 30 78  1  0
 31 79  1  0
 31 80  1  0
 31 81  1  0
 32 82  1  0
 32 83  1  0
 33 84  1  0
 33 85  1  0
 34 86  1  1
 35 87  1  6
 38 88  1  0
 39 89  1  0
 39 90  1  0
 44 91  1  0
M  CHG  1  39   1
M  END
>  <OMEGA_C>  (4) 
YIq2QMbHK0Ek9qbBTm66QAVGI0H2WLHB2gvKQJlXIUHtQ57BbOfcQBHgBj47u4XBMWcCQXm5wL4D
7mrBkkMGQbbd5j+f7nvB/HvbQNk0pD+FKqzB2smkQFOJnb5uZabBbIXlQBLbBUEhVqrBAhHoQIuo
jr/m4K3BODroQCqJRb9zIHvBJxvvQLgptj+G+4XBPH7RQFkmEEE1CrPBzFYLQWQMaj+UNGvBxruy
QICggj9UwafBezX2QAPNWz4tK6/BfT+/QE62r7+FiqnBHc/hQJhwDkGF7p/B4kjWQCz3B8De1nrB
MPDiQHx9F0BSe47Bi135QBTDgMDQ25XBDRroQPVaosAeII7BQ4T1QK1XLMCUy4/BeUetQKc/+0BI
o4nB9B3AQOfKv0D4XJbBrbSOQKut3EA73IPBbzXIQEi/icAwNIfBHjKgQKfHokBsSJDBRG7WQG0+
B0FPOr7B9zwbQVutqD+BMFrBNh8sQKsHTcCUAYrBYKyVQLH+CUBiiKTBHeqbQPyqhcAujIzBN6GK
QHMNgkBbrZfBhUmrQM63Q0C3JpzBKJ7bQI1rPsA7JobBZFvPQEvo4kCeYI/B4j67QMQLDkA5WZPB
TSR8QDP0vEC/dIvB9+HDQMIPIcAfsGrBj037QH2FUUBUCJHBuwwCQWGbEEFihYzBL5sMQfoh40Ct
mZjB/MJqQDXwl0AGMqDBq3aBQNJhUsBlVIbBrpwOQUeS7j55ZLPBhSmxQBIgKcBveqjBYY/4QF11
AEHmj5TBIZWkQExROkEqrKXB/72rQExlK0H/B7jBCNPGQBjQJ0FoS5bBYkHGQMErKL4X0IvBa4QG
QcpNiL91RF7Be6UNQQnjMUDpfnzBfB3mQOxQE0CLO63BnsSFQLLaAb8g8KLBZLb3QLnJ7kASoqvB
s4H8QGKu97+kNrDBYXwNQUVxh8Do35fBICbmQNcEgMCxOp3B0wnYQFNavMAUfpLB7wQBQSe5r8AU
NInBKrQKQe/hFMCMf43BpX/lQCFq+L+10JTBARSbQA4xB0G/dI/BGUS8QL9QCEGCvIPBeanbQMGB
rEA595jBsBqwQCaLzUDYZ53BfPufQIwuzEAry3rBENVnQCIB70CIdIDBgPbEQLtHmcCWsn7BGp+x
QIOIkUDy94nBOhrzQLQlDkEr/cHBjrvZQNV660Bp073BrQm6QHJdC0HvAMPBOXwrQRjthT/PYF/B
EloaQYvmGUCQoVfBbXQXQXLlSz8SKUvBqRsIQHCTIMDM4ITBuz8rQOieNcABTpLBSW8OQNdmhsBe
qInB1vSNQI1sMEAupqvBrhBwQJgH3z9/IaHB2rafQDSFccDlrZTB17WMQBtfpcBl9ozBt/ZlQCNN
YEAn8JLBBeDFQE6vZkDQ6Z/BbyWoQD2/vj/+q5DBEJlTQHeaqUAmmIfBxO9cQAxOzEC2SpHBOA9Q
QIysg0DixaTBscHbQK3eB0H9dbTBexrEQFING0GTKrTBXfPsQKS6/kBC76rBr93cQCZpJT7L0oXB
/kgCQXANur5PI2vBFesFQXS36j+NoXvBT0TbQGLbsz+8W6zBMS6mQMimbb7fe6bBK7jOQNQwHUE2
3KDBJLvpQIMZe797L67BejfoQCpZQL8re3vBGLfuQCqJuj/K6IXBLsi9QL3CJUHbWKrB2w4LQbGt
bj8yF2vBqu2yQBiwjT/q16fBe7P2QHo5uD7dfa/Bt2HBQFQAo79Ht6nBI6bmQGMrCkH0HKHB+ZnW
QBrnBsAelnvBXWziQDsVGkDuU47BqZj8QNdLfcBVLZbB7brqQKvfoMDBs47BYx73QJCpKMBpFpDB
bd6sQKwd/UDs+YnBhuK+QKqdv0BfAJbBl52NQJ3n30D06oPBfyvKQMkPicDpyYfBQ62eQIqXo0DN
yY/B7BKiQLB9OUEDyKnBfd0aQZAzqj/H8lnBiEgwQIqWS8Cu4orBFCKVQAqmDUBbZ6TB1+udQFiF
hcARKo3ByDyJQJCkgkCOKpfBJ0WqQL9rRkBy3ZvBXb/cQMpoPMDjk4bBK6rOQNr04kAGS4/Bism6
QFwcEEC5NZPBKnx5QJqvvkD7IIvBN87DQPoIIcAQqGvBWbH6QGVpVEAs05DB/JsBQQsFEUHDZo3B
inINQUhm3kDWF5fB0ntmQL9wmEAulJ/B/W6CQMR1VsCboIbBP6IOQe2qJD9c2LPBjXi0QI52I8Dt
k6jBMZv5QIAX/kDElpTB5LbgQKlh/0Bc+LvBfNC2QL6PIUGdcrvBn+v+QCE44UD0IqvBu3PGQFVi
Bb7C+IvBV3AGQc7Ih79wnV7ByCENQe4nNEA27nvBDgflQLa0G0AeZ63BJXqHQKWs6r5q9KLBW1LJ
QG1CJUEOV5nBV7b+QPhS5L8OnLDB2kwPQU2xhMB44JfBjojqQH3re8Boup3B0BjbQE6FusBqSpPB
LycCQU+brsCpuYnB7D8LQTWUD8AXoI3BMNjmQCty8r/JKJXBXDebQBevB0EfEpDBpfS7QF2yCUFW
TYTBsiHaQKG2q0AdgpjBcwCvQOHzzECaHJ3BlHaeQP+N0EBTbHrBYNNlQAMx80Cq0IDBJgPHQLP0
mMAQ9H/BscavQHCWkkC4YInBT5OAQB7ENEHUd6jBd9OsQCutQ0GJIKPBk56kQNRsQkEhVrHB7igr
QcUYiT/uJ1/B/NMZQVV8GkApKFfB4x0XQbgySz/5CkvBsYkKQLjvIsCbd4XBczw0QMYKLcBuzJLB
/jgRQDE7hcB4qIvBV/2MQPcjNUACZqvB1JBvQC2x4j8QE6HBGm2hQCzGbcCkHpXBaNePQDCcpcAa
/43BlF5kQCZLYED8YpLBeonEQMjnakC6ip/B2hyoQNTFwD9Ao5DB4mNRQE0ErEBv/obBZalZQOr0
zEAoFZHB4uxLQNMahEBTJqTB

>  <OMEGA_E>  (4) 
4HkhPXAQAD4=

>  <OMEGA_NBR>  (4) 
      3151

$$$$
50162111
     RDKit          3D

 88 92  0  0  1  0  0  0  0  0999 V2000
    5.9043   10.1151  -22.3407 C   0  0  0  0  0  0  0  0  0  0  0  0
    5.7510   10.6813  -21.0592 C   0  0  0  0  0  0  0  0  0  0  0  0
    6.6272    8.9155  -22.5004 C   0  0  0  0  0  0  0  0  0  0  0  0
    6.3202   10.0502  -19.9367 C   0  0  0  0  0  0  0  0  0  0  0  0
    7.1978    8.2825  -21.3773 C   0  0  0  0  0  0  0  0  0  0  0  0
    6.8982    0.1137  -16.7113 C   0  0  0  0  0  0  0  0  0  0  0  0
    8.1172   -0.4139  -14.6667 C   0  0  0  0  0  0  0  0  0  0  0  0
    8.3711    1.7774  -15.7030 C   0  0  0  0  0  0  0  0  0  0  0  0
    6.9003    1.3518  -21.5202 C   0  0  0  0  0  0  0  0  0  0  0  0
    5.2263   -0.2725  -20.7917 C   0  0  0  0  0  0  0  0  0  0  0  0
    7.3441   -1.0377  -21.7273 C   0  0  0  0  0  0  0  0  0  0  0  0
    7.2365   -0.7984  -15.6935 C   0  0  0  0  0  0  0  0  0  0  0  0
    7.4662    1.4059  -16.7208 C   0  0  0  0  0  0  0  0  0  0  0  0
    8.6761    0.8769  -14.6639 C   0  0  0  0  0  0  0  0  0  0  0  0
    5.6323    1.0642  -20.9676 C   0  0  0  0  0  0  0  0  0  0  0  0
    7.7570    0.2998  -21.8950 C   0  0  0  0  0  0  0  0  0  0  0  0
    6.0764   -1.3209  -21.1798 C   0  0  0  0  0  0  0  0  0  0  0  0
    7.0517    8.8533  -20.0914 C   0  0  0  0  0  0  0  0  0  0  0  0
    6.6722   -2.1493  -15.6942 C   0  0  0  0  0  0  0  0  0  0  0  0
    7.0950    2.3616  -17.7737 C   0  0  0  0  0  0  0  0  0  0  0  0
    7.8723   -4.0358  -18.7171 C   0  0  0  0  0  0  0  0  0  0  0  0
    7.2543   -5.0917  -17.8021 C   0  0  0  0  0  0  0  0  0  0  0  0
    7.7010   -2.7053  -17.9679 C   0  0  0  0  0  0  0  0  0  0  0  0
    5.4044    7.8862  -17.2336 C   0  0  0  0  0  0  0  0  0  0  0  0
    6.0013    5.9830  -18.7634 C   0  0  0  0  0  0  0  0  0  0  0  0
    4.4653    6.9426  -16.4718 C   0  0  0  0  0  0  0  0  0  0  0  0
    6.2530   -4.3160  -16.9466 C   0  0  2  0  0  0  0  0  0  0  0  0
    5.0085    5.0891  -17.9817 C   0  0  2  0  0  0  0  0  0  0  0  0
    9.6577    1.2692  -13.5856 C   0  0  0  0  0  0  0  0  0  0  0  0
    2.6992   -3.1856  -17.3551 C   0  0  0  0  0  0  0  0  0  0  0  0
    4.7054    2.1813  -20.5522 C   0  0  0  0  0  0  0  0  0  0  0  0
    4.8898   -4.1495  -17.6493 C   0  0  0  0  0  0  0  0  0  0  0  0
    4.3351    4.0555  -18.8981 C   0  0  2  0  0  0  0  0  0  0  0  0
    5.3631    3.0671  -19.4800 C   0  0  1  0  0  0  0  0  0  0  0  0
    6.8880   -3.0062  -16.7716 N   0  0  0  0  0  0  0  0  0  0  0  0
    6.4699    7.1128  -17.9351 N   0  0  0  0  0  0  0  0  0  0  0  0
    5.8631    2.2121  -18.3962 N   0  0  0  0  0  0  0  0  0  0  0  0
    3.9429    5.9156  -17.3839 N   0  0  0  0  0  0  0  0  0  0  0  0
    6.0427   -2.5311  -14.7138 O   0  0  0  0  0  0  0  0  0  0  0  0
    7.8513    3.2813  -18.0665 O   0  0  0  0  0  0  0  0  0  0  0  0
    8.1095    9.0793  -17.6586 O   0  0  0  0  0  0  0  0  0  0  0  0
    8.7765    7.0843  -19.0887 O   0  0  0  0  0  0  0  0  0  0  0  0
    3.6467    4.7327  -19.9512 O   0  0  0  0  0  0  0  0  0  0  0  0
    4.0521   -3.2598  -16.8833 O   0  0  0  0  0  0  0  0  0  0  0  0
    8.9700    0.5739  -22.4262 F   0  0  0  0  0  0  0  0  0  0  0  0
    5.6674   -2.5994  -21.0337 F   0  0  0  0  0  0  0  0  0  0  0  0
    7.7521    8.0319  -18.6250 S   0  0  0  0  0  0  0  0  0  0  0  0
    5.4677   10.6006  -23.2009 H   0  0  0  0  0  0  0  0  0  0  0  0
    5.1965   11.6001  -20.9381 H   0  0  0  0  0  0  0  0  0  0  0  0
    6.7439    8.4817  -23.4825 H   0  0  0  0  0  0  0  0  0  0  0  0
    6.1967   10.4831  -18.9550 H   0  0  0  0  0  0  0  0  0  0  0  0
    7.7470    7.3606  -21.4990 H   0  0  0  0  0  0  0  0  0  0  0  0
    6.2032   -0.1757  -17.4857 H   0  0  0  0  0  0  0  0  0  0  0  0
    8.3648   -1.1106  -13.8795 H   0  0  0  0  0  0  0  0  0  0  0  0
    8.8307    2.7545  -15.7211 H   0  0  0  0  0  0  0  0  0  0  0  0
    7.2117    2.3771  -21.6549 H   0  0  0  0  0  0  0  0  0  0  0  0
    4.2615   -0.4915  -20.3585 H   0  0  0  0  0  0  0  0  0  0  0  0
    7.9992   -1.8455  -22.0184 H   0  0  0  0  0  0  0  0  0  0  0  0
    8.9381   -4.2484  -18.8872 H   0  0  0  0  0  0  0  0  0  0  0  0
    7.3458   -4.0057  -19.6825 H   0  0  0  0  0  0  0  0  0  0  0  0
    6.7436   -5.8669  -18.3921 H   0  0  0  0  0  0  0  0  0  0  0  0
    8.0249   -5.5591  -17.1715 H   0  0  0  0  0  0  0  0  0  0  0  0
    8.6820   -2.3057  -17.6714 H   0  0  0  0  0  0  0  0  0  0  0  0
    7.1842   -1.9727  -18.6054 H   0  0  0  0  0  0  0  0  0  0  0  0
    4.8229    8.4544  -17.9746 H   0  0  0  0  0  0  0  0  0  0  0  0
    5.8722    8.5827  -16.5222 H   0  0  0  0  0  0  0  0  0  0  0  0
    6.8677    5.3768  -19.0665 H   0  0  0  0  0  0  0  0  0  0  0  0
    5.4994    6.3786  -19.6587 H   0  0  0  0  0  0  0  0  0  0  0  0
    5.0193    6.4575  -15.6547 H   0  0  0  0  0  0  0  0  0  0  0  0
    3.6274    7.5203  -16.0542 H   0  0  0  0  0  0  0  0  0  0  0  0
    6.1152   -4.8188  -15.9780 H   0  0  0  0  0  0  0  0  0  0  0  0
    5.5571    4.5595  -17.1889 H   0  0  0  0  0  0  0  0  0  0  0  0
   10.6767    1.0009  -13.9014 H   0  0  0  0  0  0  0  0  0  0  0  0
    9.6006    2.3543  -13.4150 H   0  0  0  0  0  0  0  0  0  0  0  0
    9.4108    0.7381  -12.6544 H   0  0  0  0  0  0  0  0  0  0  0  0
    2.1273   -2.4907  -16.7226 H   0  0  0  0  0  0  0  0  0  0  0  0
    2.6927   -2.8251  -18.3944 H   0  0  0  0  0  0  0  0  0  0  0  0
    2.2402   -4.1842  -17.3106 H   0  0  0  0  0  0  0  0  0  0  0  0
    4.4661    2.7971  -21.4316 H   0  0  0  0  0  0  0  0  0  0  0  0
    3.7797    1.7489  -20.1445 H   0  0  0  0  0  0  0  0  0  0  0  0
    5.0455   -3.7300  -18.6542 H   0  0  0  0  0  0  0  0  0  0  0  0
    4.3998   -5.1307  -17.7334 H   0  0  0  0  0  0  0  0  0  0  0  0
    3.6142    3.4829  -18.2960 H   0  0  0  0  0  0  0  0  0  0  0  0
    6.1920    3.6307  -19.9331 H   0  0  0  0  0  0  0  0  0  0  0  0
    5.2731    1.4676  -18.0835 H   0  0  0  0  0  0  0  0  0  0  0  0
    3.3240    5.3189  -16.8730 H   0  0  0  0  0  0  0  0  0  0  0  0
    3.4383    6.3678  -18.1194 H   0  0  0  0  0  0  0  0  0  0  0  0
    3.2297    4.0952  -20.5189 H   0  0  0  0  0  0  0  0  0  0  0  0
  1  2  2  0
  1  3  1  0
  2  4  1  0
  3  5  2  0
  4 18  2  0
  5 18  1  0
  6 12  2  0
  6 13  1  0
  7 12  1  0
  7 14  2  0
  8 13  2  0
  8 14  1  0
  9 15  2  0
  9 16  1  0
 10 15  1  0
 10 17  2  0
 11 16  2  0
 11 17  1  0
 12 19  1  0
 13 20  1  0
 14 29  1  0
 15 31  1  0
 16 45  1  0
 17 46  1  0
 18 47  1  0
 19 35  1  0
 19 39  2  0
 20 37  1  0
 20 40  2  0
 21 22  1  0
 21 23  1  0
 22 27  1  0
 23 35  1  0
 24 26  1  0
 24 36  1  0
 25 28  1  0
 25 36  1  0
 26 38  1  0
 27 32  1  0
 27 35  1  0
 28 33  1  0
 28 38  1  0
 30 44  1  0
 31 34  1  0
 32 44  1  0
 33 34  1  0
 33 43  1  0
 34 37  1  0
 36 47  1  0
 41 47  2  0
 42 47  2  0
  1 48  1  0
  2 49  1  0
  3 50  1  0
  4 51  1  0
  5 52  1  0
  6 53  1  0
  7 54  1  0
  8 55  1  0
  9 56  1  0
 10 57  1  0
 11 58  1  0
 21 59  1  0
 21 60  1  0
 22 61  1  0
 22 62  1  0
 23 63  1  0
 23 64  1  0
 24 65  1  0
 24 66  1  0
 25 67  1  0
 25 68  1  0
 26 69  1  0
 26 70  1  0
 27 71  1  1
 28 72  1  1
 29 73  1  0
 29 74  1  0
 29 75  1  0
 30 76  1  0
 30 77  1  0
 30 78  1  0
 31 79  1  0
 31 80  1  0
 32 81  1  0
 32 82  1  0
 33 83  1  1
 34 84  1  6
 37 85  1  0
 38 86  1  0
 38 87  1  0
 43 88  1  0
M  CHG  1  38   1
M  END
>  <OMEGA_C>  (5) 
bPC8QEnXIUHDubLBigi4QJfmKkEmeajB+xHUQAOmDkHhALTB/D7KQLTNIEFkfp/B/1PmQCaFBEHQ
BKvB+L3cQLTJ6D2ysIXBJ+ABQU7s077gqmrBCvAFQV2A4z9MP3vBNc/cQC0GrT90KazBrD2nQNCG
i75iVabB9QLrQJjShL+N0a3BMZHnQHBhTL+2GHvBXuvuQO/1sz8zxIXBLdEKQQR9YD9dn2rBBjy0
QAI3iD+ivafBhDn4QJeEmT7uKK/B0HHCQCcSqb9HcKnBiafhQB+nDUE/u6DBTILVQGyNCcCJG3vB
dwrjQK0jF0B0MI7BNOr7QPQkgcC5vJXBoCPoQC7vosC6ao7BOG72QBgjLcBOvo/BEvGsQHJb/EB+
3onBfwrAQNZ0v0CEG5bBeuOOQPkp3kAtxoPBrRjIQIMcisCOkofBe0WgQDjaokBu2o/B8IUaQblz
oj9vXlnBi78sQEHgS8BU14rBXJKWQKaZC0DaaqTBJHmcQHnIhMC5MY3BR7mKQIzGgUBQL5fB1p6r
QPJKREAN15vB1mrcQDpmQMAnLIbBsQnPQPWb40Ahe4/BWp67QISSDUBeK5PBs1d8QHxMvUA9EovB
GV7BQE79IcCra2vBND77QH0AUkAxiJDBZsABQfREEUHdRI3BfWwMQZmy4kCatZjB5WJpQGZyl0Aa
nJ/BLauBQPSfUMD+EIfBRYUPQYjoEj/FaLPBe1u1QGpcJsD7RKjBNBH4QI2CAEEIAJXBO/euQPib
KUGCm7nBjUmmQASaOUE2gafB2M3XQOm0B0FA3LvBYkvGQLG6J0HRo5fBsOf3QB6K60D0/avB9IDG
QGfwM76t4ovBJNYFQTQnjr9AEl7BhkoNQQVKMECRiXvBN8bmQPQhGEBSPa3BT16IQPCm+74t3qLB
Xfn/QKQ47L+vJbDBcwIPQTXzh8ALGZfBFhHrQMougMDAdZ3BO8vXQOy9u8AMI5PBMGYAQTzkscAv
X4nBhOkKQWSRE8ARX43B4uTlQP+C/L/Z15TBVlWaQB5FB0Hsy4/B8+i7QKFSCUGRLYTBDcTbQMMO
rEA7iJjBs/qvQI8dzEAaRZ3Bgp6gQHKjzkCieXrB/idoQEKm8EANb4DBGrDDQMczmsDBpX/B/dOx
QGrnkUDbgonBp9MqQRMegD8FbF7B3JsZQaetFkDOo1bBw5IWQTH2PD9ieErBlCUIQAtoH8DXx4XB
/1QsQDLONMCwJ5PB6F4PQBvlhcAJfIrBL+qOQDIEM0D5c6vBo+ZxQMTb3z/nJ6HBznShQOm4bsDC
O5XBAsuMQLsupMAB3o3BdU9nQCDoXkBKXpLBxiTGQIxdaEAOd5/Bbb2oQFHbuz8Dq5DBlLxUQNA0
qkDY+4bB2QxcQO/Ey0B99JDBdLNOQOcLg0ClJqTBO5y8QI7eIUEtjLLBWR/UQMzODkEE4bPB55u3
QL/PKkHBRajBWKDmQGitBEGE7KrBtBHKQMe2IEHLUp/BIincQDRY5z1cloXB47ABQUiI0b5qgGrB
FpcFQSoc5D8wHHvB9G7cQMABrT8r96vBipemQO3bjb6tYKbBR0PqQOKWhL/r9K3B7TznQMR4TL9J
63rBykHuQJrvsz9QsIXBq4YKQbBeYj+UdmrB59GzQG+7hz8JlKfBBbD3QG3Lmj7mG6/BUZrBQHhJ
qb8vpanBmMzhQBKsDUHRm6DBsc7VQFsfCsA9CHvBVojiQHuqFkB8K47Bz5j8QKFRf8CB4ZXBYgzp
QMYcosDjso7BSSH1QAF5KsDc94/BTLCtQKEe/ED5konBSCPAQO2Av0BvCpbBKMWOQGgE3kAWuYPB
UeLIQCEkisD1sYfB17SfQFo9o0BU6I/Bd0IaQdi7oz96P1nBieItQPA0TMB/wIrBcgeWQHIeC0Cj
QKTBMeWcQE1FhcBFKY3BSyiKQERRgkAkR5fB/v6qQP2ARECvv5vBC5TcQBL0P8D0PYbBiXLPQEZp
40DnWI/BwaK6QO+XDkA89JLB8aJ7QHIwvkCWQIvBOs7CQFNCJMCvKWvBd3z7QFl4T0ADzJDBmukB
QRk7EUEcKY3BjpUMQTW24kAno5jB+dppQLkCmEC605/BpcOBQJ1qVMA0uobBwTsPQfxuFD98XbPB
TTS0QK9+JsBKuajB62D4QE16AEED5ZTBg2uuQFOgKUGiZ7nBiPbXQBj3B0EgwbvB95mlQOJrOUEw
Q6fBRoL4QPAP7EDz8KvBXA/GQOqOJ0EfdJfBrMrFQK3fNb7iv4vB27cFQahejb/r513BWuMMQfyx
MEC0bXvBwYvmQForGEC556zBn66HQGh6/77f8aLBFCP/QIm667/GYLDBS4UPQR9mhcBo/ZbBKqLs
QAWDfsAnuZ3BONDYQJilusDNh5PBiu4AQfRNscAIv4nBMPQJQZQJDcD+zI3B+sziQJ0l/L8pCJXB
M5qbQMSyB0GlYo/Bdwa9QHqyCEFitIPB36zbQCu9q0DhaZjB5oywQL1+zEA/O53Be+GfQDaTzUBe
cnrBxFNoQP+58EDVW4DBHCHFQCijmsDY9H/BKrqwQF8mkkCKf4nB8o8qQbPGgT/3V17Bi00ZQZRO
F0CVg1bBTF8WQdpPPz8pV0rB5bcIQKQuIsCPb4XBSrIvQONzMMAI1pLBpJgPQHTahcA8EovBdRSO
QCIfMkDJTavBuidxQGZa3j987qDB+SWhQJWJbcDfG5XBDfSNQB/0pMC4Bo7BVSllQDy+YEDuhpLB
n7fFQODaZ0DWZJ/ByCenQK+UwT8MN5DBni5SQGthq0DVX4fBaFxdQDh9zUAiLJHBuDdPQNmkg0DN
YaTB

>  <OMEGA_E>  (5) 
wAp3PSA+bz0=

>  <OMEGA_NBR>  (5) 
      6218

$$$$
50162114
     RDKit          3D

 88 92  0  0  1  0  0  0  0  0999 V2000
    5.7536   10.7205  -20.9806 C   0  0  0  0  0  0  0  0  0  0  0  0
    6.3345   10.0782  -19.8712 C   0  0  0  0  0  0  0  0  0  0  0  0
    5.8846   10.1613  -22.2670 C   0  0  0  0  0  0  0  0  0  0  0  0
    6.9019    0.1165  -16.7104 C   0  0  0  0  0  0  0  0  0  0  0  0
    8.1435   -0.4028  -14.6763 C   0  0  0  0  0  0  0  0  0  0  0  0
    8.3797    1.7867  -15.7202 C   0  0  0  0  0  0  0  0  0  0  0  0
    6.8825    1.3244  -21.5187 C   0  0  0  0  0  0  0  0  0  0  0  0
    5.1798   -0.2813  -20.8154 C   0  0  0  0  0  0  0  0  0  0  0  0
    7.2925   -1.0692  -21.7437 C   0  0  0  0  0  0  0  0  0  0  0  0
    7.1715    8.3091  -21.3336 C   0  0  0  0  0  0  0  0  0  0  0  0
    7.2538   -0.7929  -15.6934 C   0  0  0  0  0  0  0  0  0  0  0  0
    7.4657    1.4109  -16.7291 C   0  0  0  0  0  0  0  0  0  0  0  0
    8.6982    0.8896  -14.6818 C   0  0  0  0  0  0  0  0  0  0  0  0
    5.6078    1.0506  -20.9756 C   0  0  0  0  0  0  0  0  0  0  0  0
    7.7267    0.2637  -21.8955 C   0  0  0  0  0  0  0  0  0  0  0  0
    6.0158   -1.3388  -21.2094 C   0  0  0  0  0  0  0  0  0  0  0  0
    7.0505    8.8746  -20.0442 C   0  0  0  0  0  0  0  0  0  0  0  0
    6.5954    8.9573  -22.4442 C   0  0  0  0  0  0  0  0  0  0  0  0
    6.6937   -2.1467  -15.6832 C   0  0  0  0  0  0  0  0  0  0  0  0
    7.0877    2.3628  -17.7859 C   0  0  0  0  0  0  0  0  0  0  0  0
    7.8362   -4.0370  -18.7249 C   0  0  0  0  0  0  0  0  0  0  0  0
    7.2359   -5.0900  -17.7957 C   0  0  0  0  0  0  0  0  0  0  0  0
    7.6884   -2.7064  -17.9715 C   0  0  0  0  0  0  0  0  0  0  0  0
    5.4077    7.8685  -17.2123 C   0  0  0  0  0  0  0  0  0  0  0  0
    5.9999    5.9888  -18.7750 C   0  0  0  0  0  0  0  0  0  0  0  0
    4.4604    6.9167  -16.4720 C   0  0  0  0  0  0  0  0  0  0  0  0
    6.2460   -4.3120  -16.9301 C   0  0  2  0  0  0  0  0  0  0  0  0
    5.0035    5.0881  -18.0068 C   0  0  2  0  0  0  0  0  0  0  0  0
    9.6876    1.2880  -13.6119 C   0  0  0  0  0  0  0  0  0  0  0  0
    2.6870   -3.1885  -17.2956 C   0  0  0  0  0  0  0  0  0  0  0  0
    4.6922    2.1771  -20.5647 C   0  0  0  0  0  0  0  0  0  0  0  0
    4.8737   -4.1508  -17.6149 C   0  0  0  0  0  0  0  0  0  0  0  0
    4.3311    4.0631  -18.9310 C   0  0  2  0  0  0  0  0  0  0  0  0
    5.3569    3.0655  -19.4990 C   0  0  1  0  0  0  0  0  0  0  0  0
    6.8804   -2.9993  -16.7694 N   0  0  0  0  0  0  0  0  0  0  0  0
    6.4718    7.1032  -17.9251 N   0  0  0  0  0  0  0  0  0  0  0  0
    5.8531    2.2147  -18.4063 N   0  0  0  0  0  0  0  0  0  0  0  0
    3.9380    5.9098  -17.4052 N   0  0  0  0  0  0  0  0  0  0  0  0
    6.0996   -2.5372  -14.6843 O   0  0  0  0  0  0  0  0  0  0  0  0
    7.8463    3.2773  -18.0892 O   0  0  0  0  0  0  0  0  0  0  0  0
    8.1140    9.0640  -17.6152 O   0  0  0  0  0  0  0  0  0  0  0  0
    8.7775    7.0920  -19.0794 O   0  0  0  0  0  0  0  0  0  0  0  0
    3.6586    4.7471  -19.9911 O   0  0  0  0  0  0  0  0  0  0  0  0
    4.0431   -3.2686  -16.8332 O   0  0  0  0  0  0  0  0  0  0  0  0
    8.9487    0.5257  -22.4116 F   0  0  0  0  0  0  0  0  0  0  0  0
    5.5841   -2.6123  -21.0832 F   0  0  0  0  0  0  0  0  0  0  0  0
    7.7547    8.0319  -18.5972 S   0  0  0  0  0  0  0  0  0  0  0  0
    6.7619    8.2700  -24.0407 Cl  0  0  0  0  0  0  0  0  0  0  0  0
    5.2073   11.6423  -20.8457 H   0  0  0  0  0  0  0  0  0  0  0  0
    6.2321   10.5074  -18.8855 H   0  0  0  0  0  0  0  0  0  0  0  0
    5.4400   10.6557  -23.1180 H   0  0  0  0  0  0  0  0  0  0  0  0
    6.1997   -0.1769  -17.4767 H   0  0  0  0  0  0  0  0  0  0  0  0
    8.4012   -1.0968  -13.8899 H   0  0  0  0  0  0  0  0  0  0  0  0
    8.8360    2.7653  -15.7448 H   0  0  0  0  0  0  0  0  0  0  0  0
    7.2087    2.3463  -21.6447 H   0  0  0  0  0  0  0  0  0  0  0  0
    4.2093   -0.4895  -20.3899 H   0  0  0  0  0  0  0  0  0  0  0  0
    7.9380   -1.8840  -22.0368 H   0  0  0  0  0  0  0  0  0  0  0  0
    7.7056    7.3801  -21.4677 H   0  0  0  0  0  0  0  0  0  0  0  0
    8.8967   -4.2542  -18.9204 H   0  0  0  0  0  0  0  0  0  0  0  0
    7.2869   -4.0045  -19.6774 H   0  0  0  0  0  0  0  0  0  0  0  0
    6.7185   -5.8699  -18.3738 H   0  0  0  0  0  0  0  0  0  0  0  0
    8.0173   -5.5518  -17.1743 H   0  0  0  0  0  0  0  0  0  0  0  0
    8.6769   -2.3207  -17.6816 H   0  0  0  0  0  0  0  0  0  0  0  0
    7.1767   -1.9655  -18.6034 H   0  0  0  0  0  0  0  0  0  0  0  0
    4.8321    8.4541  -17.9443 H   0  0  0  0  0  0  0  0  0  0  0  0
    5.8767    8.5486  -16.4860 H   0  0  0  0  0  0  0  0  0  0  0  0
    6.8640    5.3840  -19.0875 H   0  0  0  0  0  0  0  0  0  0  0  0
    5.5002    6.4012  -19.6639 H   0  0  0  0  0  0  0  0  0  0  0  0
    5.0079    6.4140  -15.6612 H   0  0  0  0  0  0  0  0  0  0  0  0
    3.6233    7.4909  -16.0482 H   0  0  0  0  0  0  0  0  0  0  0  0
    6.1222   -4.8106  -15.9574 H   0  0  0  0  0  0  0  0  0  0  0  0
    5.5490    4.5514  -17.2166 H   0  0  0  0  0  0  0  0  0  0  0  0
   10.7049    1.0230  -13.9354 H   0  0  0  0  0  0  0  0  0  0  0  0
    9.6277    2.3733  -13.4431 H   0  0  0  0  0  0  0  0  0  0  0  0
    9.4503    0.7580  -12.6776 H   0  0  0  0  0  0  0  0  0  0  0  0
    2.1196   -2.5001  -16.6519 H   0  0  0  0  0  0  0  0  0  0  0  0
    2.6740   -2.8168  -18.3308 H   0  0  0  0  0  0  0  0  0  0  0  0
    2.2275   -4.1872  -17.2588 H   0  0  0  0  0  0  0  0  0  0  0  0
    4.4562    2.7894  -21.4475 H   0  0  0  0  0  0  0  0  0  0  0  0
    3.7639    1.7545  -20.1528 H   0  0  0  0  0  0  0  0  0  0  0  0
    5.0138   -3.7264  -18.6200 H   0  0  0  0  0  0  0  0  0  0  0  0
    4.3876   -5.1342  -17.6967 H   0  0  0  0  0  0  0  0  0  0  0  0
    3.5984    3.4970  -18.3372 H   0  0  0  0  0  0  0  0  0  0  0  0
    6.1891    3.6208  -19.9563 H   0  0  0  0  0  0  0  0  0  0  0  0
    5.2590    1.4764  -18.0869 H   0  0  0  0  0  0  0  0  0  0  0  0
    3.3110    5.3087  -16.9098 H   0  0  0  0  0  0  0  0  0  0  0  0
    3.4427    6.3778  -18.1371 H   0  0  0  0  0  0  0  0  0  0  0  0
    3.2423    4.1135  -20.5635 H   0  0  0  0  0  0  0  0  0  0  0  0
  1  2  2  0
  1  3  1  0
  2 17  1  0
  3 18  2  0
  4 11  2  0
  4 12  1  0
  5 11  1  0
  5 13  2  0
  6 12  2  0
  6 13  1  0
  7 14  2  0
  7 15  1  0
  8 14  1  0
  8 16  2  0
  9 15  2  0
  9 16  1  0
 10 17  2  0
 10 18  1  0
 11 19  1  0
 12 20  1  0
 13 29  1  0
 14 31  1  0
 15 45  1  0
 16 46  1  0
 17 47  1  0
 18 48  1  0
 19 35  1  0
 19 39  2  0
 20 37  1  0
 20 40  2  0
 21 22  1  0
 21 23  1  0
 22 27  1  0
 23 35  1  0
 24 26  1  0
 24 36  1  0
 25 28  1  0
 25 36  1  0
 26 38  1  0
 27 32  1  0
 27 35  1  0
 28 33  1  0
 28 38  1  0
 30 44  1  0
 31 34  1  0
 32 44  1  0
 33 34  1  0
 33 43  1  0
 34 37  1  0
 36 47  1  0
 41 47  2  0
 42 47  2  0
  1 49  1  0
  2 50  1  0
  3 51  1  0
  4 52  1  0
  5 53  1  0
  6 54  1  0
  7 55  1  0
  8 56  1  0
  9 57  1  0
 10 58  1  0
 21 59  1  0
 21 60  1  0
 22 61  1  0
 22 62  1  0
 23 63  1  0
 23 64  1  0
 24 65  1  0
 24 66  1  0
 25 67  1  0
 25 68  1  0
 26 69  1  0
 26 70  1  0
 27 71  1  1
 28 72  1  1
 29 73  1  0
 29 74  1  0
 29 75  1  0
 30 76  1  0
 30 77  1  0
 30 78  1  0
 31 79  1  0
 31 80  1  0
 32 81  1  0
 32 82  1  0
 33 83  1  1
 34 84  1  6
 37 85  1  0
 38 86  1  0
 38 87  1  0
 43 88  1  0
M  CHG  1  38   1
M  END
>  <OMEGA_C>  (6) 
ux24QDKHK0FO2KfBOLTKQG9AIUFD+J7Bz068QNqUIkHBIrLBJNzcQGSW7j3UroXB+ksCQY07zr4U
0mrBXhMGQe2z5D/IhXvBVj3cQASHqT9dJqzBKMGlQIACkL4AhqbB4FvpQMfciL8P863BTX3lQB3y
BEEmq6rBGR/oQOr6Sr8+GHvBHOfuQJWXtD9G1YXBACwLQbq8Yz+s6GrB03KzQKB4hj/yzafBuUD3
QIcChz7oKa/Bk4HAQD1cq7/RrKnBpZ3hQHn+DUGNWqDB5w3TQCJRD0G9jbPBIDPWQG5jCcBh7nrB
uc7iQNg4F0BwSY7BP8L6QGUvgcCVzJXBkIznQFLhosCiXY7BMwf2QPA0LcCwxY/BlQutQPLK+0DX
sonBO/+/QB6kv0AqM5bBNLuOQG1V3UCzxoPB597HQET8icDVcIfBnBygQB3SokDaDZDBNgAbQV3d
pD85ylnBHvcrQOgPTMBbXYrBQSaWQAtWC0BphKTB//SbQEzThMBd64zBQJiKQBkFgkDCcpfBIGyr
QGMwREAG/pvBNSzcQKb0P8DEJ4bB+RjPQAdN40CBZo/BRky7QJq9DUAZQJPB7gh8QGodvUDdPYvB
GDDDQCphIsC48mrBIxX7QDS/UUCWtpDB+NIBQTYGEUHZ64zBnHAMQbfx4kCVopjBTidqQEPol0C2
7Z/B+WCBQH8xUcBpqobBDi4PQZKWBj/7SrPB/rCyQLMvJ8BpqqjB0Sb4QKuCAEESx5TB5GHYQAlS
BEFYU8DBOKKmQO9GOkEUxKbB/mzHQF8eKEFxFZfBUhSuQMB9KkG68bjBT2TGQMsoNb5c0IvBL2sG
Qb1ijL/vPF7BZGANQbT6MECG6nvBVa3mQEkpFkBLKK3BY7KGQKSd+r6FHqPBGAT+QLMl8b9US7DB
jZT2QGQp7EDwvavB1FgOQZAiiMD8XJfBpS7pQL8kgMBKa53BK/7WQNvVu8B+/ZLB0UYAQZeoscD3
ZInBqNQKQWOGFMDnc43BPqflQCqV+7/F05TBQ6CaQBVEB0HjjY/B+w28QBfHCEFq44PBrKXbQBxK
rEA+s5jBswGwQHbWzEC8T53Bn0CgQBc/zUAtlHrBf+RnQJm170C0YoDBAOnDQEPwmcB8UX/BMJGx
QP6kkUCeu4nBYkcrQR3wgj+J917B9QoaQa7kF0D8FlfBbjQXQdkNQj+E10rBSagHQJ4BIMAjN4XB
ZCMrQApHNMCHpZLBaY8OQOf9hcAAEorBZ5mOQN6FMkB9lKvB9+JwQAGT4D/8OKHBQXGgQPB8bsDO
9ZTBWmeMQFVLpMDKko3BkExmQELOX0CIspLBHQ3GQL+7Z0B4pp/Bf0moQEH8vD/fsZDB++dTQIvg
qUA/R4fBEVVcQFMXzECuGJHBq4FPQHahg0D8gaTB

>  <OMEGA_E>  (6) 
oM09PQ==

>  <OMEGA_NBR>  (6) 
      7980

$$$$
50162119
     RDKit          3D

 60 62  0  0  1  0  0  0  0  0999 V2000
    5.6893   10.9048  -20.8268 C   0  0  0  0  0  0  0  0  0  0  0  0
    5.7571   10.3897  -22.1358 C   0  0  0  0  0  0  0  0  0  0  0  0
    6.2932   10.2076  -19.7644 C   0  0  0  0  0  0  0  0  0  0  0  0
    6.8591    1.3924  -21.6646 C   0  0  0  0  0  0  0  0  0  0  0  0
    5.2277   -0.2477  -20.8742 C   0  0  0  0  0  0  0  0  0  0  0  0
    7.0392    8.4788  -21.3198 C   0  0  0  0  0  0  0  0  0  0  0  0
    7.2987   -0.9918  -21.9233 C   0  0  0  0  0  0  0  0  0  0  0  0
    6.4178    9.1667  -22.3824 C   0  0  0  0  0  0  0  0  0  0  0  0
    5.6252    1.0914  -21.0512 C   0  0  0  0  0  0  0  0  0  0  0  0
    7.6960    0.3496  -22.0994 C   0  0  0  0  0  0  0  0  0  0  0  0
    6.0642   -1.2887  -21.3098 C   0  0  0  0  0  0  0  0  0  0  0  0
    6.9799    8.9992  -20.0094 C   0  0  0  0  0  0  0  0  0  0  0  0
    7.0195    2.1017  -17.6759 C   0  0  0  0  0  0  0  0  0  0  0  0
    5.3847    7.8883  -17.2672 C   0  0  0  0  0  0  0  0  0  0  0  0
    6.0525    5.9707  -18.7719 C   0  0  0  0  0  0  0  0  0  0  0  0
    4.4554    6.9353  -16.5139 C   0  0  0  0  0  0  0  0  0  0  0  0
    5.0444    5.0826  -17.9992 C   0  0  2  0  0  0  0  0  0  0  0  0
    6.5277    8.6340  -23.7942 C   0  0  0  0  0  0  0  0  0  0  0  0
    7.3414    0.9755  -16.6842 C   0  0  0  0  0  0  0  0  0  0  0  0
    4.7324    2.1995  -20.5731 C   0  0  0  0  0  0  0  0  0  0  0  0
    4.3820    4.0376  -18.9042 C   0  0  2  0  0  0  0  0  0  0  0  0
    5.3999    3.0045  -19.4373 C   0  0  1  0  0  0  0  0  0  0  0  0
    6.4750    7.1353  -17.9540 N   0  0  0  0  0  0  0  0  0  0  0  0
    5.7965    2.0792  -18.3460 N   0  0  0  0  0  0  0  0  0  0  0  0
    3.9607    5.9099  -17.4370 N   0  0  0  0  0  0  0  0  0  0  0  0
    7.8869    2.9213  -17.9572 O   0  0  0  0  0  0  0  0  0  0  0  0
    8.1214    9.0823  -17.6126 O   0  0  0  0  0  0  0  0  0  0  0  0
    8.7414    7.1820  -19.1877 O   0  0  0  0  0  0  0  0  0  0  0  0
    3.7201    4.7123  -19.9810 O   0  0  0  0  0  0  0  0  0  0  0  0
    8.8803    0.6367  -22.6846 F   0  0  0  0  0  0  0  0  0  0  0  0
    5.6838   -2.5729  -21.1305 F   0  0  0  0  0  0  0  0  0  0  0  0
    7.7331    8.0944  -18.6285 S   0  0  0  0  0  0  0  0  0  0  0  0
    5.1737   11.8349  -20.6386 H   0  0  0  0  0  0  0  0  0  0  0  0
    5.3028   10.9312  -22.9523 H   0  0  0  0  0  0  0  0  0  0  0  0
    6.2312   10.5980  -18.7593 H   0  0  0  0  0  0  0  0  0  0  0  0
    7.1601    2.4208  -21.7998 H   0  0  0  0  0  0  0  0  0  0  0  0
    4.2819   -0.4739  -20.4045 H   0  0  0  0  0  0  0  0  0  0  0  0
    7.5613    7.5524  -21.5092 H   0  0  0  0  0  0  0  0  0  0  0  0
    7.9407   -1.7929  -22.2586 H   0  0  0  0  0  0  0  0  0  0  0  0
    4.8014    8.4423  -18.0175 H   0  0  0  0  0  0  0  0  0  0  0  0
    5.8303    8.5965  -16.5532 H   0  0  0  0  0  0  0  0  0  0  0  0
    6.9382    5.3704  -19.0269 H   0  0  0  0  0  0  0  0  0  0  0  0
    5.5773    6.3336  -19.6953 H   0  0  0  0  0  0  0  0  0  0  0  0
    5.0086    6.4549  -15.6934 H   0  0  0  0  0  0  0  0  0  0  0  0
    3.6057    7.4997  -16.1021 H   0  0  0  0  0  0  0  0  0  0  0  0
    5.5775    4.5663  -17.1873 H   0  0  0  0  0  0  0  0  0  0  0  0
    7.4337    9.0380  -24.2696 H   0  0  0  0  0  0  0  0  0  0  0  0
    6.5862    7.5358  -23.7680 H   0  0  0  0  0  0  0  0  0  0  0  0
    5.6430    8.9404  -24.3715 H   0  0  0  0  0  0  0  0  0  0  0  0
    8.3825    1.0732  -16.3429 H   0  0  0  0  0  0  0  0  0  0  0  0
    6.6644    1.0436  -15.8199 H   0  0  0  0  0  0  0  0  0  0  0  0
    7.2076    0.0022  -17.1790 H   0  0  0  0  0  0  0  0  0  0  0  0
    4.5181    2.8756  -21.4140 H   0  0  0  0  0  0  0  0  0  0  0  0
    3.7917    1.7671  -20.2014 H   0  0  0  0  0  0  0  0  0  0  0  0
    3.6363    3.4951  -18.3046 H   0  0  0  0  0  0  0  0  0  0  0  0
    6.2826    3.5299  -19.8307 H   0  0  0  0  0  0  0  0  0  0  0  0
    5.1334    1.3838  -18.0692 H   0  0  0  0  0  0  0  0  0  0  0  0
    3.3261    5.3146  -16.9442 H   0  0  0  0  0  0  0  0  0  0  0  0
    3.4793    6.3609  -18.1885 H   0  0  0  0  0  0  0  0  0  0  0  0
    3.3057    4.0732  -20.5487 H   0  0  0  0  0  0  0  0  0  0  0  0
  1  2  2  0
  1  3  1  0
  2  8  1  0
  3 12  2  0
  4  9  2  0
  4 10  1  0
  5  9  1  0
  5 11  2  0
  6  8  2  0
  6 12  1  0
  7 10  2  0
  7 11  1  0
  8 18  1  0
  9 20  1  0
 10 30  1  0
 11 31  1  0
 12 32  1  0
 13 19  1  0
 13 24  1  0
 13 26  2  0
 14 16  1  0
 14 23  1  0
 15 17  1  0
 15 23  1  0
 16 25  1  0
 17 21  1  0
 17 25  1  0
 20 22  1  0
 21 22  1  0
 21 29  1  0
 22 24  1  0
 23 32  1  0
 27 32  2  0
 28 32  2  0
  1 33  1  0
  2 34  1  0
  3 35  1  0
  4 36  1  0
  5 37  1  0
  6 38  1  0
  7 39  1  0
 14 40  1  0
 14 41  1  0
 15 42  1  0
 15 43  1  0
 16 44  1  0
 16 45  1  0
 17 46  1  1
 18 47  1  0
 18 48  1  0
 18 49  1  0
 19 50  1  0
 19 51  1  0
 19 52  1  0
 20 53  1  0
 20 54  1  0
 21 55  1  1
 22 56  1  6
 24 57  1  0
 25 58  1  0
 25 59  1  0
 29 60  1  0
M  CHG  1  25   1
M  END
>  <OMEGA_C>  (7) 
mw62QPt5LkFdnabBEzq4QAo8JkEMFrHBNGLJQHhSI0F9HZ7Bkn3bQMo6sj8KUa3Bm0mnQD+efb5S
/qbBgUHhQPeoB0ENj6rB1I7pQGbpfb/RYq/BR17NQN+qEkE5D7PBvQG0QEayiz/uaKjBwEX2QEcF
sz6Fy7DB2w3CQAzzpL+QeqrBpFvfQJz8D0FZE6DBmJ/gQN2CBkBGaI3BKE+sQAxt/EA6I4rBrK3B
QBAQv0DvLJbBdZKOQMnt3UBmHITBjWuhQIakokBW/o/BQuPQQLskCkFzWr7BWezqQMq4eT9LeYXB
eG+XQF3EDEDElaTBqTmMQEQ0gUDYO5fBrMusQJRJQECAf5vBQzPPQDNU5EC5oY/BGH25QGMSBUCz
xJLBFHx9QM4dvUDyfovBh2H8QDT2OkBRqI/BGPEBQTtREUGX5ozBz9wLQTDT5UB2gJnBiBZuQFTL
lkAV2Z/ByxUOQQj+Ij8jerXBh+G1QDSrJMBCC6nBtnX3QNWCAUElB5XBB4+lQMtbPUHOG6XB0bCp
QCDmLkFnnrfBXWbHQHKRKUEbE5bBjx/lQMjtGkAKZq7BVwWJQGGk8r5hPKPB1PXxQIWt8UC+EqzB
Ohr+QBB/5b+bEbLBHKWZQIITB0HWI5DBopG6QGOLCUHfbITBEgbeQGnaq0AiN5jBMnmyQD+tykDg
j53BDkagQFCOzkAOGHvBtsNmQCr970Av0YDBRHuyQCofkkCPf4nBm+DtQNWbEEEZKMLBS8LSQI4l
8UDiJL7BjZO0QNoLD0Hn+MLBrR4GQaFdiT9OvoLBeELVQJ6ThT9THn3Br6TmQI8rDTt/bonBeJSQ
QLAJOEDGT6vBt6pyQFAw4j+OnKHBlrloQMGvX0DEb5LBwwrJQArqYUA2pZ7BjkSkQLwhsT+6jZDB
Hd5UQDIRqkCsjYfBlaxeQKWMy0AZgpHBKpFTQHtXgkC5Y6TBZiTQQL8iEUFeN7PBsDq6QKZ3JEFV
RLHBEpbjQC4OBkH6q6rBOn3ZQHT+tD/kxq3BwSapQKlHiL6wUabBZqLKQKx+IUGzQp7BGr3qQJIC
db8uUq/BSfa3QOTELEGqxqbBIWizQBuGij/XUqjBgTr1QP5zyT4EO7HBX8bEQKh4pL/k0anB4+/g
QNxYDkHIKqDBKpLkQBlFDkAFio7BBBysQL5W/EA4B4rBSu6/QLQJv0C5HZbBiqmNQHxg3kA4AITB
NeyfQMinokDi6o/Bh9qfQLsvQUG1eqTBHiHwQM94oT95b4XBDv+VQPK5CkBsZaTBn/mKQBA9gUCo
PpfB3umrQAnpQUAFvpvBDIrOQIZW40DZeY/BusO7QAP6CUAUBJPBzeV6QBhLvUBzUYvBdLr9QNQs
R0C8/5DBER4CQelwEEGN54zBm+4LQVpp4kCMA5nBnNhqQFLilkBAyJ/B8BcNQVb1NT8RP7bBizG7
QJrgJMACtafB+tL3QA1NAEHt3pTBcAnSQITRCkGGPrvB4S6rQDfsLEG/y7fBoHb0QGyJ7kBAJqzB
c1LhQH62HECuS6/BiRaMQE1RBL+QGKLB1tjHQBeRJ0GbM5bB1M3/QEPZ3r8tE7LBueSZQD0yB0FA
DpDBMMa6QKpgCUGzUYTBwcjbQG6Zq0AQbZjB7zmwQF6Hy0CgWJ3BiPCeQKULz0CkuHrBFkRlQG/3
8EBqz4DBRCGxQFYGkkDHdonBaVF8QDBrPUFHxKLBWS2uQPE3SUEUhJ3BV6mhQM/OS0FMe6vBbtkH
Qbuewz8mLoLBpezXQJvJqj9DJX7BCA3xQFs5bT76hIjBhwGNQHLhM0BHLKvBzSpyQG+M2j8F/KDB
av5mQAh1XkCGepLBsLfGQLMyZUDgW5/BWqynQJq3uz/yH5DB0LhSQJxQqkDlSIfBpG5bQDGby0Ca
S5HB0LNQQE9ygkCuXKTBp+S1QIGzLkEKp6bBTna4QNmbJkGyJbHBOgjJQL52I0EWJ57B/5ynQA6F
bL7uSKfBF3bcQH0AtD8nUK3B6SrhQBTrB0HtoKrBYlTpQJDweb8v76/BAaXNQKEPE0F2I7PBXO20
QD+YjT+sb6jBJcTBQKzIor9/DKvBfaj2QAVCuj7kD7HBExffQGEoEEFIIaDBUu/fQMvAAUAnMo3B
OFCsQBDK/EAvL4rB69TBQI09v0DBKZbBKYyOQIVT3kCHKITB1amhQK/cokDE8I/Bxa/RQOG6CkEV
db7BqLDpQDDHWD+8vIXBgIOYQKK0DUC0j6TBGqSMQEcbgUBYHJfBPlatQILaP0C7SJvBTj3PQGKv
5ED+qY/BeOa4QHpVA0CMmZLBgr59QHBnvUBkh4vB/e37QFPANkBZBo/B6vMBQXCCEUEO/IzBMs0L
QbE15kA5mJnBxOJuQKFtlkC7xJ/B3da0QLJ1I8A286nB0T0OQcaBJj8WyLXBAWD3QP+xAUEQGZXB
BzylQPeHPUHTIKXBVzOqQLBfL0Elr7fB9NbGQLCfKUFTGZbB+luJQFty6b4ehKPBp5XmQHO8G0Bz
Kq7BFrvxQIEe8kDdJazBYnL9QIZ847/S0LLBt6yZQL0+B0FGMpDBTYu6QPa8CUEzeYTBwjveQO4S
rEDZLZjBlpayQOenykBgkJ3BkS+gQIcQz0CVInvBV5JmQJli8EDE5oDBubuyQA6nkkDVZYnB7Nru
QD9BEUHmJcLB8onTQC1Q8kBfUb7BaZi1QHy3D0EvI8PBGXUFQVYxaz9t44LB+MPTQGdkXz8qtn3B
IF/lQEBvx70XH4rBdUeSQDr1OUDDOavBuDd0QKhK5D8FxaHBwo9pQCe6X0BHSZLBTAfKQBk3YUBr
N57BpOaiQElTsD+pcpDBBO1UQJZtqkDImIfBQjxfQDW8y0CQlJHB4IJUQJPTgUD3R6TBCDTSQPT7
DUEu4LPBAp+6QDz4IEHvXLLBMv3lQHTyA0ESEKvBZlWsQJgp3b1xQKnBqZ/fQHyI1T8qQK3BH97K
QK77H0HpSZ/BEPDxQL8SKL9b57DBNVu3QJwUKkHxDqjB4Fy3QDrVoD9CTKnBm4bJQJ4IiL8OFq3B
bAH9QPS0NT9k97DB8V/iQGoJDUGKvaDBTs/hQGpzDUBX4o3BlmSsQN8i/UCdT4rBbhPAQErLvkC6
/5XBrvONQI/M30CnFYTBze6fQNfhokBUr4/BTdqcQL7sPUGsNqbBvuPuQIbGiT8KTobBqRmYQH01
EUBVAaXBQseKQJE0gUAG65bB9yKsQLHTQ0CmrZvBmMLOQJl+40B1kI/BQfi6QDFlB0CXUpPBNi97
QKfvvUDbKYvB4jj7QHRgR0Ccu4/BpToCQbifEEHoXY3BXFsMQV3g4EBqxZjBwoRnQIXFlkAJO5/B
BLO+QIC6F8D6FK3BB+wRQaLojD+mkLTBw4D4QBXO/0DUEZXBSh7VQIshB0EMxrvBLw6rQIeLKEFI
FbnBBeH3QJOs6kASMqzBPHmNQBRb177eRabB6dDnQDjnLUDzaq3BFcvHQLvPJkGiY5fBCjgEQbVP
sr9+yLPBYjKaQPhBB0H8dpDBKw27QKIWCkEnwoTBGuTbQGMdq0BDNZjB/G2wQNHDykCoSp3BtUaf
QHAm0UBstnrBTvFlQMu+8kBGAIHBLhexQIl7kkCxL4nBRDV3QHZSOUF4d6TBTQOqQB3sRkFNZ5/B
raCdQFQASEELba3BNtIHQcVAoD8uZ4PBDcLYQOjahT+y7n7BQqXtQAik8D0gm4rBG0ePQDLlPUD/
b6vBIZR2QNzH3z+YI6LBhZxoQIYDXUBABJLBo3THQJLwaEA3uZ7B4qqnQGs4rT/VcZHBdGRTQAdS
q0De94bBujdbQCify0DTMJHB3gpNQBtEgkDmwqPB

>  <OMEGA_E>  (7) 
8OQfPzzyID9eVCM/UIouPw==

>  <OMEGA_NBR>  (7) 
     21084

$$$$
50162142
     RDKit          3D

 87 91  0  0  1  0  0  0  0  0999 V2000
    5.7855   10.5312  -21.1543 C   0  0  0  0  0  0  0  0  0  0  0  0
    6.0227    9.9201  -22.3968 C   0  0  0  0  0  0  0  0  0  0  0  0
    6.3237    9.9423  -20.0003 C   0  0  0  0  0  0  0  0  0  0  0  0
    6.8978    0.1407  -16.7051 C   0  0  0  0  0  0  0  0  0  0  0  0
    8.1318   -0.3828  -14.6687 C   0  0  0  0  0  0  0  0  0  0  0  0
    8.3560    1.8163  -15.6956 C   0  0  0  0  0  0  0  0  0  0  0  0
    6.9023    1.3783  -21.5048 C   0  0  0  0  0  0  0  0  0  0  0  0
    5.2087   -0.2568  -20.8497 C   0  0  0  0  0  0  0  0  0  0  0  0
    7.3469   -1.0069  -21.7501 C   0  0  0  0  0  0  0  0  0  0  0  0
    6.7873    8.7352  -22.4486 C   0  0  0  0  0  0  0  0  0  0  0  0
    7.2515   -0.7724  -15.6942 C   0  0  0  0  0  0  0  0  0  0  0  0
    7.4517    1.4386  -16.7124 C   0  0  0  0  0  0  0  0  0  0  0  0
    8.6752    0.9146  -14.6612 C   0  0  0  0  0  0  0  0  0  0  0  0
    5.6221    1.0817  -20.9853 C   0  0  0  0  0  0  0  0  0  0  0  0
    7.7677    0.3328  -21.8764 C   0  0  0  0  0  0  0  0  0  0  0  0
    6.0638   -1.2983  -21.2435 C   0  0  0  0  0  0  0  0  0  0  0  0
    7.0897    8.7615  -20.1161 C   0  0  0  0  0  0  0  0  0  0  0  0
    6.6992   -2.1282  -15.6998 C   0  0  0  0  0  0  0  0  0  0  0  0
    7.0710    2.3897  -17.7666 C   0  0  0  0  0  0  0  0  0  0  0  0
    7.8334   -3.9834  -18.7698 C   0  0  0  0  0  0  0  0  0  0  0  0
    7.2671   -5.0464  -17.8326 C   0  0  0  0  0  0  0  0  0  0  0  0
    7.7046   -2.6635  -17.9930 C   0  0  0  0  0  0  0  0  0  0  0  0
    5.4289    7.8623  -17.1892 C   0  0  0  0  0  0  0  0  0  0  0  0
    5.9775    5.9819  -18.7631 C   0  0  0  0  0  0  0  0  0  0  0  0
    4.4669    6.9210  -16.4490 C   0  0  0  0  0  0  0  0  0  0  0  0
    6.2663   -4.2840  -16.9660 C   0  0  2  0  0  0  0  0  0  0  0  0
    4.9863    5.0858  -17.9844 C   0  0  2  0  0  0  0  0  0  0  0  0
    9.6525    1.3148  -13.5812 C   0  0  0  0  0  0  0  0  0  0  0  0
    2.7064   -3.1628  -17.3503 C   0  0  0  0  0  0  0  0  0  0  0  0
    4.6881    2.1895  -20.5635 C   0  0  0  0  0  0  0  0  0  0  0  0
    4.8945   -4.1284  -17.6547 C   0  0  0  0  0  0  0  0  0  0  0  0
    4.3107    4.0568  -18.9041 C   0  0  2  0  0  0  0  0  0  0  0  0
    5.3415    3.0725  -19.4873 C   0  0  1  0  0  0  0  0  0  0  0  0
    7.3020    8.1771  -21.3248 N   0  0  0  0  0  0  0  0  0  0  0  0
    6.8875   -2.9662  -16.7974 N   0  0  0  0  0  0  0  0  0  0  0  0
    6.4739    7.0860  -17.9196 N   0  0  0  0  0  0  0  0  0  0  0  0
    5.8483    2.2185  -18.4044 N   0  0  0  0  0  0  0  0  0  0  0  0
    3.9300    5.9170  -17.3793 N   0  0  0  0  0  0  0  0  0  0  0  0
    6.0997   -2.5297  -14.7085 O   0  0  0  0  0  0  0  0  0  0  0  0
    7.8172    3.3189  -18.0551 O   0  0  0  0  0  0  0  0  0  0  0  0
    8.0961    9.0749  -17.6767 O   0  0  0  0  0  0  0  0  0  0  0  0
    8.8009    7.0394  -19.0330 O   0  0  0  0  0  0  0  0  0  0  0  0
    3.6239    4.7366  -19.9565 O   0  0  0  0  0  0  0  0  0  0  0  0
    4.0597   -3.2438  -16.8796 O   0  0  0  0  0  0  0  0  0  0  0  0
    8.9981    0.6155  -22.3612 F   0  0  0  0  0  0  0  0  0  0  0  0
    5.6444   -2.5777  -21.1418 F   0  0  0  0  0  0  0  0  0  0  0  0
    7.7634    7.9933  -18.6138 S   0  0  0  0  0  0  0  0  0  0  0  0
    5.2004   11.4366  -21.0888 H   0  0  0  0  0  0  0  0  0  0  0  0
    5.6242   10.3525  -23.3027 H   0  0  0  0  0  0  0  0  0  0  0  0
    6.1536   10.3882  -19.0314 H   0  0  0  0  0  0  0  0  0  0  0  0
    6.2013   -0.1524  -17.4766 H   0  0  0  0  0  0  0  0  0  0  0  0
    8.3908   -1.0806  -13.8861 H   0  0  0  0  0  0  0  0  0  0  0  0
    8.8040    2.7989  -15.7109 H   0  0  0  0  0  0  0  0  0  0  0  0
    7.2160    2.4057  -21.6165 H   0  0  0  0  0  0  0  0  0  0  0  0
    4.2341   -0.4826  -20.4430 H   0  0  0  0  0  0  0  0  0  0  0  0
    8.0075   -1.8101  -22.0415 H   0  0  0  0  0  0  0  0  0  0  0  0
    6.9664    8.2629  -23.4032 H   0  0  0  0  0  0  0  0  0  0  0  0
    8.8876   -4.1944  -19.0025 H   0  0  0  0  0  0  0  0  0  0  0  0
    7.2532   -3.9415  -19.7034 H   0  0  0  0  0  0  0  0  0  0  0  0
    6.7640   -5.8414  -18.4025 H   0  0  0  0  0  0  0  0  0  0  0  0
    8.0635   -5.4863  -17.2144 H   0  0  0  0  0  0  0  0  0  0  0  0
    8.6982   -2.2988  -17.6934 H   0  0  0  0  0  0  0  0  0  0  0  0
    7.2065   -1.9034  -18.6128 H   0  0  0  0  0  0  0  0  0  0  0  0
    4.8586    8.4663  -17.9103 H   0  0  0  0  0  0  0  0  0  0  0  0
    5.9166    8.5258  -16.4598 H   0  0  0  0  0  0  0  0  0  0  0  0
    6.8306    5.3709  -19.0931 H   0  0  0  0  0  0  0  0  0  0  0  0
    5.4667    6.4031  -19.6415 H   0  0  0  0  0  0  0  0  0  0  0  0
    5.0075    6.4127  -15.6369 H   0  0  0  0  0  0  0  0  0  0  0  0
    3.6371    7.5067  -16.0266 H   0  0  0  0  0  0  0  0  0  0  0  0
    6.1437   -4.7889  -15.9965 H   0  0  0  0  0  0  0  0  0  0  0  0
    5.5363    4.5518  -17.1955 H   0  0  0  0  0  0  0  0  0  0  0  0
   10.6747    1.0613  -13.8987 H   0  0  0  0  0  0  0  0  0  0  0  0
    9.5813    2.3983  -13.4055 H   0  0  0  0  0  0  0  0  0  0  0  0
    9.4130    0.7762  -12.6524 H   0  0  0  0  0  0  0  0  0  0  0  0
    2.1361   -2.4726  -16.7112 H   0  0  0  0  0  0  0  0  0  0  0  0
    2.7002   -2.7930  -18.3862 H   0  0  0  0  0  0  0  0  0  0  0  0
    2.2456   -4.1610  -17.3145 H   0  0  0  0  0  0  0  0  0  0  0  0
    4.4442    2.8089  -21.4392 H   0  0  0  0  0  0  0  0  0  0  0  0
    3.7656    1.7489  -20.1575 H   0  0  0  0  0  0  0  0  0  0  0  0
    5.0362   -3.7089  -18.6616 H   0  0  0  0  0  0  0  0  0  0  0  0
    4.4105   -5.1132  -17.7325 H   0  0  0  0  0  0  0  0  0  0  0  0
    3.5898    3.4819  -18.3043 H   0  0  0  0  0  0  0  0  0  0  0  0
    6.1679    3.6409  -19.9390 H   0  0  0  0  0  0  0  0  0  0  0  0
    5.2714    1.4588  -18.1045 H   0  0  0  0  0  0  0  0  0  0  0  0
    3.3001    5.3219  -16.8803 H   0  0  0  0  0  0  0  0  0  0  0  0
    3.4354    6.3885  -18.1094 H   0  0  0  0  0  0  0  0  0  0  0  0
    3.2062    4.1005  -20.5252 H   0  0  0  0  0  0  0  0  0  0  0  0
  1  2  2  0
  1  3  1  0
  2 10  1  0
  3 17  2  0
  4 11  2  0
  4 12  1  0
  5 11  1  0
  5 13  2  0
  6 12  2  0
  6 13  1  0
  7 14  2  0
  7 15  1  0
  8 14  1  0
  8 16  2  0
  9 15  2  0
  9 16  1  0
 10 34  2  0
 11 18  1  0
 12 19  1  0
 13 28  1  0
 14 30  1  0
 15 45  1  0
 16 46  1  0
 17 34  1  0
 17 47  1  0
 18 35  1  0
 18 39  2  0
 19 37  1  0
 19 40  2  0
 20 21  1  0
 20 22  1  0
 21 26  1  0
 22 35  1  0
 23 25  1  0
 23 36  1  0
 24 27  1  0
 24 36  1  0
 25 38  1  0
 26 31  1  0
 26 35  1  0
 27 32  1  0
 27 38  1  0
 29 44  1  0
 30 33  1  0
 31 44  1  0
 32 33  1  0
 32 43  1  0
 33 37  1  0
 36 47  1  0
 41 47  2  0
 42 47  2  0
  1 48  1  0
  2 49  1  0
  3 50  1  0
  4 51  1  0
  5 52  1  0
  6 53  1  0
  7 54  1  0
  8 55  1  0
  9 56  1  0
 10 57  1  0
 20 58  1  0
 20 59  1  0
 21 60  1  0
 21 61  1  0
 22 62  1  0
 22 63  1  0
 23 64  1  0
 23 65  1  0
 24 66  1  0
 24 67  1  0
 25 68  1  0
 25 69  1  0
 26 70  1  1
 27 71  1  1
 28 72  1  0
 28 73  1  0
 28 74  1  0
 29 75  1  0
 29 76  1  0
 29 77  1  0
 30 78  1  0
 30 79  1  0
 31 80  1  0
 31 81  1  0
 32 82  1  1
 33 83  1  6
 37 84  1  0
 38 85  1  0
 38 86  1  0
 43 87  1  0
M  CHG  1  38   1
M  END
>  <OMEGA_C>  (8) 
ByO5QNJ/KEERPKnBXLrAQLO4HkG6LLPBfVvKQKITH0GQAKDBCLvcQI4aED4FpIXB0BsCQUUDxL7S
smrBS7IFQfB76D8GIXvBdd/cQLZtsD/aCazBqK2mQEp7g75GzKbBlhnrQGnjgL85AK7BuzHZQHLD
C0HOlrPBBQzoQGS7Rb9wG3vBGXTuQKEiuD8Os4XBw80KQXokaj9wlGrB6eezQNh1ij/d4afB3ZD4
QKVkqj7oAq/BtwrCQHEupr+38qnB5N7iQBQvDEHV7aDB3l/WQA00CMBFMnvBtEXiQFDwGEAJIo7B
b6v6QAjwfsCWKJbB1YvoQDd8ocA2qY7BxYv2QMZ2KsCp8Y/BiLmtQPSX+0CBg4nB+Ue/QLJrv0Dq
GpbB/fCOQIl43UB/l4PBt4XIQEQWicBguofBYY+fQL++okD334/BpXAaQe9JqD9wTFnBVzYtQLhr
SsBbzYrBOQWWQI0hDED+gaTBlZ+cQBgchMDKPI3BT/GJQILRgUCDO5fBpO2qQFujREDz5ZvB6anp
QF/VAkEvmarBDmbcQO3WPcACYYbBUyrPQLLA4kBGW4/BnyW7QCv8DUA9PJPB14V7QBRYvUDXCIvB
uzDDQPrmIcDoVWvBHyb6QNFoVEDGcJDBeYkBQdcyEUHNaY3BkNAMQSFD4UCFQ5jBX+5nQNaRl0Dt
pp/Bb+mBQIOaT8B2CYfBM/gPQR6RHT+p47LBlJ60QOn4JMBSIqnBbW34QDTJ/0D76JTBgmmmQED8
NkHitajBkPmzQOajJUHta7rB8+nEQPU1JkFgQJjB4HDGQNMVHL4j0IvBlEAGQaVRir9dLV7BVt0M
QXkgM0DiX3vBaunmQHv3GUCL7qzBXX2HQAUc974zi6PBtB4AQdGx57/sVLDB1uzeQNE0BEHNObvB
vTMOQTw4hsAlBZjB5hnoQMNAfMCEoJ3BUHLYQCftusBhOJPBAgQBQZGPr8AAt4nBsCsLQVMfE8Ar
jI3BYJvmQI2h87/t5pTB7XmbQON1B0FYSI/BeVS9QJBpCEG/rYPBf5TaQC/eq0C1vpjBz+6uQBHm
zEDkIZ3Bvz2gQCw1zUDNMHrB6sZoQAw38ECSNoDBDpnEQHM+mcB38X/BhSmxQA+okUBykInBs8sq
QYbYhz/nYF7B+UwZQeN9GUAVfVbBx5sWQQS4Rj8YcErBJbYIQK4/HsCbsIXBgM8sQKHAMsD8FpPB
cLcPQMImhcAIhIrBqjaOQHTFM0Btg6vByf9wQOXb3z+pQqHBPyihQPpdbcD2SpXBMyONQDifo8BC
3I3Bg79lQB7XXkAjb5LBKV/FQJAEaUD/gp/BRa+oQFG5uj8R1pDB1DRTQOlMqkDfCofB8N1bQJdu
zEAT4JDBWjJNQEA3g0CnM6TBSz3TQJYnD0EAsrPBUaq9QKScIkFUFrLBRwflQOC2BEHLyqrBsijc
QLOs5z3hmYXBT4oBQTQeyb5FX2rB94wFQS8J5T9lRHvBOs7bQDNrqD9JT6zBr6ilQB84kL6BV6bB
It/oQNBMir+u6a3BWXu6QNAKK0FZpafBQR3nQBxbSr+W0HrBtlDuQF7asz8mx4XBqmQKQTBwZj8o
eGrB7jmzQCgmhj/C0qfBe6j2QE9mgD5wUa/BfknAQHz5q7/bdKnBDBzhQEAeDkFjiaDBIo3VQOBx
CcCSwnrBAfHiQNjnFUCCYI7BbXf6QPfigMAox5XBfLLoQOXGosBMMI7BARv2QMTuLMAVp4/Bueys
QNfS+0CQtonBuGjAQHxwv0ARJZbB+SaPQMwd3UA6tYPBoIXIQE9fisDgTIfB84ygQFyXokCv+o/B
wxcaQb2fpj81Q1nB6houQH8RS8ASoorBsCCWQOF8C0AFiqTBUIKcQO8OhsCwy4zBFeKKQADWgUBC
X5fBR4+rQATzQ0Bv/5vBWe3LQO7YIEG7I5/BsA7cQHDxP8AGEIbBSRfPQKek40Apc4/BrFK7QM85
DUDOSZPBaud8QIXMvECII4vBzALCQHx0IsAj8GrBR/X7QNSaTkDDAJHB21QBQbSeEUFZHY3BqG8M
QQwH5EBisJjBDFNqQCLDl0Dczp/BAYCCQKGpT8Dj/IbBcLwOQRzeAT9Jo7PBSpqyQG9eJ8BVOqjB
h7b3QKriAEEm55TBXxbWQBNeCEHnm7vBNKqvQCQHK0G7xbjBS4n1QLNQ60Atw6vBJtbFQHhGO77d
wYvBD3wFQQ1lir+0p13B0t0MQX8dMUCjr3vBnTXmQOaCFUD7ba3BmcqGQG05+L7pz6LBOmf9QKQF
878ZQLDBo8GpQOr1OUEPaabB8RwOQdZyh8A9p5fB88nnQEjlf8C3O53BmsfYQOyHvMB1rZLBkysB
QfZwsMC5OInBSesKQfYKFcD4SY3BkQDmQPyk+b/LqJTBjh6aQNQfB0HqjY/Bpde7QJ3tCEGz84PB
D0rcQHwwrEAoiJjBgYSwQCwhzEDXU53BRhahQPQszUDtiXrB/LBoQGI+70DEPoDBZNHEQF9AmsCz
AH/B4hCyQBhdkUBZrYnBgWYqQdQPhD8/R17BVyoZQcHYGEAwrFbBeiUWQaErRz8PTErBdd8KQD3M
G8Dd0oXB0xAtQGOyN8CnF5PBIrUPQM8ZhcA/yInB7L2OQMTXMkAkmavBgaJwQGOT4T9EQqHBEfig
QAtzdcBVDZXBh3+MQE1npcAk5ozBCR5nQGxQX0BQmZLB4jXGQFx/Z0ArpZ/B0iGoQO6vvD8utpDB
Mg5VQGWDqUBbJYfBgONcQHCty0CF+5DBn4ZPQFGCg0BAYaTB

>  <OMEGA_E>  (8) 
OBgPPoCp3T0=

>  <OMEGA_NBR>  (8) 
     24123

$$$$
50162153
     RDKit          3D

 88 92  0  0  1  0  0  0  0  0999 V2000
    6.9102    0.1739  -16.7200 C   0  0  0  0  0  0  0  0  0  0  0  0
    8.1711   -0.3285  -14.6946 C   0  0  0  0  0  0  0  0  0  0  0  0
    8.3815    1.8596  -15.7476 C   0  0  0  0  0  0  0  0  0  0  0  0
    6.8188    1.3726  -21.5621 C   0  0  0  0  0  0  0  0  0  0  0  0
    5.1652   -0.2628  -20.8119 C   0  0  0  0  0  0  0  0  0  0  0  0
    7.2739   -1.0137  -21.7780 C   0  0  0  0  0  0  0  0  0  0  0  0
    6.4786    9.6723  -20.2882 C   0  0  0  0  0  0  0  0  0  0  0  0
    6.7571    8.6763  -22.3284 C   0  0  0  0  0  0  0  0  0  0  0  0
    7.2779   -0.7285  -15.7048 C   0  0  0  0  0  0  0  0  0  0  0  0
    7.4619    1.4719  -16.7470 C   0  0  0  0  0  0  0  0  0  0  0  0
    8.7158    0.9684  -14.7087 C   0  0  0  0  0  0  0  0  0  0  0  0
    5.5613    1.0759  -20.9909 C   0  0  0  0  0  0  0  0  0  0  0  0
    7.6767    0.3267  -21.9496 C   0  0  0  0  0  0  0  0  0  0  0  0
    6.0152   -1.3052  -21.2137 C   0  0  0  0  0  0  0  0  0  0  0  0
    7.2249    8.5318  -20.1592 C   0  0  0  0  0  0  0  0  0  0  0  0
    6.7335   -2.0867  -15.6958 C   0  0  0  0  0  0  0  0  0  0  0  0
    7.0639    2.4122  -17.8042 C   0  0  0  0  0  0  0  0  0  0  0  0
    7.9009   -3.9600  -18.7380 C   0  0  0  0  0  0  0  0  0  0  0  0
    7.3141   -5.0199  -17.8076 C   0  0  0  0  0  0  0  0  0  0  0  0
    7.7323   -2.6303  -17.9874 C   0  0  0  0  0  0  0  0  0  0  0  0
    5.4361    7.8633  -17.2170 C   0  0  0  0  0  0  0  0  0  0  0  0
    5.9508    5.9664  -18.7683 C   0  0  0  0  0  0  0  0  0  0  0  0
    4.4405    6.9514  -16.4806 C   0  0  0  0  0  0  0  0  0  0  0  0
    6.3118   -4.2549  -16.9438 C   0  0  2  0  0  0  0  0  0  0  0  0
    4.9480    5.0868  -17.9936 C   0  0  2  0  0  0  0  0  0  0  0  0
    9.7140    1.3767  -13.6509 C   0  0  0  0  0  0  0  0  0  0  0  0
    5.4643   10.8325  -22.2406 C   0  0  0  0  0  0  0  0  0  0  0  0
    2.7504   -3.1375  -17.3350 C   0  0  0  0  0  0  0  0  0  0  0  0
    4.6330    2.1838  -20.5608 C   0  0  0  0  0  0  0  0  0  0  0  0
    4.9350   -4.1176  -17.6271 C   0  0  0  0  0  0  0  0  0  0  0  0
    4.2726    4.0631  -18.9178 C   0  0  2  0  0  0  0  0  0  0  0  0
    5.3020    3.0768  -19.5036 C   0  0  1  0  0  0  0  0  0  0  0  0
    7.3727    7.9352  -21.4312 N   0  0  0  0  0  0  0  0  0  0  0  0
    6.2049    9.7190  -21.6210 N   0  0  0  0  0  0  0  0  0  0  0  0
    6.9272   -2.9334  -16.7855 N   0  0  0  0  0  0  0  0  0  0  0  0
    6.4713    7.0454  -17.9129 N   0  0  0  0  0  0  0  0  0  0  0  0
    5.8297    2.2351  -18.4201 N   0  0  0  0  0  0  0  0  0  0  0  0
    3.8980    5.9374  -17.4008 N   0  0  0  0  0  0  0  0  0  0  0  0
    6.1325   -2.4805  -14.7024 O   0  0  0  0  0  0  0  0  0  0  0  0
    7.8075    3.3364  -18.1141 O   0  0  0  0  0  0  0  0  0  0  0  0
    8.0908    9.0449  -17.7225 O   0  0  0  0  0  0  0  0  0  0  0  0
    8.8570    6.9017  -18.8777 O   0  0  0  0  0  0  0  0  0  0  0  0
    3.5912    4.7485  -19.9706 O   0  0  0  0  0  0  0  0  0  0  0  0
    4.1158   -3.1814  -16.8958 O   0  0  0  0  0  0  0  0  0  0  0  0
    8.8812    0.6098  -22.4952 F   0  0  0  0  0  0  0  0  0  0  0  0
    5.6151   -2.5860  -21.0622 F   0  0  0  0  0  0  0  0  0  0  0  0
    7.8089    7.8896  -18.5852 S   0  0  0  0  0  0  0  0  0  0  0  0
    6.2044   -0.1279  -17.4797 H   0  0  0  0  0  0  0  0  0  0  0  0
    8.4389   -1.0177  -13.9073 H   0  0  0  0  0  0  0  0  0  0  0  0
    8.8297    2.8417  -15.7797 H   0  0  0  0  0  0  0  0  0  0  0  0
    7.1211    2.4001  -21.7012 H   0  0  0  0  0  0  0  0  0  0  0  0
    4.2078   -0.4878  -20.3656 H   0  0  0  0  0  0  0  0  0  0  0  0
    7.9298   -1.8173  -22.0789 H   0  0  0  0  0  0  0  0  0  0  0  0
    6.1791   10.3676  -19.5181 H   0  0  0  0  0  0  0  0  0  0  0  0
    6.6982    8.5027  -23.3927 H   0  0  0  0  0  0  0  0  0  0  0  0
    8.9648   -4.1621  -18.9311 H   0  0  0  0  0  0  0  0  0  0  0  0
    7.3531   -3.9372  -19.6916 H   0  0  0  0  0  0  0  0  0  0  0  0
    6.8084   -5.8078  -18.3852 H   0  0  0  0  0  0  0  0  0  0  0  0
    8.1012   -5.4698  -17.1846 H   0  0  0  0  0  0  0  0  0  0  0  0
    8.7146   -2.2292  -17.6971 H   0  0  0  0  0  0  0  0  0  0  0  0
    7.2102   -1.8983  -18.6213 H   0  0  0  0  0  0  0  0  0  0  0  0
    4.8937    8.4688  -17.9580 H   0  0  0  0  0  0  0  0  0  0  0  0
    5.9266    8.5269  -16.4896 H   0  0  0  0  0  0  0  0  0  0  0  0
    6.7890    5.3416  -19.1103 H   0  0  0  0  0  0  0  0  0  0  0  0
    5.4445    6.4091  -19.6387 H   0  0  0  0  0  0  0  0  0  0  0  0
    4.9559    6.4481  -15.6493 H   0  0  0  0  0  0  0  0  0  0  0  0
    3.6147    7.5608  -16.0847 H   0  0  0  0  0  0  0  0  0  0  0  0
    6.1967   -4.7533  -15.9700 H   0  0  0  0  0  0  0  0  0  0  0  0
    5.4856    4.5503  -17.1979 H   0  0  0  0  0  0  0  0  0  0  0  0
   10.7296    1.1174  -13.9848 H   0  0  0  0  0  0  0  0  0  0  0  0
    9.6488    2.4621  -13.4849 H   0  0  0  0  0  0  0  0  0  0  0  0
    9.4905    0.8481  -12.7125 H   0  0  0  0  0  0  0  0  0  0  0  0
    5.3654   10.6515  -23.3211 H   0  0  0  0  0  0  0  0  0  0  0  0
    4.4644   10.9045  -21.7880 H   0  0  0  0  0  0  0  0  0  0  0  0
    6.0103   11.7730  -22.0750 H   0  0  0  0  0  0  0  0  0  0  0  0
    2.1942   -2.4046  -16.7322 H   0  0  0  0  0  0  0  0  0  0  0  0
    2.7154   -2.8429  -18.3943 H   0  0  0  0  0  0  0  0  0  0  0  0
    2.2948   -4.1316  -17.2157 H   0  0  0  0  0  0  0  0  0  0  0  0
    4.3716    2.7957  -21.4367 H   0  0  0  0  0  0  0  0  0  0  0  0
    3.7192    1.7437  -20.1350 H   0  0  0  0  0  0  0  0  0  0  0  0
    5.0730   -3.7551  -18.6565 H   0  0  0  0  0  0  0  0  0  0  0  0
    4.4382   -5.0988  -17.6474 H   0  0  0  0  0  0  0  0  0  0  0  0
    3.5482    3.4881  -18.3222 H   0  0  0  0  0  0  0  0  0  0  0  0
    6.1186    3.6444  -19.9737 H   0  0  0  0  0  0  0  0  0  0  0  0
    5.2584    1.4786  -18.1020 H   0  0  0  0  0  0  0  0  0  0  0  0
    3.2615    5.3546  -16.8956 H   0  0  0  0  0  0  0  0  0  0  0  0
    3.4095    6.4035  -18.1385 H   0  0  0  0  0  0  0  0  0  0  0  0
    3.1732    4.1156  -20.5426 H   0  0  0  0  0  0  0  0  0  0  0  0
  1  9  2  0
  1 10  1  0
  2  9  1  0
  2 11  2  0
  3 10  2  0
  3 11  1  0
  4 12  2  0
  4 13  1  0
  5 12  1  0
  5 14  2  0
  6 13  2  0
  6 14  1  0
  7 15  2  0
  7 34  1  0
  8 33  2  0
  8 34  1  0
  9 16  1  0
 10 17  1  0
 11 26  1  0
 12 29  1  0
 13 45  1  0
 14 46  1  0
 15 33  1  0
 15 47  1  0
 16 35  1  0
 16 39  2  0
 17 37  1  0
 17 40  2  0
 18 19  1  0
 18 20  1  0
 19 24  1  0
 20 35  1  0
 21 23  1  0
 21 36  1  0
 22 25  1  0
 22 36  1  0
 23 38  1  0
 24 30  1  0
 24 35  1  0
 25 31  1  0
 25 38  1  0
 27 34  1  0
 28 44  1  0
 29 32  1  0
 30 44  1  0
 31 32  1  0
 31 43  1  0
 32 37  1  0
 36 47  1  0
 41 47  2  0
 42 47  2  0
  1 48  1  0
  2 49  1  0
  3 50  1  0
  4 51  1  0
  5 52  1  0
  6 53  1  0
  7 54  1  0
  8 55  1  0
 18 56  1  0
 18 57  1  0
 19 58  1  0
 19 59  1  0
 20 60  1  0
 20 61  1  0
 21 62  1  0
 21 63  1  0
 22 64  1  0
 22 65  1  0
 23 66  1  0
 23 67  1  0
 24 68  1  1
 25 69  1  1
 26 70  1  0
 26 71  1  0
 26 72  1  0
 27 73  1  0
 27 74  1  0
 27 75  1  0
 28 76  1  0
 28 77  1  0
 28 78  1  0
 29 79  1  0
 29 80  1  0
 30 81  1  0
 30 82  1  0
 31 83  1  1
 32 84  1  6
 37 85  1  0
 38 86  1  0
 38 87  1  0
 43 88  1  0
M  CHG  1  38   1
M  END
>  <OMEGA_C>  (9) 
XCDdQCYHMj6DwoXBrrwCQfQyqL76HGvBxxoGQSEH7j8C9nvB4zPaQHixrz9If6zBX0mlQGWJhr7I
fqbB+cPoQAXCgb9cOa7B/1DPQI/BGkFSTqLBQTrYQBjSCkGKoLLByeToQAx8Or+8RnvBqcfuQOxm
vD/p+YXB1HMLQRzqdz8CV2vBO/axQHq1iT9q7afBlqf1QOlApz7NmK/BqnzAQFoSp7+utanBuzLn
QGaCCEEARqHB6HjXQDmMBcD9IXvBkAviQONhGkACb47Bj9T8QNtvfcBq55XB6gzqQEujoMAJdo7B
5W73QAhWKMA95o/BcvStQGug+0BkvInBE22+QPXsvkBsJZbBLxiOQJJx3kA12IPBOvrJQBYoiMDe
jIfBnVWeQE7HokDx8o/Bu2wbQUQ4sD8valrBs9uuQPZRLUHY7LHBmgYwQM3MSMArrorBpUGUQDXD
C0BxfKTBRuudQBjDg8BNBI3BGLmIQKUEgkCPV5fBD6qpQMjqREB2B5zBWO3rQEzt/UAec6vBmY7G
QPCAG0Hh96zBqavdQKe8O8CqSIbB9xTPQA904UCcTY/B5oy6QIgMD0BMXJPB5Xh5QCD/vUDrNIvB
bz3EQGTAHsAKPWvB99b5QHCHVUCd6ZDB6nMBQfa3EEGux43BVbYNQcTa3ECfBZfBcNZlQA30l0C5
w5/BCrWDQFqcS8CxKofBZhkOQbAYHD9E9rPBvK6zQIuAJcB0f6jBYeL5QL53/EBprpTBm4rGQIT0
Ar591ovBzQUHQZ9Cgr95hF7BYUYNQWLeNUDCeXzBWeDjQLyaGUAAnK3BcqaGQMDG+b7X7KLB9cD9
QEKc6L+jobDBIrvFQJ3hJUH4JJzBalfWQAsLCEFIJLvB/m8PQZMvhcDYcpfBjUzrQDb7e8BgiJ3B
rt7ZQKHZucDcFJPBVJ4BQbwIr8AoeonB024LQVKrDsCUk43BCLrmQNj88r9T+JTB/picQF6AB0EN
qo/BD6e9QAhuCEG26oPBqz/ZQA3uqkDM4ZjBTDmuQEsXzUAbHJ3B+paeQKxWzkCWY3rB31ZnQP/x
8UCErYDB+0rGQAUbmMDzhH/BxomvQC2ckUBflYnBTqwrQVMGjz+rwV/BgWEaQd2THUD1wVfBP9kX
QUMeWT9tZkvBIrGrQIZsKkGskbrBE9yOQNB4LkHHTa7BsFTAQAhePEGxmbDBTG0MQK7kGcCE24XB
r8gtQHvyNcCAJ5PBSN4SQOA1hMCpuYnBXOSLQEDtMkBKfqvBEwduQPMx3z+NFKHBL1aiQOFTcMBs
QJXBvgWOQFEpo8DcLY3BzhVjQKo8X0Dtk5LBkcvDQIc+aUA8yp/BfUSoQLFBvT/j0JDBcbxQQBtZ
q0A6KofBzTRaQD3pzECZG5HB6xVLQFezg0A7V6TBjSDcQNIn6D1o54XBaGsCQWblyL6Zf2vBwjEG
QUAV5D8RpnzBuznZQBwEoj9YqqzBRp2iQDO7l752XqbBVenkQGrCkb9qJa7BjrbmQDDNBEGcmarB
gIW/QDSNI0FcyqvBwcznQITGSb/8eHvBB5HuQPSDsz8gQIbB/GsLQXMgZT/98mvBLNKwQEA9gz/4
/qfBFkrzQNzbOz6+tK/BuXy8QJwusL+Kg6nBL0/iQEHiDUHOraDBjyjWQE9ICcBl8nrBTYriQCkf
FkBExo7BqWP6QPJsgcAsu5XBbQ7oQARTo8D8Lo7B6hvzQDDiLMDAEJDB+LSrQO9D/EAy24nB/ZHA
QD2dwEDUZpbBDOKOQJ3D3EC03YPBa5vIQCrtisDMEYfBcu2gQOINo0BcUpDBF54bQWC/pT+zM1vB
WJPNQFTwDkGMz7zBxZ4tQDLtS8C2ronBKpiUQBp4C0DutqTBsMybQMoyh8A6KozBROeKQDaMgkDM
uJfBSveqQPU7REAyVZzBvgLKQGnTIEH4qqHBIZnQQHJEEkHsH7HBwvfbQFS5QMByFYbBmXfOQL7i
5ECwho/BYMW6QDOKDUDIm5PBizJ9QKqJvEBqWovB/HfEQDNdIsC7mGrB5Sj7QCGUT0AMYZHBqnX/
QARWE0Gk/ozBm+UMQfjY5kB425fBLLZqQOy6mECaJaDBlkOCQIXAUsCEGIbBlPUMQUdQ1D6uNrTB
hVWuQH0KKcB4H6jBBCP3QCv0AUHUoJTBQBbFQMcGOr5K5YvBmqkGQf0iir8W217BTJ4NQYllMEAY
Vn3B2hzkQNnbEUDa5q3B3dyDQEZb9b4mtaLBw9/4QDwh/L8+gLDBS7b3QC2/7EB4u6zBnFytQJOX
MEFwL6/BVmEOQeLohsBXC5fBl4zpQB4PgsAFdZ3BbGrXQPJyvMAlu5LB7M8AQdTVscANWInBCvkI
QckxDsAvQI7By9nfQMEgAsB3IpXBQXSYQO4JB0GfuY/BH/K5QIhkCUH/GoTB9NDcQPTlrUAUyZjB
HbGwQF9ZzUDMlJ3Bb2ehQHHkzEDiCnvBw7VnQLgr7kArSIDBwinGQLCTmsD6a37BzKyyQHCXkUDn
GYrBlMErQQkmgj84omDBV98aQRd6GEAtq1jBTQUYQcTnRj/oGEzB7y+6QLbFG0FnYsDBFNvtQH0u
D0FbUcDB5HC+QNrC/kAXbb7B4zQLQOZuHcCgqoTBDqosQEVUNsCqDpLBD1AOQOplhcDiE4nB8SSN
QJJWMkC3z6vBtX9tQOpT5D/fSKHBA+eeQIJzd8C7cpTBLzeMQLfCpsBMJYzBj6VmQOd9YUA18JLB
QavFQJunZkBgH6DBuIinQKDdvT/X+ZDBRiZWQPLEqEBmYofBz3BcQHxqy0DkIZHBcHtPQHWhhECq
uKTB

>  <OMEGA_E>  (9) 
eA6CPihTPD4=

>  <OMEGA_NBR>  (9) 
     27190

$$$$
50162154
     RDKit          3D

 81 84  0  0  1  0  0  0  0  0999 V2000
    6.8895    0.0603  -16.6768 C   0  0  0  0  0  0  0  0  0  0  0  0
    8.0629   -0.4934  -14.6123 C   0  0  0  0  0  0  0  0  0  0  0  0
    8.3637    1.7004  -15.6323 C   0  0  0  0  0  0  0  0  0  0  0  0
    6.9704    1.2956  -21.4561 C   0  0  0  0  0  0  0  0  0  0  0  0
    5.2429   -0.3038  -20.8011 C   0  0  0  0  0  0  0  0  0  0  0  0
    7.3614   -1.0982  -21.7107 C   0  0  0  0  0  0  0  0  0  0  0  0
    7.1970   -0.8620  -15.6580 C   0  0  0  0  0  0  0  0  0  0  0  0
    7.4720    1.3466  -16.6682 C   0  0  0  0  0  0  0  0  0  0  0  0
    8.6383    0.7905  -14.5923 C   0  0  0  0  0  0  0  0  0  0  0  0
    5.6861    1.0265  -20.9335 C   0  0  0  0  0  0  0  0  0  0  0  0
    7.8094    0.2325  -21.8377 C   0  0  0  0  0  0  0  0  0  0  0  0
    6.0750   -1.3635  -21.1988 C   0  0  0  0  0  0  0  0  0  0  0  0
    6.6117   -2.2050  -15.6760 C   0  0  0  0  0  0  0  0  0  0  0  0
    7.1259    2.3149  -17.7201 C   0  0  0  0  0  0  0  0  0  0  0  0
    7.8239   -4.0964  -18.6896 C   0  0  0  0  0  0  0  0  0  0  0  0
    7.1918   -5.1455  -17.7775 C   0  0  0  0  0  0  0  0  0  0  0  0
    7.6705   -2.7670  -17.9351 C   0  0  0  0  0  0  0  0  0  0  0  0
    5.3961    7.9126  -17.2779 C   0  0  0  0  0  0  0  0  0  0  0  0
    6.0562    6.0056  -18.7977 C   0  0  0  0  0  0  0  0  0  0  0  0
    4.5167    6.9367  -16.4898 C   0  0  0  0  0  0  0  0  0  0  0  0
    6.1785   -4.3608  -16.9456 C   0  0  2  0  0  0  0  0  0  0  0  0
    5.0816    5.0977  -17.9986 C   0  0  2  0  0  0  0  0  0  0  0  0
    9.6030    1.1666  -13.4921 C   0  0  0  0  0  0  0  0  0  0  0  0
    2.6425   -3.2075  -17.4074 C   0  0  0  0  0  0  0  0  0  0  0  0
    6.9189    9.0815  -20.1017 C   0  0  0  0  0  0  0  0  0  0  0  0
    4.7725    2.1573  -20.5266 C   0  0  0  0  0  0  0  0  0  0  0  0
    4.8304   -4.1862  -17.6741 C   0  0  0  0  0  0  0  0  0  0  0  0
    4.4062    4.0470  -18.8941 C   0  0  2  0  0  0  0  0  0  0  0  0
    5.4300    3.0434  -19.4527 C   0  0  1  0  0  0  0  0  0  0  0  0
    6.8176   -3.0531  -16.7625 N   0  0  0  0  0  0  0  0  0  0  0  0
    6.4772    7.1878  -18.0053 N   0  0  0  0  0  0  0  0  0  0  0  0
    5.8995    2.1859  -18.3571 N   0  0  0  0  0  0  0  0  0  0  0  0
    4.0058    5.9014  -17.3933 N   0  0  0  0  0  0  0  0  0  0  0  0
    5.9730   -2.5888  -14.7024 O   0  0  0  0  0  0  0  0  0  0  0  0
    7.8950    3.2287  -17.9989 O   0  0  0  0  0  0  0  0  0  0  0  0
    8.7041    7.2857  -19.3164 O   0  0  0  0  0  0  0  0  0  0  0  0
    8.0968    9.1744  -17.7269 O   0  0  0  0  0  0  0  0  0  0  0  0
    3.7170    4.7040  -19.9600 O   0  0  0  0  0  0  0  0  0  0  0  0
    3.9882   -3.2932  -16.9172 O   0  0  0  0  0  0  0  0  0  0  0  0
    9.0380    0.4903  -22.3402 F   0  0  0  0  0  0  0  0  0  0  0  0
    5.6302   -2.6350  -21.0999 F   0  0  0  0  0  0  0  0  0  0  0  0
    7.6946    8.1773  -18.7278 S   0  0  0  0  0  0  0  0  0  0  0  0
    6.2066   -0.2167  -17.4663 H   0  0  0  0  0  0  0  0  0  0  0  0
    8.2863   -1.1968  -13.8238 H   0  0  0  0  0  0  0  0  0  0  0  0
    8.8366    2.6713  -15.6371 H   0  0  0  0  0  0  0  0  0  0  0  0
    7.3079    2.3160  -21.5627 H   0  0  0  0  0  0  0  0  0  0  0  0
    4.2638   -0.5091  -20.3940 H   0  0  0  0  0  0  0  0  0  0  0  0
    8.0040   -1.9146  -22.0056 H   0  0  0  0  0  0  0  0  0  0  0  0
    8.8866   -4.3231  -18.8609 H   0  0  0  0  0  0  0  0  0  0  0  0
    7.2975   -4.0558  -19.6547 H   0  0  0  0  0  0  0  0  0  0  0  0
    6.6898   -5.9250  -18.3695 H   0  0  0  0  0  0  0  0  0  0  0  0
    7.9518   -5.6085  -17.1309 H   0  0  0  0  0  0  0  0  0  0  0  0
    8.6543   -2.3978  -17.6098 H   0  0  0  0  0  0  0  0  0  0  0  0
    7.1919   -2.0156  -18.5803 H   0  0  0  0  0  0  0  0  0  0  0  0
    4.7721    8.4524  -18.0054 H   0  0  0  0  0  0  0  0  0  0  0  0
    5.8509    8.6312  -16.5803 H   0  0  0  0  0  0  0  0  0  0  0  0
    6.9481    5.4210  -19.0676 H   0  0  0  0  0  0  0  0  0  0  0  0
    5.5531    6.3504  -19.7131 H   0  0  0  0  0  0  0  0  0  0  0  0
    5.1126    6.4670  -15.6934 H   0  0  0  0  0  0  0  0  0  0  0  0
    3.6727    7.4825  -16.0427 H   0  0  0  0  0  0  0  0  0  0  0  0
    6.0186   -4.8588  -15.9779 H   0  0  0  0  0  0  0  0  0  0  0  0
    5.6482    4.5815  -17.2096 H   0  0  0  0  0  0  0  0  0  0  0  0
   10.6250    0.8879  -13.7887 H   0  0  0  0  0  0  0  0  0  0  0  0
    9.5550    2.2516  -13.3176 H   0  0  0  0  0  0  0  0  0  0  0  0
    9.3313    0.6342  -12.5686 H   0  0  0  0  0  0  0  0  0  0  0  0
    2.0670   -2.5106  -16.7804 H   0  0  0  0  0  0  0  0  0  0  0  0
    2.6529   -2.8435  -18.4454 H   0  0  0  0  0  0  0  0  0  0  0  0
    2.1756   -4.2029  -17.3726 H   0  0  0  0  0  0  0  0  0  0  0  0
    7.6677    9.7246  -20.5872 H   0  0  0  0  0  0  0  0  0  0  0  0
    6.5214    8.3640  -20.8346 H   0  0  0  0  0  0  0  0  0  0  0  0
    6.0980    9.7029  -19.7144 H   0  0  0  0  0  0  0  0  0  0  0  0
    4.5466    2.7721  -21.4104 H   0  0  0  0  0  0  0  0  0  0  0  0
    3.8390    1.7375  -20.1237 H   0  0  0  0  0  0  0  0  0  0  0  0
    5.0060   -3.7648  -18.6749 H   0  0  0  0  0  0  0  0  0  0  0  0
    4.3357   -5.1641  -17.7697 H   0  0  0  0  0  0  0  0  0  0  0  0
    3.6838    3.4896  -18.2796 H   0  0  0  0  0  0  0  0  0  0  0  0
    6.2733    3.5916  -19.8980 H   0  0  0  0  0  0  0  0  0  0  0  0
    5.2910    1.4554  -18.0471 H   0  0  0  0  0  0  0  0  0  0  0  0
    3.4038    5.2932  -16.8759 H   0  0  0  0  0  0  0  0  0  0  0  0
    3.4854    6.3426  -18.1244 H   0  0  0  0  0  0  0  0  0  0  0  0
    3.2989    4.0557  -20.5145 H   0  0  0  0  0  0  0  0  0  0  0  0
  1  7  2  0
  1  8  1  0
  2  7  1  0
  2  9  2  0
  3  8  2  0
  3  9  1  0
  4 10  2  0
  4 11  1  0
  5 10  1  0
  5 12  2  0
  6 11  2  0
  6 12  1  0
  7 13  1  0
  8 14  1  0
  9 23  1  0
 10 26  1  0
 11 40  1  0
 12 41  1  0
 13 30  1  0
 13 34  2  0
 14 32  1  0
 14 35  2  0
 15 16  1  0
 15 17  1  0
 16 21  1  0
 17 30  1  0
 18 20  1  0
 18 31  1  0
 19 22  1  0
 19 31  1  0
 20 33  1  0
 21 27  1  0
 21 30  1  0
 22 28  1  0
 22 33  1  0
 24 39  1  0
 25 42  1  0
 26 29  1  0
 27 39  1  0
 28 29  1  0
 28 38  1  0
 29 32  1  0
 31 42  1  0
 36 42  2  0
 37 42  2  0
  1 43  1  0
  2 44  1  0
  3 45  1  0
  4 46  1  0
  5 47  1  0
  6 48  1  0
 15 49  1  0
 15 50  1  0
 16 51  1  0
 16 52  1  0
 17 53  1  0
 17 54  1  0
 18 55  1  0
 18 56  1  0
 19 57  1  0
 19 58  1  0
 20 59  1  0
 20 60  1  0
 21 61  1  1
 22 62  1  1
 23 63  1  0
 23 64  1  0
 23 65  1  0
 24 66  1  0
 24 67  1  0
 24 68  1  0
 25 69  1  0
 25 70  1  0
 25 71  1  0
 26 72  1  0
 26 73  1  0
 27 74  1  0
 27 75  1  0
 28 76  1  1
 29 77  1  6
 32 78  1  0
 33 79  1  0
 33 80  1  0
 38 81  1  0
M  CHG  1  33   1
M  END
>  <OMEGA_C>  (10) 
jXbcQDgWdz0BaoXBswEBQaqh/L7cy2nBnNEFQUym2T++HXrBcA3fQGjWpT8kpqvBzMWnQM+Om76q
aKbBtJDrQAqSjL91r63Bxk3mQKCpXL9Uh3rB3BrvQHBcrD9lWIXBiTYKQbBeSj8vemnBjvS1QO5i
gz/Fd6fBwub5QLATbj6ws67BNmbCQDCHrr8ul6nBGpPTQI4eDcAU0XrBgAfkQMAnFEC8wo3BPl36
QGEVg8BjhJXBJiPmQOKnpMBYOI7BDHX1QOcWMcAne4/BEq2sQKoz/UAsOYrBuMzBQOYtwEDDYZbB
roiQQEj53UAD64PBYbbFQICLi8CdkIfBG5yiQGwgo0AO/Y/B7aUZQQpSlT+y31fB/B0pQOFGTcBS
QovB4GfdQNtNEUE/0KDBUriYQC8RCkCSNqTBdZKaQKz1hcCkZI3Bdf+MQBSBgUAOJ5fBS8KtQJPG
QkAcn5vBrynaQB9mQ8ClGYbBQEXPQMoC5kDyCpDBosi8QLTlC0BL25LBmy+AQE7YvECBJYvBpyK/
QLWuJcDsPGvBqKP8QNmiTkDU/Y/BB0QLQWAk6UD+h5rBo4wBQX7KEkGl0I3B6+JtQDiHlkAQrp/B
1z5/QEzDUsBsVofB0psQQeQI+z64uLLBnyq0QLijKMCNzKjB2jn2QEzWAkGF0pXBnJzGQDXlXb77
uovBqJQEQRYymb8+Ll3Bj2INQUf3KkBvMXrBcNrpQK04FEBjgKzBXnGIQLtWAr8CJ6PBWRAAQT8S
9b9pC7DBWS8OQaVWisAM45bBGoXpQFzJgcDDPJ3B4hLWQIOZvcCl9JLBv3T+QMd4s8AcDInBE3gK
QSJ1GcDi4IzB7CPmQN//AMCFpJTBQrWYQAo9B0EAC5DBojq7QGwZCkFipITB8VbeQOJ4rUBhipjB
0rKxQKQ2y0B4tJ3BsZqjQHLxzkANGHvBew1rQD1w70CIV4DBIJjAQDl7m8CepX/B+b20QOSbkkA6
rYnBz/8pQVtMYz+InlzBVeEYQbAZEEC9FFXBIk0VQQReIj8YGUnBOUkEQPKsIMAvPobBiskpQCr7
NcAZkJPBwzwLQMB9hsAM+4rBMV71QNqXG0GcsqTBlq/QQPrSBUFLrabBsyLDQO4+G0Elt53BqX2R
QNRpMUB6SKvBhbJ1QBxn3j89/aDBhTGgQFXycMAzZpXBVr6KQDVApcBuKI7BHMRrQHZVX0C4PJLB
277IQALcZUAUL5/B9E+pQF5Juj9/YJDBV9hZQNhhqUDhAYfBzBBfQJX2ykDQ/pDBmyFTQHzIgUCr
HaTByw3cQJCUcj34d4XB+MUAQefI+b402mnBlJ8FQUq12T/OSHrBsdOnQN3zkr5UiKbBOG7fQLNF
pz92qqvBFcrrQG5Zi79Up63Bx9vlQAAGXL9okXrBVbPuQFQ6rD8Ca4XB1mQKQfR+SD8B4GnBsSa2
QCpVhT/jk6fB7nTCQNm5rL8jpanBG0j6QK5qdj7Lp67BAUzTQJ0ODcB4wHrBG7njQFkYFEAS1o3B
Mb/4QF71gsC+pJXBs6zmQHGhpMBnCo7Bw070QFbhMMCAk4/Bn7CsQKRP/UAIOorB6KbBQHROwEDD
ZJbBzlaQQLIq3kB68YPBFQjGQGEQjMDHU4fBOXiiQCU/o0DRApDBessYQZxkmD+ymlfBi8spQAn5
TcA5J4vBiRPeQLsSEUFD36DBz+aYQKMoC0CCX6TBbVOaQCfsh8DB+YzBsOmMQGi0gUBQNpfBZ7et
QC9eQ0AatJvB3GTZQAAhQ8DKHIbBID3PQE395UCfCJDBN4e8QOwbDEBE9JLBqgeAQDX4vECnKovB
JAjAQLBwJsC84WrBb4b8QKQyTkAdF5DB+GcLQVKq6ECpYprBqJUBQUq9EkExzY3B5M5tQDvVlkCN
up/ByAKAQBE8U8BlRofBHQm0QHKeJ8B04KjBft0QQbHh/D6xnLLB0XL2QDq1AkHbyJXBGkHGQJjN
Yb7YyYvBogQEQbD8lr8S/FzBeukMQRGGK0BxNHrBdV+IQJln+r6nVqPBlV3qQDfeFEDpfqzB1y0A
Qfsk9L8v9a/BdUUNQeWjicBRc5fB0kjmQDQfgsAOIp3ByRnXQM+bvsAyhpLBEAoAQVEEssBv84jB
ofoJQd6MGcCZD43B0tnkQFGWAMCIrpTBGtqYQKdZB0GIDZDBQEu7QPIbCkF9oYTBrCLeQA6SrUBB
lZjBY4OxQFl5y0Dosp3BBUGjQBwoz0ClFHvBAppqQFW570AFaYDBh+jBQOerm8C0A3/Bu5O0QCas
kkA4tInBAXQpQeNzbj+VfFvBuYQXQTCoEUDYCVXBzeYTQT9NKT/A+EjBoQcGQJujHsBgaobBi1gq
QH9ROsBgmpPBjN0KQGd4hsAXa4rBVTn2QEtIG0G3vKTB6n3RQM6JBUEXuqbBwMHDQG8WG0Eo3J3B
iA2SQAHGMkB7cavBZq51QCTk4D+kPaHBXTOfQAhwecB8OpXBKluKQJlJp8A8GY3BrpFrQDuPX0Ab
UpLBjMvIQIafZkDvMZ/BavioQHbDuj9ngpDB1JZZQIKAqUBOBYfBBbReQB4My0BgBJHBjB9TQJ4k
gkD0L6TB9t3bQOCndj3dcIXBKhUBQafZ+75ODWrB7kUFQYs92z+HInrBF9XdQEzCqD8+iKvBZPqm
QCV0mb5nZabBKxvrQAr9iL/hp63B82rmQAK+Xb9Fv3rBA+vtQK9VrT8KUoXB+PoJQVjZTD9RoWnB
+MC0QEaKhD+AX6fBDw75QOGmhz46m67BafHBQMS1rL83nqnBvX3UQA0fDsDuK3vBADfiQCzfFECf
pY3BnQz6QPlRgcAuL5bB+3npQArmo8CBpo7BrbD1QHD8LsD81Y/BFbaqQD3mAEE4bozB0rXEQMfO
vkDFIJbB7byTQGAb4kCp8ITBLLvIQAqsjMDcqofBj1qiQGHOo0AJB5DBQmoZQQN1lz/aEFjBNust
QIuXUsAxJYvBN5zFQDbSH0EkaaDBQRKXQAn9CUCDEKTBJ3qcQGi8icD7DI3B2/SLQDHkgkDAPpfB
IB6sQLLwQkDdhJvBaaraQLj5QsDBb4bBfmS7QCNs7UC4cJbBgMm6QB+NDEB8q5LBiiCBQP8Lv0DS
KYvBX6PBQEPyKMAXVGvBV4f6QAjgT0DT3Y/Bi7fiQCU890C4jajBShkCQaeiCUHhXZfBvsZuQL3E
mEBk2p/BxRWAQKzpYcCPZobBWioQQbozCT9PmbLB+/qzQLj2J8A/76jBLjbeQJb0BUGiC57B1+3F
QKwmYb7MuovBwOcEQQFOmb8pi13BmqIMQTcnLEA1KnrBwlLoQGfpFUDAWazBR66HQAJWBL9yK6PB
lvP/QFuO8L9BBbDBOtoNQcFHh8DBSZjBtafmQHEZgMCThZ3BjjraQJT4vcBtK5PBfs8BQQL0sMCa
vonBdK4KQTdqGMBOO43Bo1nmQMsL+78+yZTB3/uTQEOQDUEpro7Btc3FQBv/B0EhE4jBu8XjQLUn
ukC5J5LB65XGQAQCs0DTZ57BQeOqQLIC1UAOWn7BREt0QMLw8kC4moDB8dzFQJ69nMDRvX/BaOiy
QGA3kkBWoInBk84pQdYhbD+y7VzBdGUYQXMIEUBFJVXBO0cVQdvtIz8VVEnBDGAGQIuYLMCPoIXB
kiU2QFdXL8BhsZLBCjMOQN0NiMA1wYzBbD7bQLnKKUHJPaXBNjunQN6aHUEyt6TBYW2/QBnAJ0E8
tZjBa2OPQMo0MUCcHavBx+xyQFfP3D/PyKDBULafQA9XdMDn5pTBaFGPQCkbqsDkHI7BILxnQLnx
Y0CKa5LBHIDHQJWTZEBFHJ/BVRqnQDACvT8rF5DBUwxeQMIWrUB3VIbBpdddQKZgy0C8+ZDBavJS
QLeVhEDlWKTB02LcQHxIqT25lYXBZh4CQQYx5b47sWrB/v4FQTol3z8vSnvBDevbQDiFoj/TE6zB
UFClQMtunr4MEKbBYCToQNqvkL8Is63BiL3nQGYmVb+P+3rB8oruQPwmsD/7soXBKBMLQVZzVz9X
vGrB5k2zQJ38gT+Qj6fBsV72QHfiSD6SG6/BOYS/QO2fsL/DNqnBb9HVQBPnC8CZz3rB5YHiQPGI
FUAVHI7BNUv4QPWSgsDp7pXBcBTnQC1BpMBkN47BRc70QBAeMMCk0I/BX6WoQD0UAEHRv4vBjdbC
QJUbwED0jpbB16mSQNzZ3kANkYTBvYzHQL2ri8D9LYfBPRqiQORFo0B6a5DBmgsbQbwcnT8srlnB
XNcrQIPSTMBh2onBdkgFQbWvCEFnOJfBnmuWQHULCkBpY6TB4eaaQOqih8D2WIzBbcyLQMnBgkAc
tJfBNQCsQGYcQ0Dy8pvB0fjaQDEsQsCGKYbB3Xy3QIlt7kCYPZbBF+e6QCIWDUCFDZPBaYOAQP6r
vEAeIYvB/JLDQFZQJcD6pGrB1+n6QJPmT0DfhpDBwQvFQO3JHUHrBJ3BQcjdQE64/ECeYqjBjNhu
QNzgmED9TqDBzXOBQOg5U8BtUIbBUJQOQV5h4T7QfLPBEk6xQIhcKcC6BqjBgR3XQBkgCEEK0J3B
7cnFQFY7Ur7js4vBvS8GQXBtkr8eIF7BqmMNQVAHLkDCqnvBzqfmQMRWEkAiNK3BG3SGQESdAL8i
fqLBKlz8QKNF+r9ZDrDBdegMQWpeicAFA5jB8uPkQLWZgcCBRZ3B5rfWQHUKvsCvl5LBa40AQWnn
scBSX4nB8GYKQeMtGcB6h43BaOTkQEcp/7+Vy5TBVdCRQHwXDUGqVo3B5pHEQIh9BkHQdIfBeJri
QPfvu0DA6ZLBaujDQBW9tUC09p7BUkyqQBsy0UA8BX7BPeNxQPtm7kDf+H/BQMjEQD1Am8BQo37B
4PGzQP9ukUCcSIrBM0MrQQ/4dD93+V7BzjkaQU38E0C54lbB10YXQeK+MT8CwUrBAI4JQMz/HcAd
34TBcoEqQGfgN8C8QJLBbaoMQMnYhcDyJonBZDUQQac+E0F5qZvBzlQDQee8DkHDA4/BhfgLQR3U
8EDl95bBJh+PQJW/MEBRgqvBURhxQDYD4D+WD6HBJUqeQANkeMBioJTBORaLQGMVp8CkWYzBhSdn
QLt7Y0AB8ZLBCz3HQOSkZECfn5/Biz2nQNWavj8jZJDBR0BeQGVdqUCqdYbBi11bQJOpyUAjuZDB
bRhTQOjShECl2KTB

>  <OMEGA_E>  (10) 
sEZpPsCkZj5wleM+KGjkPg==

>  <OMEGA_NBR>  (10) 
     32502

$$$$
50162152
     RDKit          3D

 85 89  0  0  1  0  0  0  0  0999 V2000
    6.4014    9.7892  -20.4564 C   0  0  0  0  0  0  0  0  0  0  0  0
    6.1039    9.9542  -21.8908 C   0  0  0  0  0  0  0  0  0  0  0  0
    6.8964    0.1041  -16.7330 C   0  0  0  0  0  0  0  0  0  0  0  0
    8.1501   -0.4254  -14.7098 C   0  0  0  0  0  0  0  0  0  0  0  0
    8.3961    1.7620  -15.7546 C   0  0  0  0  0  0  0  0  0  0  0  0
    6.8193    1.3019  -21.5393 C   0  0  0  0  0  0  0  0  0  0  0  0
    5.1167   -0.2889  -20.8027 C   0  0  0  0  0  0  0  0  0  0  0  0
    7.1995   -1.0950  -21.7819 C   0  0  0  0  0  0  0  0  0  0  0  0
    7.2503   -0.8089  -15.7204 C   0  0  0  0  0  0  0  0  0  0  0  0
    7.4725    1.3930  -16.7560 C   0  0  0  0  0  0  0  0  0  0  0  0
    8.7140    0.8628  -14.7189 C   0  0  0  0  0  0  0  0  0  0  0  0
    5.5551    1.0397  -20.9677 C   0  0  0  0  0  0  0  0  0  0  0  0
    7.6428    0.2341  -21.9404 C   0  0  0  0  0  0  0  0  0  0  0  0
    5.9330   -1.3539  -21.2195 C   0  0  0  0  0  0  0  0  0  0  0  0
    7.1417    8.6573  -20.2088 C   0  0  0  0  0  0  0  0  0  0  0  0
    6.6193    8.9316  -22.6528 C   0  0  0  0  0  0  0  0  0  0  0  0
    6.6897   -2.1624  -15.7107 C   0  0  0  0  0  0  0  0  0  0  0  0
    7.0959    2.3475  -17.8080 C   0  0  0  0  0  0  0  0  0  0  0  0
    7.8326   -4.0301  -18.7562 C   0  0  0  0  0  0  0  0  0  0  0  0
    7.2182   -5.0941  -17.8439 C   0  0  0  0  0  0  0  0  0  0  0  0
    7.6033   -2.6926  -18.0379 C   0  0  0  0  0  0  0  0  0  0  0  0
    5.3847    7.8886  -17.2102 C   0  0  0  0  0  0  0  0  0  0  0  0
    6.0238    6.0007  -18.7570 C   0  0  0  0  0  0  0  0  0  0  0  0
    4.4791    6.9142  -16.4516 C   0  0  0  0  0  0  0  0  0  0  0  0
    6.2385   -4.3280  -16.9541 C   0  0  2  0  0  0  0  0  0  0  0  0
    5.0308    5.0914  -17.9886 C   0  0  2  0  0  0  0  0  0  0  0  0
    9.7174    1.2515  -13.6597 C   0  0  0  0  0  0  0  0  0  0  0  0
    2.6875   -3.1549  -17.2797 C   0  0  0  0  0  0  0  0  0  0  0  0
    4.6589    2.1771  -20.5420 C   0  0  0  0  0  0  0  0  0  0  0  0
    4.8481   -4.1780  -17.6063 C   0  0  0  0  0  0  0  0  0  0  0  0
    4.3432    4.0699  -18.9089 C   0  0  2  0  0  0  0  0  0  0  0  0
    5.3510    3.0667  -19.4927 C   0  0  1  0  0  0  0  0  0  0  0  0
    6.8670   -3.0125  -16.8006 N   0  0  0  0  0  0  0  0  0  0  0  0
    6.4628    7.1478  -17.9225 N   0  0  0  0  0  0  0  0  0  0  0  0
    5.8520    2.2133  -18.4081 N   0  0  0  0  0  0  0  0  0  0  0  0
    3.9626    5.9023  -17.3786 N   0  0  0  0  0  0  0  0  0  0  0  0
    6.1131   -2.5598  -14.7043 O   0  0  0  0  0  0  0  0  0  0  0  0
    7.8605    3.2536  -18.1212 O   0  0  0  0  0  0  0  0  0  0  0  0
    7.8993    9.2906  -17.7537 O   0  0  0  0  0  0  0  0  0  0  0  0
    8.8650    7.1991  -18.8437 O   0  0  0  0  0  0  0  0  0  0  0  0
    3.6596    4.7559  -19.9601 O   0  0  0  0  0  0  0  0  0  0  0  0
    4.0518   -3.2462  -16.8452 O   0  0  0  0  0  0  0  0  0  0  0  0
    8.8511    0.4859  -22.4924 F   0  0  0  0  0  0  0  0  0  0  0  0
    5.4935   -2.6247  -21.0875 F   0  0  0  0  0  0  0  0  0  0  0  0
    7.4501    7.7645  -21.6719 S   0  0  0  0  0  0  0  0  0  0  0  0
    7.7297    8.0988  -18.5965 S   0  0  0  0  0  0  0  0  0  0  0  0
    6.5073    8.8133  -24.3877 Cl  0  0  0  0  0  0  0  0  0  0  0  0
    6.0759   10.4769  -19.6899 H   0  0  0  0  0  0  0  0  0  0  0  0
    5.5447   10.7839  -22.2973 H   0  0  0  0  0  0  0  0  0  0  0  0
    6.1838   -0.1819  -17.4925 H   0  0  0  0  0  0  0  0  0  0  0  0
    8.4083   -1.1214  -13.9254 H   0  0  0  0  0  0  0  0  0  0  0  0
    8.8601    2.7368  -15.7828 H   0  0  0  0  0  0  0  0  0  0  0  0
    7.1537    2.3207  -21.6683 H   0  0  0  0  0  0  0  0  0  0  0  0
    4.1539   -0.4887  -20.3561 H   0  0  0  0  0  0  0  0  0  0  0  0
    7.8306   -1.9149  -22.0914 H   0  0  0  0  0  0  0  0  0  0  0  0
    8.9086   -4.2143  -18.8915 H   0  0  0  0  0  0  0  0  0  0  0  0
    7.3344   -4.0302  -19.7370 H   0  0  0  0  0  0  0  0  0  0  0  0
    6.6894   -5.8547  -18.4371 H   0  0  0  0  0  0  0  0  0  0  0  0
    7.9960   -5.5790  -17.2357 H   0  0  0  0  0  0  0  0  0  0  0  0
    8.5663   -2.2187  -17.7972 H   0  0  0  0  0  0  0  0  0  0  0  0
    7.0099   -2.0164  -18.6709 H   0  0  0  0  0  0  0  0  0  0  0  0
    4.7833    8.4467  -17.9429 H   0  0  0  0  0  0  0  0  0  0  0  0
    5.8386    8.5920  -16.4966 H   0  0  0  0  0  0  0  0  0  0  0  0
    6.9051    5.4075  -19.0426 H   0  0  0  0  0  0  0  0  0  0  0  0
    5.5310    6.3844  -19.6625 H   0  0  0  0  0  0  0  0  0  0  0  0
    5.0566    6.4212  -15.6557 H   0  0  0  0  0  0  0  0  0  0  0  0
    3.6383    7.4663  -16.0063 H   0  0  0  0  0  0  0  0  0  0  0  0
    6.1412   -4.8320  -15.9812 H   0  0  0  0  0  0  0  0  0  0  0  0
    5.5810    4.5508  -17.2044 H   0  0  0  0  0  0  0  0  0  0  0  0
   10.7289    0.9772  -13.9939 H   0  0  0  0  0  0  0  0  0  0  0  0
    9.6693    2.3373  -13.4901 H   0  0  0  0  0  0  0  0  0  0  0  0
    9.4850    0.7234  -12.7232 H   0  0  0  0  0  0  0  0  0  0  0  0
    2.1504   -2.4280  -16.6527 H   0  0  0  0  0  0  0  0  0  0  0  0
    2.6582   -2.8261  -18.3290 H   0  0  0  0  0  0  0  0  0  0  0  0
    2.2078   -4.1407  -17.1908 H   0  0  0  0  0  0  0  0  0  0  0  0
    4.4105    2.7876  -21.4227 H   0  0  0  0  0  0  0  0  0  0  0  0
    3.7354    1.7642  -20.1098 H   0  0  0  0  0  0  0  0  0  0  0  0
    4.9648   -3.8047  -18.6344 H   0  0  0  0  0  0  0  0  0  0  0  0
    4.3462   -5.1567  -17.6264 H   0  0  0  0  0  0  0  0  0  0  0  0
    3.6147    3.5073  -18.3066 H   0  0  0  0  0  0  0  0  0  0  0  0
    6.1803    3.6131  -19.9657 H   0  0  0  0  0  0  0  0  0  0  0  0
    5.2539    1.4829  -18.0782 H   0  0  0  0  0  0  0  0  0  0  0  0
    3.3461    5.2947  -16.8779 H   0  0  0  0  0  0  0  0  0  0  0  0
    3.4564    6.3644  -18.1068 H   0  0  0  0  0  0  0  0  0  0  0  0
    3.2352    4.1236  -20.5280 H   0  0  0  0  0  0  0  0  0  0  0  0
  1  2  1  0
  1 15  2  0
  2 16  2  0
  3  9  2  0
  3 10  1  0
  4  9  1  0
  4 11  2  0
  5 10  2  0
  5 11  1  0
  6 12  2  0
  6 13  1  0
  7 12  1  0
  7 14  2  0
  8 13  2  0
  8 14  1  0
  9 17  1  0
 10 18  1  0
 11 27  1  0
 12 29  1  0
 13 43  1  0
 14 44  1  0
 15 45  1  0
 15 46  1  0
 16 45  1  0
 16 47  1  0
 17 33  1  0
 17 37  2  0
 18 35  1  0
 18 38  2  0
 19 20  1  0
 19 21  1  0
 20 25  1  0
 21 33  1  0
 22 24  1  0
 22 34  1  0
 23 26  1  0
 23 34  1  0
 24 36  1  0
 25 30  1  0
 25 33  1  0
 26 31  1  0
 26 36  1  0
 28 42  1  0
 29 32  1  0
 30 42  1  0
 31 32  1  0
 31 41  1  0
 32 35  1  0
 34 46  1  0
 39 46  2  0
 40 46  2  0
  1 48  1  0
  2 49  1  0
  3 50  1  0
  4 51  1  0
  5 52  1  0
  6 53  1  0
  7 54  1  0
  8 55  1  0
 19 56  1  0
 19 57  1  0
 20 58  1  0
 20 59  1  0
 21 60  1  0
 21 61  1  0
 22 62  1  0
 22 63  1  0
 23 64  1  0
 23 65  1  0
 24 66  1  0
 24 67  1  0
 25 68  1  1
 26 69  1  1
 27 70  1  0
 27 71  1  0
 27 72  1  0
 28 73  1  0
 28 74  1  0
 28 75  1  0
 29 76  1  0
 29 77  1  0
 30 78  1  0
 30 79  1  0
 31 80  1  1
 32 81  1  6
 35 82  1  0
 36 83  1  0
 36 84  1  0
 41 85  1  0
M  CHG  1  36   1
M  END
>  <OMEGA_C>  (11) 
DdjMQL2gHEHOpqPBNlPDQHBEH0FUIK/BMa/cQJI/1T1E3YXBpGYCQd7O2b5BW2vBOVYGQRaJ4T/g
EnzBGzjaQLGkpj93UKzBOryjQKDqk77ka6bBkGLmQJMnjL9DQa7BJgLoQOMVT7/thnvBpB7vQIxO
sj9PDIbBqmwLQZDfXD/CgGvBjMOxQHwUhT/lvafBf5H0QGmvbz71ha/B/dq9QBlOrb+TwanBtojk
QHCECkGyq6HBEdHTQPPnDkHcOLXBBRLWQItkCsDUXnvBhRHjQKQ8FkC5do7Br6T6QEL2gMDJDJbB
bvvmQCEDo8BJwI7B2U3zQD5TLMC3TZDBL0+sQG5v/ECFronBGMPAQJ4FwEBtDpbBjlSPQNpA3UDV
nIPBwqHHQP1+isAJoofB9fugQMHsokCz6I/BjnobQdowoD9SjlrBnAAsQC7pScC/PIrBohWVQCNW
C0DxVaTBeSObQHSyhcC32YzBGvuKQNQ8gkB/RZfBNjurQCxEREAX8ZvBwb7bQJ3MQMCSZ4bBpM/O
QPC65EBFYY/B5kO7QKumDUDKQ5PBe5t9QAbgvEBoB4vBbp7DQBTTI8CiRGvB2Ij7QGo6UEAr+JDB
DMf8QCKmFEGRB47BGtcNQc9e5kDuv5bBHjdqQJQwmEBNrp/BDqiBQPjBT8AKw4bBRp4NQbLG+D5m
8LPBpcqvQKn6J8Ats6jBAmfuQOd2+EAKYK3BlFn3QNuUAUGIxZTB6TvQQC0DDUH+GcPBIG7CQGCh
J0HghJ3BK26xQAeLLEHNYLLBneHFQOxPOr6h8IvBaYgGQe2Jj79Kzl7BJ8MNQYsnL0B3hnzBMevk
QFKGFEDEWK3Bz+yEQNo1+r472aLBIpT6QAgd9b8eu7DBlIkOQafbhsDiIZfBbrPqQJj3gMBJ5Z3B
Vw/WQFlZu8BGf5PBdd//QH+HssDQ4onBow8JQSv/DcC8YI7BU1HgQAUMAcAZXpXBuBCZQJ4lB0Em
i4/BztW6QKp4CUEO+YPBXPbcQJEKrUBRV5jBr/2wQAJNzEDRTJ3Brc+hQGl6zUC2fXrBgtpoQBDs
7kDaDIDBv4TEQOufmsAms3/BY5eyQM+fkUCsoonBqakrQWIrej/t5l/BT7UaQayVFUBh11fBeMIX
QbIuOT9dkkvBcaAJQI1jG8CuOIXBqyAqQL3eNMC9oZLB5EsNQLaAhMCyhonBJyONQBtoMkCiYavB
gxFvQN/S4T/b4KDB19+eQLl/c8A/E5XB7xOLQE4DpcDVAo3B1ldnQAN3YEDkc5LB6MTFQFQ8Z0C6
uZ/BIyCoQB3RvT8hoJDBCidWQHluqUDaBYfBzDVdQEipy0C52pDBpQ1PQEP0g0BWOaTB

>  <OMEGA_E>  (11) 
wJoTPg==

>  <OMEGA_NBR>  (11) 
     34216

$$$$
50162127
     RDKit          3D

 87 90  0  0  1  0  0  0  0  0999 V2000
    5.7269   10.7571  -20.9061 C   0  0  0  0  0  0  0  0  0  0  0  0
    5.7967   10.2088  -22.2013 C   0  0  0  0  0  0  0  0  0  0  0  0
    6.3289   10.0876  -19.8254 C   0  0  0  0  0  0  0  0  0  0  0  0
    6.8030    1.2086  -21.4579 C   0  0  0  0  0  0  0  0  0  0  0  0
    5.1455   -0.4022  -20.6633 C   0  0  0  0  0  0  0  0  0  0  0  0
    7.0797    8.3208  -21.3354 C   0  0  0  0  0  0  0  0  0  0  0  0
    7.1942   -1.1837  -21.7273 C   0  0  0  0  0  0  0  0  0  0  0  0
    6.4589    8.9807  -22.4161 C   0  0  0  0  0  0  0  0  0  0  0  0
    5.5708    0.9298  -20.8275 C   0  0  0  0  0  0  0  0  0  0  0  0
    7.6169    0.1502  -21.9012 C   0  0  0  0  0  0  0  0  0  0  0  0
    5.9530   -1.4571  -21.1177 C   0  0  0  0  0  0  0  0  0  0  0  0
    7.0179    8.8752  -20.0388 C   0  0  0  0  0  0  0  0  0  0  0  0
    6.6933   -2.0511  -15.5566 C   0  0  0  0  0  0  0  0  0  0  0  0
    7.2121    2.4573  -17.6878 C   0  0  0  0  0  0  0  0  0  0  0  0
    8.0183   -3.9356  -18.4443 C   0  0  0  0  0  0  0  0  0  0  0  0
    6.8454   -4.8375  -18.1047 C   0  0  0  0  0  0  0  0  0  0  0  0
    7.5875   -2.5861  -17.8957 C   0  0  0  0  0  0  0  0  0  0  0  0
    5.4175    7.8566  -17.2328 C   0  0  0  0  0  0  0  0  0  0  0  0
    5.9844    5.9646  -18.7879 C   0  0  0  0  0  0  0  0  0  0  0  0
    4.4670    6.9196  -16.4787 C   0  0  0  0  0  0  0  0  0  0  0  0
    6.3004   -4.2741  -16.7775 C   0  0  2  0  0  0  0  0  0  0  0  0
    5.0191    5.0711  -17.9779 C   0  0  2  0  0  0  0  0  0  0  0  0
    6.5707    8.4125  -23.8140 C   0  0  0  0  0  0  0  0  0  0  0  0
    2.7841   -3.0657  -17.3755 C   0  0  0  0  0  0  0  0  0  0  0  0
    4.6739    2.0483  -20.3721 C   0  0  0  0  0  0  0  0  0  0  0  0
    7.4574   -0.7206  -15.4709 C   0  0  0  0  0  0  0  0  0  0  0  0
    7.6943    1.5693  -16.5289 C   0  0  0  0  0  0  0  0  0  0  0  0
    4.7572   -4.2974  -16.7656 C   0  0  0  0  0  0  0  0  0  0  0  0
    6.8280    0.3004  -16.4269 C   0  0  0  0  0  0  0  0  0  0  0  0
    4.3565    4.0023  -18.8489 C   0  0  2  0  0  0  0  0  0  0  0  0
    5.3900    2.9989  -19.3927 C   0  0  1  0  0  0  0  0  0  0  0  0
    6.8555   -2.9037  -16.6561 N   0  0  0  0  0  0  0  0  0  0  0  0
    6.4727    7.0793  -17.9477 N   0  0  0  0  0  0  0  0  0  0  0  0
    5.9613    2.2285  -18.2696 N   0  0  0  0  0  0  0  0  0  0  0  0
    3.9482    5.8965  -17.3945 N   0  0  0  0  0  0  0  0  0  0  0  0
    5.9507   -2.3656  -14.6336 O   0  0  0  0  0  0  0  0  0  0  0  0
    7.9438    3.3575  -18.0812 O   0  0  0  0  0  0  0  0  0  0  0  0
    8.1477    9.0078  -17.6385 O   0  0  0  0  0  0  0  0  0  0  0  0
    8.7501    7.0570  -19.1579 O   0  0  0  0  0  0  0  0  0  0  0  0
    3.6567    4.6350  -19.9241 O   0  0  0  0  0  0  0  0  0  0  0  0
    4.2013   -3.2306  -17.5632 O   0  0  0  0  0  0  0  0  0  0  0  0
    8.7963    0.4150  -22.5071 F   0  0  0  0  0  0  0  0  0  0  0  0
    5.5334   -2.7328  -20.9667 F   0  0  0  0  0  0  0  0  0  0  0  0
    7.7519    7.9997  -18.6313 S   0  0  0  0  0  0  0  0  0  0  0  0
    5.2111   11.6918  -20.7426 H   0  0  0  0  0  0  0  0  0  0  0  0
    5.3428   10.7288  -23.0319 H   0  0  0  0  0  0  0  0  0  0  0  0
    6.2635   10.5025  -18.8304 H   0  0  0  0  0  0  0  0  0  0  0  0
    7.1199    2.2313  -21.5993 H   0  0  0  0  0  0  0  0  0  0  0  0
    4.1987   -0.6124  -20.1880 H   0  0  0  0  0  0  0  0  0  0  0  0
    7.6029    7.3904  -21.5000 H   0  0  0  0  0  0  0  0  0  0  0  0
    7.8219   -1.9965  -22.0615 H   0  0  0  0  0  0  0  0  0  0  0  0
    8.9393   -4.2848  -17.9546 H   0  0  0  0  0  0  0  0  0  0  0  0
    8.1769   -3.8871  -19.5317 H   0  0  0  0  0  0  0  0  0  0  0  0
    6.0781   -4.7911  -18.8916 H   0  0  0  0  0  0  0  0  0  0  0  0
    7.1784   -5.8782  -17.9783 H   0  0  0  0  0  0  0  0  0  0  0  0
    8.4638   -1.9577  -17.6788 H   0  0  0  0  0  0  0  0  0  0  0  0
    6.9324   -2.0675  -18.6112 H   0  0  0  0  0  0  0  0  0  0  0  0
    4.8416    8.4410  -17.9655 H   0  0  0  0  0  0  0  0  0  0  0  0
    5.8963    8.5386  -16.5148 H   0  0  0  0  0  0  0  0  0  0  0  0
    6.8403    5.3621  -19.1259 H   0  0  0  0  0  0  0  0  0  0  0  0
    5.4553    6.3726  -19.6617 H   0  0  0  0  0  0  0  0  0  0  0  0
    5.0110    6.4318  -15.6564 H   0  0  0  0  0  0  0  0  0  0  0  0
    3.6286    7.5020  -16.0690 H   0  0  0  0  0  0  0  0  0  0  0  0
    6.6705   -4.8964  -15.9494 H   0  0  0  0  0  0  0  0  0  0  0  0
    5.5852    4.5765  -17.1748 H   0  0  0  0  0  0  0  0  0  0  0  0
    7.4767    8.8053  -24.2986 H   0  0  0  0  0  0  0  0  0  0  0  0
    6.6301    7.3155  -23.7601 H   0  0  0  0  0  0  0  0  0  0  0  0
    5.6862    8.7035  -24.3998 H   0  0  0  0  0  0  0  0  0  0  0  0
    2.4234   -2.2412  -18.0081 H   0  0  0  0  0  0  0  0  0  0  0  0
    2.2667   -3.9954  -17.6548 H   0  0  0  0  0  0  0  0  0  0  0  0
    2.5786   -2.8346  -16.3198 H   0  0  0  0  0  0  0  0  0  0  0  0
    4.3485    2.6233  -21.2515 H   0  0  0  0  0  0  0  0  0  0  0  0
    3.7951    1.6171  -19.8702 H   0  0  0  0  0  0  0  0  0  0  0  0
    7.4080   -0.3363  -14.4414 H   0  0  0  0  0  0  0  0  0  0  0  0
    8.5085   -0.8841  -15.7511 H   0  0  0  0  0  0  0  0  0  0  0  0
    8.7408    1.2802  -16.7054 H   0  0  0  0  0  0  0  0  0  0  0  0
    7.6234    2.1330  -15.5870 H   0  0  0  0  0  0  0  0  0  0  0  0
    4.4120   -5.2610  -17.1685 H   0  0  0  0  0  0  0  0  0  0  0  0
    4.4070   -4.1869  -15.7287 H   0  0  0  0  0  0  0  0  0  0  0  0
    6.7341   -0.1520  -17.4251 H   0  0  0  0  0  0  0  0  0  0  0  0
    5.8305    0.5752  -16.0535 H   0  0  0  0  0  0  0  0  0  0  0  0
    3.6412    3.4475  -18.2239 H   0  0  0  0  0  0  0  0  0  0  0  0
    6.1838    3.5431  -19.9254 H   0  0  0  0  0  0  0  0  0  0  0  0
    5.4093    1.4834  -17.8952 H   0  0  0  0  0  0  0  0  0  0  0  0
    3.3226    5.3014  -16.8901 H   0  0  0  0  0  0  0  0  0  0  0  0
    3.4525    6.3500  -18.1352 H   0  0  0  0  0  0  0  0  0  0  0  0
    3.2441    3.9734  -20.4668 H   0  0  0  0  0  0  0  0  0  0  0  0
  1  2  2  0
  1  3  1  0
  2  8  1  0
  3 12  2  0
  4  9  2  0
  4 10  1  0
  5  9  1  0
  5 11  2  0
  6  8  2  0
  6 12  1  0
  7 10  2  0
  7 11  1  0
  8 23  1  0
  9 25  1  0
 10 42  1  0
 11 43  1  0
 12 44  1  0
 13 26  1  0
 13 32  1  0
 13 36  2  0
 14 27  1  0
 14 34  1  0
 14 37  2  0
 15 16  1  0
 15 17  1  0
 16 21  1  0
 17 32  1  0
 18 20  1  0
 18 33  1  0
 19 22  1  0
 19 33  1  0
 20 35  1  0
 21 28  1  0
 21 32  1  0
 22 30  1  0
 22 35  1  0
 24 41  1  0
 25 31  1  0
 26 29  1  0
 27 29  1  0
 28 41  1  0
 30 31  1  0
 30 40  1  0
 31 34  1  0
 33 44  1  0
 38 44  2  0
 39 44  2  0
  1 45  1  0
  2 46  1  0
  3 47  1  0
  4 48  1  0
  5 49  1  0
  6 50  1  0
  7 51  1  0
 15 52  1  0
 15 53  1  0
 16 54  1  0
 16 55  1  0
 17 56  1  0
 17 57  1  0
 18 58  1  0
 18 59  1  0
 19 60  1  0
 19 61  1  0
 20 62  1  0
 20 63  1  0
 21 64  1  1
 22 65  1  1
 23 66  1  0
 23 67  1  0
 23 68  1  0
 24 69  1  0
 24 70  1  0
 24 71  1  0
 25 72  1  0
 25 73  1  0
 26 74  1  0
 26 75  1  0
 27 76  1  0
 27 77  1  0
 28 78  1  0
 28 79  1  0
 29 80  1  0
 29 81  1  0
 30 82  1  1
 31 83  1  6
 34 84  1  0
 35 85  1  0
 35 86  1  0
 40 87  1  0
M  CHG  1  35   1
M  END
>  <OMEGA_C>  (12) 
ekK3QDwdLEG/P6fBuH65QCNXI0FDnLHB+4XKQOhmIUFSmp7BkLLZQF+zmj+7qavB4KekQObqzb5a
TqXBr4ziQPYhBUEAr6rB9zbmQNiCl7+Z0a3B7a7OQMWwD0FFVLPB0kOyQC0Kbj+4nqbB6L3zQInR
GT66Na/B736+QDCDur8L8ajBZZLgQNMADkF7T6DBNS/WQBBFA8DD53jBwsnmQBhFHUCkgI3B7koA
QQLhe8DljZPBeQ3bQK3MmsB41pDBr8zyQCyDJcBvKo/BSVytQJlp+0Dd3InB+n+/QBDevkCdTZbB
XvGOQANt3UBi1IPBAZ3JQIzFiMBoOIbBXpygQIJGokCz0o/BIkPSQL+ZBkEgg77BmC4yQBo0RMAD
AYvBa5CVQMkWA0AH+qLBZqPuQId6OL/yiHfBfjf2QC7fyD9GO4TB0DqYQCaEicDgH4bBVX/aQMbP
mT5NaoPBi2iLQNgSgECNypbBPHusQJXuP0AxJJvBqWDbQArXOcDFP4XBIyDPQK2J4kDQlI/B/MK+
QGifDkAoKJLBLK98QPuvvEDhJ4vBeWy+QE5lF8BkI2rBnjP+QCjhVkBjppDB7VwCQewfEEGVG43B
kQAMQdjS4UBdQ5nBKAdqQEFSlECaZJ/BVXGGQNDCTsBygYzBrb0MQS951D6ZDrTB7BGxQOXlLsC2
u6fB3w/4QJ79/0DaDJXB/8CmQKERO0HU8KXBWfiqQEapK0FbQbjBRG7IQDcKKEGUpJbBG9bjQGvO
DkBVy6zBCFyGQGvHHL8RgaHBtErzQGR+7EAXAKzBIU36QB2O/7/7fbDBYQcPQWEdicAJo4/BntQC
QbTGeMDwQJzB6n/CQINQmcDuIZfBzLXlQDkavMCA04/Bz2sHQWyU+r8ubo3BTNbdQDtSBMC+45TB
XO6aQGEOB0FouY/Bwq68QEWeCEFHHoTB/OPaQASWq0DvAZnByJGuQLrsy0A4S53BE1qgQCvRzUDN
gHrB9DpoQLMQ8EBOjYDB83TVQF6vnMDdMH/B7LmyQNdykkAJZonBP0HvQK3iDEGTY8LBGyrUQEwY
6kDEFL7BvPW1QHtBC0G8MsPBUhkbQAtwD8COEJDBnRERQOCzf8AGPY3BCgglQJhqNcALj4LBnCaL
QGHkJ0AhA6rBGONyQDj9zj839p7B9Q3tQOUvrL4nEGfB4iIIQdRVYr+yBHzBctoLQSvdoz+YpIXB
zfLzQGKCCEBOZHnB+C6NQL9ZqMAbWYnB3wWNQHf7hcCfqHvB+X3XQOirG76yZovBY5O6QEc9Ez+h
bYDBIgppQFykXECOypHB7+HFQFLCYkAuZ5/BUxmtQIrfvT9kKY/B36RUQK6kqUDjHofBNPVcQOky
y0DMFJHBk59PQGlMfkASvKPB

>  <OMEGA_E>  (12) 
YL9zPg==

>  <OMEGA_NBR>  (12) 
     38941

$$$$
