50197336
     RDKit          3D

 88 91  0  0  1  0  0  0  0  0999 V2000
   12.9423    1.0088  -13.0890 C   0  0  0  0  0  0  0  0  0  0  0  0
   12.5240   -0.0836  -13.8754 C   0  0  0  0  0  0  0  0  0  0  0  0
   12.0287    2.0287  -12.7517 C   0  0  0  0  0  0  0  0  0  0  0  0
   11.1885   -0.1656  -14.3100 C   0  0  0  0  0  0  0  0  0  0  0  0
   10.6907    1.9473  -13.1849 C   0  0  0  0  0  0  0  0  0  0  0  0
    6.7839    1.1379  -21.0745 C   0  0  0  0  0  0  0  0  0  0  0  0
    4.9592   -0.4540  -20.7661 C   0  0  0  0  0  0  0  0  0  0  0  0
    7.1030   -1.2080  -21.6547 C   0  0  0  0  0  0  0  0  0  0  0  0
   10.2647    0.8346  -13.9418 C   0  0  0  0  0  0  0  0  0  0  0  0
    5.4622    0.8570  -20.6550 C   0  0  0  0  0  0  0  0  0  0  0  0
    7.6070    0.1029  -21.5534 C   0  0  0  0  0  0  0  0  0  0  0  0
    5.7744   -1.4815  -21.2772 C   0  0  0  0  0  0  0  0  0  0  0  0
    6.1286   -1.1294  -16.2256 C   0  0  0  0  0  0  0  0  0  0  0  0
    6.9937    2.0495  -17.5446 C   0  0  0  0  0  0  0  0  0  0  0  0
    7.6728   -2.3986  -17.5633 C   0  0  0  0  0  0  0  0  0  0  0  0
    6.1868    5.6153  -18.0981 C   0  0  0  0  0  0  0  0  0  0  0  0
    7.7649   -0.9157  -17.8843 C   0  0  0  0  0  0  0  0  0  0  0  0
    4.7820    7.0715  -16.7943 C   0  0  0  0  0  0  0  0  0  0  0  0
    6.2956   -2.5160  -16.9015 C   0  0  2  0  0  0  0  0  0  0  0  0
    5.9377    7.0901  -17.7810 C   0  0  2  0  0  0  0  0  0  0  0  0
    4.9158    4.8781  -17.6005 C   0  0  2  0  0  0  0  0  0  0  0  0
    4.9716    9.5224  -21.3093 C   0  0  0  0  0  0  0  0  0  0  0  0
    5.2090   -4.3712  -18.2805 C   0  0  0  0  0  0  0  0  0  0  0  0
    3.7845   -2.4174  -17.6230 C   0  0  0  0  0  0  0  0  0  0  0  0
    8.8386    0.7316  -14.4109 C   0  0  0  0  0  0  0  0  0  0  0  0
    4.5455    1.9627  -20.1760 C   0  0  0  0  0  0  0  0  0  0  0  0
    6.3027    8.7932  -21.0689 C   0  0  0  0  0  0  0  0  0  0  0  0
    8.7095    1.3926  -15.7863 C   0  0  0  0  0  0  0  0  0  0  0  0
    6.5707    8.5828  -19.5721 C   0  0  0  0  0  0  0  0  0  0  0  0
    7.2956    1.1486  -16.3500 C   0  0  2  0  0  0  0  0  0  0  0  0
    5.2161   -2.8516  -17.9881 C   0  0  0  0  0  0  0  0  0  0  0  0
    4.2546    3.9441  -18.6369 C   0  0  2  0  0  0  0  0  0  0  0  0
    5.2357    2.8762  -19.1462 C   0  0  1  0  0  0  0  0  0  0  0  0
    7.1116   -0.2715  -16.7395 N   0  0  0  0  0  0  0  0  0  0  0  0
    5.6919    2.0632  -18.0147 N   0  0  0  0  0  0  0  0  0  0  0  0
    3.9590    5.9355  -17.2171 N   0  0  0  0  0  0  0  0  0  0  0  0
    5.3803   -0.8849  -15.2869 O   0  0  0  0  0  0  0  0  0  0  0  0
    7.8737    2.7268  -18.0680 O   0  0  0  0  0  0  0  0  0  0  0  0
    3.7729    4.7116  -19.7394 O   0  0  0  0  0  0  0  0  0  0  0  0
    5.5297    7.7784  -18.9807 O   0  0  0  0  0  0  0  0  0  0  0  0
    8.8782    0.3708  -21.9269 F   0  0  0  0  0  0  0  0  0  0  0  0
    5.2865   -2.7388  -21.3783 F   0  0  0  0  0  0  0  0  0  0  0  0
   13.9642    1.0648  -12.7442 H   0  0  0  0  0  0  0  0  0  0  0  0
   13.2283   -0.8570  -14.1440 H   0  0  0  0  0  0  0  0  0  0  0  0
   12.3548    2.8721  -12.1613 H   0  0  0  0  0  0  0  0  0  0  0  0
   10.8708   -0.9943  -14.9255 H   0  0  0  0  0  0  0  0  0  0  0  0
    9.9929    2.7340  -12.9386 H   0  0  0  0  0  0  0  0  0  0  0  0
    7.1614    2.1486  -21.0268 H   0  0  0  0  0  0  0  0  0  0  0  0
    3.9469   -0.6712  -20.4587 H   0  0  0  0  0  0  0  0  0  0  0  0
    7.7350   -2.0032  -22.0216 H   0  0  0  0  0  0  0  0  0  0  0  0
    7.7260   -3.0065  -18.4785 H   0  0  0  0  0  0  0  0  0  0  0  0
    8.4721   -2.7051  -16.8726 H   0  0  0  0  0  0  0  0  0  0  0  0
    6.3196    5.4695  -19.1803 H   0  0  0  0  0  0  0  0  0  0  0  0
    7.0783    5.2507  -17.5669 H   0  0  0  0  0  0  0  0  0  0  0  0
    8.8144   -0.5967  -17.9678 H   0  0  0  0  0  0  0  0  0  0  0  0
    7.2355   -0.6832  -18.8201 H   0  0  0  0  0  0  0  0  0  0  0  0
    5.1491    6.9252  -15.7677 H   0  0  0  0  0  0  0  0  0  0  0  0
    4.2088    8.0088  -16.8486 H   0  0  0  0  0  0  0  0  0  0  0  0
    6.3090   -3.3061  -16.1363 H   0  0  0  0  0  0  0  0  0  0  0  0
    6.8305    7.5460  -17.3283 H   0  0  0  0  0  0  0  0  0  0  0  0
    5.1815    4.2849  -16.7131 H   0  0  0  0  0  0  0  0  0  0  0  0
    4.8152    9.6544  -22.3901 H   0  0  0  0  0  0  0  0  0  0  0  0
    4.1469    8.9279  -20.8895 H   0  0  0  0  0  0  0  0  0  0  0  0
    4.9997   10.5073  -20.8201 H   0  0  0  0  0  0  0  0  0  0  0  0
    4.4488   -4.5949  -19.0434 H   0  0  0  0  0  0  0  0  0  0  0  0
    6.1991   -4.6783  -18.6486 H   0  0  0  0  0  0  0  0  0  0  0  0
    4.9744   -4.9210  -17.3570 H   0  0  0  0  0  0  0  0  0  0  0  0
    3.0985   -2.6914  -18.4381 H   0  0  0  0  0  0  0  0  0  0  0  0
    3.4733   -2.9226  -16.6967 H   0  0  0  0  0  0  0  0  0  0  0  0
    3.7589   -1.3280  -17.4729 H   0  0  0  0  0  0  0  0  0  0  0  0
    8.5513   -0.3278  -14.4838 H   0  0  0  0  0  0  0  0  0  0  0  0
    8.1783    1.2421  -13.6944 H   0  0  0  0  0  0  0  0  0  0  0  0
    4.2389    2.5698  -21.0406 H   0  0  0  0  0  0  0  0  0  0  0  0
    3.6566    1.5112  -19.7113 H   0  0  0  0  0  0  0  0  0  0  0  0
    6.2673    7.8127  -21.5663 H   0  0  0  0  0  0  0  0  0  0  0  0
    7.1201    9.3921  -21.4969 H   0  0  0  0  0  0  0  0  0  0  0  0
    8.8828    2.4745  -15.6896 H   0  0  0  0  0  0  0  0  0  0  0  0
    9.4552    0.9615  -16.4705 H   0  0  0  0  0  0  0  0  0  0  0  0
    7.5375    8.0736  -19.4455 H   0  0  0  0  0  0  0  0  0  0  0  0
    6.6025    9.5605  -19.0691 H   0  0  0  0  0  0  0  0  0  0  0  0
    6.5731    1.3874  -15.5557 H   0  0  0  0  0  0  0  0  0  0  0  0
    5.5025   -2.3312  -18.9139 H   0  0  0  0  0  0  0  0  0  0  0  0
    3.4133    3.4317  -18.1474 H   0  0  0  0  0  0  0  0  0  0  0  0
    6.0929    3.3732  -19.6240 H   0  0  0  0  0  0  0  0  0  0  0  0
    5.0209    1.4824  -17.5538 H   0  0  0  0  0  0  0  0  0  0  0  0
    3.3779    5.6253  -16.4647 H   0  0  0  0  0  0  0  0  0  0  0  0
    3.3870    6.1892  -17.9972 H   0  0  0  0  0  0  0  0  0  0  0  0
    3.3669    4.1337  -20.3748 H   0  0  0  0  0  0  0  0  0  0  0  0
  1  2  2  0
  1  3  1  0
  2  4  1  0
  3  5  2  0
  4  9  2  0
  5  9  1  0
  6 10  2  0
  6 11  1  0
  7 10  1  0
  7 12  2  0
  8 11  2  0
  8 12  1  0
  9 25  1  0
 10 26  1  0
 11 41  1  0
 12 42  1  0
 13 19  1  0
 13 34  1  0
 13 37  2  0
 14 30  1  0
 14 35  1  0
 14 38  2  0
 15 17  1  0
 15 19  1  0
 16 20  1  0
 16 21  1  0
 17 34  1  0
 18 20  1  0
 18 36  1  0
 19 31  1  0
 20 40  1  0
 21 32  1  0
 21 36  1  0
 22 27  1  0
 23 31  1  0
 24 31  1  0
 25 28  1  0
 26 33  1  0
 27 29  1  0
 28 30  1  0
 29 40  1  0
 30 34  1  0
 32 33  1  0
 32 39  1  0
 33 35  1  0
  1 43  1  0
  2 44  1  0
  3 45  1  0
  4 46  1  0
  5 47  1  0
  6 48  1  0
  7 49  1  0
  8 50  1  0
 15 51  1  0
 15 52  1  0
 16 53  1  0
 16 54  1  0
 17 55  1  0
 17 56  1  0
 18 57  1  0
 18 58  1  0
 19 59  1  1
 20 60  1  1
 21 61  1  1
 22 62  1  0
 22 63  1  0
 22 64  1  0
 23 65  1  0
 23 66  1  0
 23 67  1  0
 24 68  1  0
 24 69  1  0
 24 70  1  0
 25 71  1  0
 25 72  1  0
 26 73  1  0
 26 74  1  0
 27 75  1  0
 27 76  1  0
 28 77  1  0
 28 78  1  0
 29 79  1  0
 29 80  1  0
 30 81  1  1
 31 82  1  0
 32 83  1  1
 33 84  1  6
 35 85  1  0
 36 86  1  0
 36 87  1  0
 39 88  1  0
M  CHG  1  36   1
M  END
>  <OMEGA_C>  (1) 
nBNPQfYfgT+QbFHBcGJIQZAdq71xAV7BdXVAQYjVAUAUB0zBNwQzQUmbKb7L9WTBHg0rQcpB+T9P
9VLB+hXZQLulkT96mKjB4bGeQMB26L7nIKbBmUvjQM2gmr+6PK3BPzwkQdGlVT96EV/BrsquQFti
Wz+HPaXB8GzzQBCo0j1ebazBLMi4QK+ivb+dN6rBmh3EQI2RkL8QzoHBoszfQG8qA0BjW4zBrof1
QC+CGcCvgYzBMvrFQJyws0D6yJDBRHr4QBhrar8lE4/BDgaZQMZJ4kCsWobBQnXJQHgFIcBANofB
zgG+QDLi4kCFP47BJ06dQL0ZnEDCzYzBnhefQPFbGEGDearBQLCmQDThi8BePpLB+jRyQGG3GsDd
+4zB/GoNQcxHOz/nkmbB6HSRQG46+z98aKHB/K/JQNywDEEWjajBMFoLQVA/sj+1lHzBFEPSQPNS
CUGlk5zB8nXpQNMDkz/YzILBR+qmQDeANsCp54/B6CWIQEhsfEBNGJXBrYqnQL0TOEBuK5nBaJLj
QNgEi76Z6oXBZiS2QN0KBEAHHpDBil99QKTvvUC1vInBYyusQGCGYr8yl3TBPPX7QCaELkBCi5DB
WHdxQDnFlkBH6p3BXfOwQPLo+EB32JfBAA0OQTzYvT43aq/BryqpQLtHL8DFBqvBdW1fQTNMiD8j
6EvB/aZTQeJlW78ATmLBIq1FQSDRN0CxlELBou4tQdOHfr+9zm7BAuMfQcT5LkCeBE/BGCrlQEuD
CUDNNqjB5Jl8QIvQK79yq6PBb4X3QLkzAMBPLLDBnjv3QMZpQMAS1JPBu40HQawgLcD8+obBkjrK
QDYGr0BDcZnBf4HiQMMFqEDpiIzBmwcNQRnEGL8Evo/Bc4nnQLjlLr+ej5bBucWkQGWb3UCZSHzB
2K6GQBwkAEH5yYbBDuPJQLuXU8A+F4HB3ZPaQDR58UBLoIrBfs6lQBEeiUBUtIXBZRaaQEp4GkH/
HrPBSbOEQHrYDkG6HafBVv2fQNQdKEGjj6bBR1yOQB0Jk8DIWJjBxF7GQKe0lcBDMJXBqC6fQDN5
ncA324rBmE5GQKE/LMBDgZPBP0peQMULO8DdkoXBJZFwQN/8qb+CyIvBS9IIQT3Pp76cvWfBSdoC
Qef7nj8nHFvBIqWHQI93JEAVU6jB7gVqQLluwT++sJ3BpI3IQKIB+kDBh6zBsdfjQCtGFkGr+avB
7x8OQWpeHkCzCHvBp0gXQbcjdj+Fw4PBYTPxQJEtAUFnkJvB+EfTQMn3GEGDjZjB2VbSQDSVsT9H
5HjBsRSwQDEyFcDBT5fB0HJaQKShW0DgLZHBuPjCQCPiV0Di/ZzBDKugQBC/vT82bozBcy9YQKQC
tEC5t4PBHsVYQL8NxkBY+o/BiXtXQP5GhECC/6LBbwNPQZ3qfz+etFHBiHxIQU7s3r32AV7BnzxA
QYb6AEA3jEzB5iIzQadYV76482TBLdgqQaAO9T99d1PBoL/aQFIpkD9aiqjBLbyfQKS55b6jgqbB
13XkQKafm7+Oaq3BgzMkQUtZST8cUl/BskCwQHRXWj88VaXBU9b0QMxfuT3HeqzBoL+5QFK+vb8r
i6rBtXXGQHO1l7+UaYHBLDfgQLGEA0CqWYzBabfkQAX/DcB9JpHBA1vEQF5ctkBFxpHBU2b+QK2Z
gL/3z43BHqaYQJq34UB+DobBF3HKQEDyIsC7PofBnTm9QP2k5EAiEI7BycWdQIwnnUDTPY3BaVKh
QIt+GEHgxqrBF8F9QMf6F8AJT5DBgKSlQKsWksD3+I/Bj28NQffeKj/F82bBnNWSQPgP+z8fjaHB
QZXIQJZBCkE4wKjBvGsLQe+dqz+B1nzBPi7TQDDZCEE5yJzBFHPpQLz9jz8D84LBo3GeQOueT8CL
xonBXnuIQFoXfEB2NpXBUGaoQMiUOECIRZnB0RziQAhkjb75c4bBo8G2QCB6BEDPN5DBIDx9QCPT
vUD52YnBfnSvQMKYc79MZnPBsEj8QG64MEAoQpDBFiFvQIFVlUDUE57BhAWwQOq9/kB3+ZbBl8EO
QQpBtT4LfK/BqD2qQMF2L8AWRqvBBFxfQTYiiT9WOEzBn95TQatLYb8LGmLBXlFFQVezN0BXS0PB
Uy8uQd6Uhr8LmG7BoI4fQZaqLEDLtk/B9zLnQE1lCEBk96fB0/J9QHfEJ7+eT6TBdqb4QLDQAMAV
VrDBi9PPQInr/b+q+pfB4+v5QPKSQ8CTRJPBauzEQH6QtEDXj5rB7pPiQMi5qUCtjY7B+QUOQUVl
p78YvInBMiwDQWycxL4CzZTBZO6kQOVd20CM7XvBWuCFQCx+/0BbAYbBBSjdQDhoTsBzJILB80Da
QGw78UDwNIrBhI+oQG3VikBkOobBfauaQHojGUGLabPBEnOFQPPMEUFVkqbB9LunQES9KEFey6fB
+VJCQHEJPMCAs5HBJSRvQCtQur8Q1YvB1XeNQDEtB8BpCZjB8ZGGQCkvocBuqZHBBTK2QAU/i8BP
jJfBY0q5QEfip8C7HIvB0RMJQXInyr5TUmjB9K8CQcqvlD+ueVvBsDiJQGMxJEBygKjB/JVsQHcq
wT/d4p3BDfXBQOsn9EBVy6vB7z3kQEcEEUFeBK3BX3QOQWHSGkAjJHvBXTkXQdSjZz/k74PBUPbv
QNzn/UBssZvBIDPZQOwHGUGiqpnBPXvSQJsHrj/ZGXnB7yOPQGBeX8BgGYLB5ctcQA22WkBMB5HB
sc/DQAz4WEBjBp3B0iuhQN5Pvj+qmIzBLiRYQD6dskAh94PBj5dYQF7UxkATA5DBFwFVQLsHgkDj
9KLB

>  <OMEGA_E>  (1) 
SBCqPkDsoz4=

>  <OMEGA_NBR>  (1) 
     12536

$$$$
50210666
     RDKit          3D

 73 76  0  0  1  0  0  0  0  0999 V2000
    6.6496    9.7529  -22.9656 C   0  0  0  0  0  0  0  0  0  0  0  0
    5.2570    9.6485  -22.7783 C   0  0  0  0  0  0  0  0  0  0  0  0
    7.5258    9.5370  -21.8842 C   0  0  0  0  0  0  0  0  0  0  0  0
    4.7400    9.3197  -21.5105 C   0  0  0  0  0  0  0  0  0  0  0  0
    7.0130    9.2058  -20.6171 C   0  0  0  0  0  0  0  0  0  0  0  0
    6.8576    1.3628  -21.4235 C   0  0  0  0  0  0  0  0  0  0  0  0
    5.1860   -0.2434  -20.6472 C   0  0  0  0  0  0  0  0  0  0  0  0
    7.2799   -1.0307  -21.6154 C   0  0  0  0  0  0  0  0  0  0  0  0
    5.6142    9.0855  -20.4276 C   0  0  0  0  0  0  0  0  0  0  0  0
    5.6058    1.0880  -20.8392 C   0  0  0  0  0  0  0  0  0  0  0  0
    7.6963    0.3029  -21.8070 C   0  0  0  0  0  0  0  0  0  0  0  0
    6.0223   -1.3027  -21.0388 C   0  0  0  0  0  0  0  0  0  0  0  0
    7.9840   -0.7811  -15.3312 C   0  0  0  0  0  0  0  0  0  0  0  0
    7.1144    2.0918  -17.6639 C   0  0  0  0  0  0  0  0  0  0  0  0
    7.9902    0.7236  -15.6544 C   0  0  0  0  0  0  0  0  0  0  0  0
    6.0000    5.9184  -18.2758 C   0  0  0  0  0  0  0  0  0  0  0  0
    6.8141   -0.4546  -17.3421 C   0  0  0  0  0  0  0  0  0  0  0  0
    4.5268    7.0807  -16.6942 C   0  0  0  0  0  0  0  0  0  0  0  0
    7.7185    0.7614  -17.1503 C   0  0  1  0  0  0  0  0  0  0  0  0
    5.9025    7.1612  -17.3843 C   0  0  2  0  0  0  0  0  0  0  0  0
    4.8869    5.0138  -17.7321 C   0  0  2  0  0  0  0  0  0  0  0  0
    5.9772   -3.4104  -17.1856 C   0  0  0  0  0  0  0  0  0  0  0  0
    8.4811   -3.2633  -17.5656 C   0  0  0  0  0  0  0  0  0  0  0  0
    4.7225    2.2189  -20.4013 C   0  0  0  0  0  0  0  0  0  0  0  0
    5.0280    8.7148  -19.0827 C   0  0  0  0  0  0  0  0  0  0  0  0
    4.3107    4.0373  -18.7560 C   0  0  2  0  0  0  0  0  0  0  0  0
    7.3231   -2.9072  -16.6081 C   0  0  0  0  0  0  0  0  0  0  0  0
    5.3729    3.0459  -19.2652 C   0  0  1  0  0  0  0  0  0  0  0  0
    7.3005   -1.4428  -16.3680 N   0  0  0  0  0  0  0  0  0  0  0  0
    5.8182    2.1242  -18.1889 N   0  0  0  0  0  0  0  0  0  0  0  0
    3.8288    5.9427  -17.3090 N   0  0  0  0  0  0  0  0  0  0  0  0
    8.5023   -1.2905  -14.3448 O   0  0  0  0  0  0  0  0  0  0  0  0
    7.8271    3.0883  -17.6847 O   0  0  0  0  0  0  0  0  0  0  0  0
    3.7597    4.7799  -19.8520 O   0  0  0  0  0  0  0  0  0  0  0  0
    6.0731    8.3877  -18.1269 O   0  0  0  0  0  0  0  0  0  0  0  0
    8.9017    0.5672  -22.3580 F   0  0  0  0  0  0  0  0  0  0  0  0
    5.6204   -2.5795  -20.8529 F   0  0  0  0  0  0  0  0  0  0  0  0
    7.0457    9.9988  -23.9398 H   0  0  0  0  0  0  0  0  0  0  0  0
    4.5862    9.8207  -23.6070 H   0  0  0  0  0  0  0  0  0  0  0  0
    8.5925    9.6259  -22.0281 H   0  0  0  0  0  0  0  0  0  0  0  0
    3.6721    9.2466  -21.3665 H   0  0  0  0  0  0  0  0  0  0  0  0
    7.6859    9.0432  -19.7881 H   0  0  0  0  0  0  0  0  0  0  0  0
    7.1717    2.3848  -21.5762 H   0  0  0  0  0  0  0  0  0  0  0  0
    4.2245   -0.4491  -20.2005 H   0  0  0  0  0  0  0  0  0  0  0  0
    7.9251   -1.8449  -21.9107 H   0  0  0  0  0  0  0  0  0  0  0  0
    7.2010    1.2496  -15.0971 H   0  0  0  0  0  0  0  0  0  0  0  0
    8.9664    1.1730  -15.4198 H   0  0  0  0  0  0  0  0  0  0  0  0
    5.8215    6.1740  -19.3307 H   0  0  0  0  0  0  0  0  0  0  0  0
    6.9841    5.4372  -18.1766 H   0  0  0  0  0  0  0  0  0  0  0  0
    5.7653   -0.1933  -17.1379 H   0  0  0  0  0  0  0  0  0  0  0  0
    6.9020   -0.8449  -18.3667 H   0  0  0  0  0  0  0  0  0  0  0  0
    4.6506    6.9143  -15.6140 H   0  0  0  0  0  0  0  0  0  0  0  0
    3.9617    8.0098  -16.8597 H   0  0  0  0  0  0  0  0  0  0  0  0
    8.6635    0.5824  -17.6840 H   0  0  0  0  0  0  0  0  0  0  0  0
    6.6798    7.0914  -16.6090 H   0  0  0  0  0  0  0  0  0  0  0  0
    5.2664    4.4519  -16.8659 H   0  0  0  0  0  0  0  0  0  0  0  0
    5.1613   -3.1508  -16.4950 H   0  0  0  0  0  0  0  0  0  0  0  0
    5.7965   -2.9356  -18.1613 H   0  0  0  0  0  0  0  0  0  0  0  0
    6.0176   -4.5025  -17.3111 H   0  0  0  0  0  0  0  0  0  0  0  0
    9.4304   -2.9008  -17.1445 H   0  0  0  0  0  0  0  0  0  0  0  0
    8.5293   -4.3549  -17.6924 H   0  0  0  0  0  0  0  0  0  0  0  0
    8.3082   -2.7880  -18.5425 H   0  0  0  0  0  0  0  0  0  0  0  0
    4.5360    2.8792  -21.2611 H   0  0  0  0  0  0  0  0  0  0  0  0
    3.7681    1.8072  -20.0413 H   0  0  0  0  0  0  0  0  0  0  0  0
    4.4440    9.5645  -18.6992 H   0  0  0  0  0  0  0  0  0  0  0  0
    4.3689    7.8429  -19.2063 H   0  0  0  0  0  0  0  0  0  0  0  0
    3.5120    3.4597  -18.2676 H   0  0  0  0  0  0  0  0  0  0  0  0
    7.4985   -3.4223  -15.6521 H   0  0  0  0  0  0  0  0  0  0  0  0
    6.2317    3.6037  -19.6666 H   0  0  0  0  0  0  0  0  0  0  0  0
    5.1469    1.4844  -17.8148 H   0  0  0  0  0  0  0  0  0  0  0  0
    3.2237    5.5038  -16.6447 H   0  0  0  0  0  0  0  0  0  0  0  0
    3.2939    6.2457  -18.0977 H   0  0  0  0  0  0  0  0  0  0  0  0
    3.3992    4.1787  -20.4931 H   0  0  0  0  0  0  0  0  0  0  0  0
  1  2  2  0
  1  3  1  0
  2  4  1  0
  3  5  2  0
  4  9  2  0
  5  9  1  0
  6 10  2  0
  6 11  1  0
  7 10  1  0
  7 12  2  0
  8 11  2  0
  8 12  1  0
  9 25  1  0
 10 24  1  0
 11 36  1  0
 12 37  1  0
 13 15  1  0
 13 29  1  0
 13 32  2  0
 14 19  1  0
 14 30  1  0
 14 33  2  0
 15 19  1  0
 16 20  1  0
 16 21  1  0
 17 19  1  0
 17 29  1  0
 18 20  1  0
 18 31  1  0
 20 35  1  0
 21 26  1  0
 21 31  1  0
 22 27  1  0
 23 27  1  0
 24 28  1  0
 25 35  1  0
 26 28  1  0
 26 34  1  0
 27 29  1  0
 28 30  1  0
  1 38  1  0
  2 39  1  0
  3 40  1  0
  4 41  1  0
  5 42  1  0
  6 43  1  0
  7 44  1  0
  8 45  1  0
 15 46  1  0
 15 47  1  0
 16 48  1  0
 16 49  1  0
 17 50  1  0
 17 51  1  0
 18 52  1  0
 18 53  1  0
 19 54  1  6
 20 55  1  1
 21 56  1  1
 22 57  1  0
 22 58  1  0
 22 59  1  0
 23 60  1  0
 23 61  1  0
 23 62  1  0
 24 63  1  0
 24 64  1  0
 25 65  1  0
 25 66  1  0
 26 67  1  1
 27 68  1  0
 28 69  1  6
 30 70  1  0
 31 71  1  0
 31 72  1  0
 34 73  1  0
M  CHG  1  31   1
M  END
>  <OMEGA_C>  (2) 
1cnUQNULHEGGubfBhjmoQExgGkHdObbBotPwQJSXGEHfEq/BG66XQHwdFUF6FazBmmrgQPtKE0HG
76TBk3HbQAFxrj9pY6vBifOlQCpBeb6BLaXBlPToQOjtg79K7KzBaaezQAdeEUHHa6PBT2KzQBtD
iz/AtqbBM0j2QHkamz7WdK7BxbbAQJW9pr9oT6jBl3z/QFj2R7/LTHXBM6njQKjfBUCZT43Bjq//
QNZAOT9ceHrB4v+/QMpjvUDsNJLBOw3aQIW96L6GvIrBituQQPWU4kDFjYXBkv32QObnQj+/M4nB
l+G8QEQo5UACE4vBpGGcQNxwoEBx243B8kS/QPhDWsAafInBZ7IHQZfZUMBmhozB9B6XQB0DDkDh
NaPBceWgQO1vC0FJqZjB6vCJQLMxgUA9DJbByFbqQMMOOsBg3YTBa+6rQHPwQkAMH5rBDp7pQK2s
uL++8YLB5y66QNzyB0DhgpHBrgp1QLcqvkDNeIrBigkIQf0tpb8nhGXBOHf6QDWmRUBUeo3BBZ9w
QEr1mEDy0J7BfFbCQAA0BkH1A5HBhG0OQRwzET8f3bLBV9qzQH8WJcDV0qbBwnbhQAX7H0GnhL/B
VcKSQI0hHUEX27zB63oJQYoDGkGWObDBdQRrQBLyE0GK7qrBFPP1QMuwEEEbTp7BOX7lQNCgGEAW
nKzBuy6HQAnz5b6hmqHBfJr9QBIk7L8TSa/BZm7mQEnznz/njXHBX3YPQewllj9at3bBtEm6QFGR
xUBgpZrB7X3fQCj9rUCxaZHBJX24QJTvRb5yGonBKd3cQEJMWL8C75LBDtKUQLRB3UDH0nnBr4x9
QD0oAEGd4IbB050KQW0bFT+9eI3B9cDVQNzs4kBT34TBGIaoQCF2jkBt7YbBRSmlQPOmScC19YPB
Kn25QMngO8BGSpHBVpDAQCsUkMA3fYrB/+IWQU+nOcDxJ4nBIXgIQT9bi8D1iY3Bi+4EQfFuMsAE
V5TBwSaRQPhEOEC8FqrB+ChxQBhT5z+WVKDBSTWOQAcIGUHol5XBB86LQOX4+kCKppnBP8VgQO1q
XUAMJJLBVPPvQPsGW8Aeb3rBV2rHQI+jZkBEVZ3BdbOkQF//vT/FhI7BaVFOQC0fsEBdKIXB5c9S
QM7cx0AwyJDBF41ZQIS3hUDs8aPB

>  <OMEGA_E>  (2) 
rN0UPw==

>  <OMEGA_NBR>  (2) 
     21646

$$$$
50197324
     RDKit          3D

 86 89  0  0  1  0  0  0  0  0999 V2000
   12.9075    1.0737  -13.0723 C   0  0  0  0  0  0  0  0  0  0  0  0
   12.4992   -0.0514  -13.8166 C   0  0  0  0  0  0  0  0  0  0  0  0
   11.9888    2.1048  -12.7872 C   0  0  0  0  0  0  0  0  0  0  0  0
   11.1703   -0.1505  -14.2682 C   0  0  0  0  0  0  0  0  0  0  0  0
   10.6567    2.0046  -13.2336 C   0  0  0  0  0  0  0  0  0  0  0  0
    6.7640    1.0813  -21.1312 C   0  0  0  0  0  0  0  0  0  0  0  0
    4.9547   -0.4901  -20.6662 C   0  0  0  0  0  0  0  0  0  0  0  0
    7.0714   -1.2975  -21.5705 C   0  0  0  0  0  0  0  0  0  0  0  0
   10.2422    0.8646  -13.9549 C   0  0  0  0  0  0  0  0  0  0  0  0
    5.4561    0.8267  -20.6603 C   0  0  0  0  0  0  0  0  0  0  0  0
    7.5724    0.0186  -21.5746 C   0  0  0  0  0  0  0  0  0  0  0  0
    5.7589   -1.5498  -21.1273 C   0  0  0  0  0  0  0  0  0  0  0  0
    6.4227   -1.1695  -16.0344 C   0  0  0  0  0  0  0  0  0  0  0  0
    6.9828    2.1274  -17.5653 C   0  0  0  0  0  0  0  0  0  0  0  0
    7.1764   -2.1745  -18.0691 C   0  0  0  0  0  0  0  0  0  0  0  0
    6.1055    5.7500  -18.3176 C   0  0  0  0  0  0  0  0  0  0  0  0
    7.8427   -0.8301  -17.8757 C   0  0  0  0  0  0  0  0  0  0  0  0
    4.8573    6.9547  -16.6467 C   0  0  0  0  0  0  0  0  0  0  0  0
    6.7804   -2.5325  -16.6566 C   0  0  2  0  0  0  0  0  0  0  0  0
    5.9013    7.1613  -17.7320 C   0  0  2  0  0  0  0  0  0  0  0  0
    4.9444    4.9171  -17.7281 C   0  0  2  0  0  0  0  0  0  0  0  0
    6.1586    9.2460  -22.0944 C   0  0  0  0  0  0  0  0  0  0  0  0
    3.8562   -3.2783  -18.2121 C   0  0  0  0  0  0  0  0  0  0  0  0
    8.8237    0.7469  -14.4418 C   0  0  0  0  0  0  0  0  0  0  0  0
    4.5535    1.9645  -20.2329 C   0  0  0  0  0  0  0  0  0  0  0  0
    5.6647   -3.6082  -16.5831 C   0  0  0  0  0  0  0  0  0  0  0  0
    5.3210    9.0941  -20.8260 C   0  0  0  0  0  0  0  0  0  0  0  0
    8.6920    1.4326  -15.8064 C   0  0  0  0  0  0  0  0  0  0  0  0
    6.1911    8.5490  -19.6909 C   0  0  0  0  0  0  0  0  0  0  0  0
    7.2724    1.2150  -16.3753 C   0  0  2  0  0  0  0  0  0  0  0  0
    4.2553    3.9684  -18.7271 C   0  0  2  0  0  0  0  0  0  0  0  0
    5.2439    2.9008  -19.2226 C   0  0  1  0  0  0  0  0  0  0  0  0
    7.0593   -0.1846  -16.8072 N   0  0  0  0  0  0  0  0  0  0  0  0
    5.6957    2.1057  -18.0755 N   0  0  0  0  0  0  0  0  0  0  0  0
    3.9944    5.9027  -17.1949 N   0  0  0  0  0  0  0  0  0  0  0  0
    5.7723   -0.9878  -15.0119 O   0  0  0  0  0  0  0  0  0  0  0  0
    7.8645    2.8152  -18.0710 O   0  0  0  0  0  0  0  0  0  0  0  0
    3.7377    4.7020  -19.8372 O   0  0  0  0  0  0  0  0  0  0  0  0
    5.3031    8.0531  -18.6840 O   0  0  0  0  0  0  0  0  0  0  0  0
    4.3291   -3.1049  -16.8586 O   0  0  0  0  0  0  0  0  0  0  0  0
    8.8287    0.2630  -22.0085 F   0  0  0  0  0  0  0  0  0  0  0  0
    5.2845   -2.8158  -21.1102 F   0  0  0  0  0  0  0  0  0  0  0  0
   13.9258    1.1462  -12.7198 H   0  0  0  0  0  0  0  0  0  0  0  0
   13.2058   -0.8369  -14.0402 H   0  0  0  0  0  0  0  0  0  0  0  0
   12.3067    2.9713  -12.2264 H   0  0  0  0  0  0  0  0  0  0  0  0
   10.8610   -1.0032  -14.8544 H   0  0  0  0  0  0  0  0  0  0  0  0
    9.9545    2.7980  -13.0245 H   0  0  0  0  0  0  0  0  0  0  0  0
    7.1433    2.0923  -21.1506 H   0  0  0  0  0  0  0  0  0  0  0  0
    3.9520   -0.6868  -20.3165 H   0  0  0  0  0  0  0  0  0  0  0  0
    7.6938   -2.1133  -21.9073 H   0  0  0  0  0  0  0  0  0  0  0  0
    6.2958   -2.0940  -18.7233 H   0  0  0  0  0  0  0  0  0  0  0  0
    7.8775   -2.9119  -18.4871 H   0  0  0  0  0  0  0  0  0  0  0  0
    6.0498    5.7726  -19.4159 H   0  0  0  0  0  0  0  0  0  0  0  0
    7.0770    5.3371  -18.0081 H   0  0  0  0  0  0  0  0  0  0  0  0
    8.8914   -0.9557  -17.5682 H   0  0  0  0  0  0  0  0  0  0  0  0
    7.8006   -0.2377  -18.8016 H   0  0  0  0  0  0  0  0  0  0  0  0
    5.3267    6.6279  -15.7071 H   0  0  0  0  0  0  0  0  0  0  0  0
    4.2866    7.8783  -16.4696 H   0  0  0  0  0  0  0  0  0  0  0  0
    7.6656   -2.9250  -16.1348 H   0  0  0  0  0  0  0  0  0  0  0  0
    6.8399    7.5548  -17.3145 H   0  0  0  0  0  0  0  0  0  0  0  0
    5.3418    4.3137  -16.8987 H   0  0  0  0  0  0  0  0  0  0  0  0
    5.5280    9.6378  -22.9061 H   0  0  0  0  0  0  0  0  0  0  0  0
    6.9876    9.9437  -21.9048 H   0  0  0  0  0  0  0  0  0  0  0  0
    6.5638    8.2657  -22.3857 H   0  0  0  0  0  0  0  0  0  0  0  0
    2.8417   -2.8628  -18.3026 H   0  0  0  0  0  0  0  0  0  0  0  0
    4.5301   -2.7544  -18.9058 H   0  0  0  0  0  0  0  0  0  0  0  0
    3.8367   -4.3501  -18.4591 H   0  0  0  0  0  0  0  0  0  0  0  0
    8.5564   -0.3157  -14.5383 H   0  0  0  0  0  0  0  0  0  0  0  0
    8.1477    1.2311  -13.7216 H   0  0  0  0  0  0  0  0  0  0  0  0
    4.2716    2.5474  -21.1221 H   0  0  0  0  0  0  0  0  0  0  0  0
    3.6493    1.5449  -19.7677 H   0  0  0  0  0  0  0  0  0  0  0  0
    5.8949   -4.3940  -17.3175 H   0  0  0  0  0  0  0  0  0  0  0  0
    5.6682   -4.0395  -15.5712 H   0  0  0  0  0  0  0  0  0  0  0  0
    4.9158   10.0749  -20.5366 H   0  0  0  0  0  0  0  0  0  0  0  0
    4.4920    8.3969  -21.0174 H   0  0  0  0  0  0  0  0  0  0  0  0
    8.8763    2.5108  -15.6910 H   0  0  0  0  0  0  0  0  0  0  0  0
    9.4313    1.0064  -16.5005 H   0  0  0  0  0  0  0  0  0  0  0  0
    6.8319    7.7361  -20.0631 H   0  0  0  0  0  0  0  0  0  0  0  0
    6.8197    9.3517  -19.2780 H   0  0  0  0  0  0  0  0  0  0  0  0
    6.5503    1.4518  -15.5801 H   0  0  0  0  0  0  0  0  0  0  0  0
    3.4325    3.4586  -18.2044 H   0  0  0  0  0  0  0  0  0  0  0  0
    6.0997    3.3929  -19.7079 H   0  0  0  0  0  0  0  0  0  0  0  0
    5.0286    1.5072  -17.6319 H   0  0  0  0  0  0  0  0  0  0  0  0
    3.4255    5.4986  -16.4786 H   0  0  0  0  0  0  0  0  0  0  0  0
    3.4094    6.2635  -17.9212 H   0  0  0  0  0  0  0  0  0  0  0  0
    3.3163    4.1043  -20.4436 H   0  0  0  0  0  0  0  0  0  0  0  0
  1  2  2  0
  1  3  1  0
  2  4  1  0
  3  5  2  0
  4  9  2  0
  5  9  1  0
  6 10  2  0
  6 11  1  0
  7 10  1  0
  7 12  2  0
  8 11  2  0
  8 12  1  0
  9 24  1  0
 10 25  1  0
 11 41  1  0
 12 42  1  0
 13 19  1  0
 13 33  1  0
 13 36  2  0
 14 30  1  0
 14 34  1  0
 14 37  2  0
 15 17  1  0
 15 19  1  0
 16 20  1  0
 16 21  1  0
 17 33  1  0
 18 20  1  0
 18 35  1  0
 19 26  1  0
 20 39  1  0
 21 31  1  0
 21 35  1  0
 22 27  1  0
 23 40  1  0
 24 28  1  0
 25 32  1  0
 26 40  1  0
 27 29  1  0
 28 30  1  0
 29 39  1  0
 30 33  1  0
 31 32  1  0
 31 38  1  0
 32 34  1  0
  1 43  1  0
  2 44  1  0
  3 45  1  0
  4 46  1  0
  5 47  1  0
  6 48  1  0
  7 49  1  0
  8 50  1  0
 15 51  1  0
 15 52  1  0
 16 53  1  0
 16 54  1  0
 17 55  1  0
 17 56  1  0
 18 57  1  0
 18 58  1  0
 19 59  1  1
 20 60  1  1
 21 61  1  1
 22 62  1  0
 22 63  1  0
 22 64  1  0
 23 65  1  0
 23 66  1  0
 23 67  1  0
 24 68  1  0
 24 69  1  0
 25 70  1  0
 25 71  1  0
 26 72  1  0
 26 73  1  0
 27 74  1  0
 27 75  1  0
 28 76  1  0
 28 77  1  0
 29 78  1  0
 29 79  1  0
 30 80  1  1
 31 81  1  1
 32 82  1  6
 34 83  1  0
 35 84  1  0
 35 85  1  0
 38 86  1  0
M  CHG  1  35   1
M  END
>  <OMEGA_C>  (3) 
H4VOQe5uiT81KFHBi/xHQZCHUr3mEF3BVNI/QUC0BkBEmEzBa7kyQQwdGr6dSmTBCIIqQaxKAEDZ
vFPBynLYQLtnij+dDKnBv4yeQKzu+r5QVKXBhUjiQIETpr9akKzB5N8jQehWXT92R1/BlZiuQNqf
Uz9NSKXByVDyQLB0mDyymKzBL0m4QEZexr+nBKnBGofNQOSxlb9/RoDBN3PfQL4mCECnhYzBc6Xl
QHgqC8CWjZDBf2DDQFEAuEBdipLBmvf6QMKAVL97AY/B3m6bQDKN3kBzLIXBJfnYQAgUIsDJQIXB
m9e8QMYp5UAg243BTDieQNVYnUAa043BNRPFQI3vE0FYwbDBvMt2QFLQUcBcspHByi0NQXA1Pz+A
EWfBfraRQFtz+z/43KHB4ES1QB7sZsAtqoTBlUWqQFKBEUGxm6bBQhILQdVdtz/b5nzBRB3GQNLI
CEH0hp3Be7foQIWDmz+wAIPBLSuIQIT5fUAz0ZXBPs6nQDCnOUDux5nBL+bhQKQSPb4pdYbBDUO2
QCjDBkCumpDBSaR/QOfivEAZj4nBEre4QGjdfL+0MHDB0qn7QP4sNEB5kZDBvzVvQPt2lkCPsp7B
prKpQFXZAEHOeJXBTIiKQAy3RsB83obBYkINQVauhj6AEbDBuhqpQNo2NMC64ajB7M9eQXS3kj81
hEvBEktTQU9AVr+NpGDBLehEQToqPkB7n0PBi8YtQX5qgL9uq23BikUfQbMRM0A3ZFDBiZXkQLTo
BUCANKnBRO18QCPUL78fiKLBYjP2QO8/B8AsQq/B2nbJQEMEBsBKyZXBhhT8QLhcOsCV5ZPBW5jB
QC25uEDNU5vBjXbiQILJqkCKEJDBCUMOQQasdL+1i4zBjJ75QMdrc77BaZbBYHSqQOkX1EBUUHvB
+iuJQBUb/EDHwYPB0kz1QAM0O8AiFIHBTODaQP/A8UAehIrBK/CqQKkJikB2MIfBp+WwQJ80GkGu
P7fBU5rfQHcZH0EZPa/BSwrSQDpABEHmFbPBqt41QH84N8DIa5LB5faQQBtIMMAkP5fBWIx1QNsz
i8AmrJPB0+YIQcCoob7GnGjBE10CQQSVnT+4i1vBUbGIQEEII0Ah+qjBa45pQNa/xT9JJJ7BRKO8
QAOcjMBBiorBIGK1QK9DgcClI3nBR06dQNgyIUHsSqTBP76PQJtZBkG5I6jBJAUOQbCxIEAyDnvB
quYWQTTSgD/sAITB157aQD+O90AxgaDBPzvaQKWgFUFeOZrB0JvRQF/UuT/+R3nB+q1bQIRaXUCq
opHBBDHDQIwkWUDMqZ3Bo+qgQIjqwD8JDo3BDjxbQKT0r0AU1IPB4jNaQPZuyECpXo/B9j5UQMhW
g0COjKPBYVpOQUIecD/Y90/BrqFHQSD2I74eaVzBk/w/QXoV/j81SEvBHHgyQRC1X76K+mPBzsYq
QUFr9j9gwFLBnKTWQLRCjT9aKKnBtkmdQPVw9L59GqXBNa7gQF87o7+om6zBFfUjQSSUTz+uwF7B
MyytQKySVz+NKqXBEm/wQKNRNj3syazBxhK3QA9hxL+FzKjBdxzPQOtOkr97QYDBSJfgQGKMB0B1
ZYzBmhv3QCWNEMCQE47B9GTEQIJ3tkB8bZHB51L3QDlHQ7/i8I/BAk+XQC4d4kA4IIbBCWTRQJnl
HMBXeobBlGy8QNjt5ECD+Y3BxjSdQLZYnUBUM43Bef2gQEUmGEEj2qrBbll4QK27h8BpdJXBhW0N
QbTlPD/CvGbB2tKQQBiI/D+xcKHB6LKmQG9lJ8AiXIzBqbnIQLdNCkG9tqjB4dcLQf1iuT/qc3zB
q7nSQKPcCEF7tpzBzLzqQAdznD/X1YLBN1eIQHmofUDyWpXBCdKnQBpEOUCnXpnB5i/mQPokP75X
/4XBkP62QGIVBkAyRZDB73p7QEX9vUBO9YnBUYy4QKdVcL/+z3DBGXn8QGiEM0BWlZDBzhBxQBSv
lkCgQp7BAoCvQA4u/kBkD5fBmFamQGJZdsDzJpLBfR4MQXkKmD6FgLDB5emnQAwVM8DzsajBI49e
Qf05ej82AUrBTLhSQaaMdL+nH2DBzUNFQblINUBz9kHBilctQb5Dhr+Hw23BKsUfQSeuLkAHTk/B
RojiQGJ/B0Bba6nBkq56QK5LLb9WOKLBsoH0QACsBcDwY6/BxBLyQGWEM8AfnJXBmpkKQSPRJcBV
XYrBTG/GQDYhtECEMZrB9BziQAkyqkCW2I3BNQkMQbLKzr7XaZHBfdniQA1DAL81yZbBgwqjQHQZ
3EDS7nvBKmaEQA/N/0DvOIbB9xjXQF8zU8D3D4HBtQDZQC8w8kCyDIrBCyCnQM6wikCEKYbBj9Oa
QD/QGEGAgrPBxyiFQPIeEUGbxKbBvImmQFRtKEFuzqfBUOZ7QAgtpsCo2ZnBjmlPQKu9i8CtXY7B
ahddQDDMXcCcrZrBDrkIQfKvob4XlWjBgLMCQTNMnT+jNFvBIieHQOd1JEAKbajBmnVoQGY4xj9I
l53BC2mMQKhcJ8D/gYbBcWmiQNHN47+3+pHBn/TCQB0w9EDh0qvBlFXkQHFmEUG03KzBxacOQd2p
IUAKUnrBR+IXQWqrhD8NvIPBa7bvQM1O/kCsi5vBtx/YQNgNGUEMipnBXV/TQCyUuD9A/HjBzzNb
QOfbXEDCXJHB7fPCQJu9WEATXZ3BafShQBRQvz/3oIzBW9xVQHjRskCpHoTBZGxXQFzCxkCLMZDB
NGhXQE+8g0B5Q6PB3HhOQYiNgz9TsFDBTuxHQUzec70ydV3Bfcg/QXK/AkDxQkvBGJ0yQQDdEL5l
kGTBS3IqQYs1+z+mXFLBBZLXQFB0lT90FqnBK+qeQMwN4753PaXB9CvjQEc2mr+yg6zBesgjQWTc
Wj9JpF7BqQGuQD54Yj+SOaXBmyTyQDCo/D0EpqzBf4q5QNFpvr9c1qjBAJjMQAaTlr/osoDBUHrf
QGeCB0AGH4zB0lf4QM0jEMCoYY7Byf3GQIdRtkDwGJHBQ+b0QFpXQb8OGpDBWmiYQMO95kBbUojB
1pbXQEkdI8DLmIXBiU64QH+55EAffJHBd52fQDlZnUAAzIzBwsLFQL60IUEqzZ7BKDhiQLXxRsBN
8pTB7BcNQdm0QT88UGbBRvGQQIL0/z/CaaHBM52vQDqtUcD34YnBhTG5QAh9EkGv8afBYSwLQU9B
uT/pHHzBy+W9QPcK9kDIe6TBrWfpQNyhmT8UqILBclqJQDj/f0BOGZXBB8CnQP7tOUBZOJnBcTXl
QGESW75Z84XBV0S2QPGSBUBVL5DBF5aAQMIovkBVFInBVXe0QOQxfL91QHLBvRb7QAcaNkDe+o/B
MlR0QGF3mED8853B30eiQFx07UBRcZvBrfWWQKjBHMAgApHBpPwMQfiwyz4lP7DB3VqrQELeMMCY
sajB6MdeQXywij8bDEvBe0FTQWksVL+Bx2HBvuZEQZBxOEDNqEHBOZ0tQfNQd79Yim7BMzkfQUi+
L0D+a07BmuziQOP8C0C0TanBdsx9QO44Kb+jfaLBc533QBVsAMBIO6/BXmTwQMkLM8CzwpXBi2MM
Qd7AIcAFxIvBodXPQM/9qkB1IZnBk3jiQLSvskBkrIvBajMKQU7wqL68D5LBJEDeQP54CL98mZbB
JhKpQHkj6UDol4DBGcCCQPccAUGzRonBnbfmQIknS8DT2X7Btj/TQPe4+kD2IZDBTt6pQOipiUB6
94XBTSDCQF9gMkEmeaHBYuOwQBjTHkEM3ZfBBUPnQNTMHkFLhpzBSFE/QDOIG8DwU5rBZa10QKqG
gMCnWJnBXdw4QPF7WMDNK47BmJEIQYyLmr4k4WfBiGkCQQXonz/JwVrB7TGHQO/iJkCMVKjBBtho
QHeQxz/FpZ3BI9+5QF2yhcBaOI7BclebQFw4ZMCCEoPBULeXQG2DFUEuNKrB8xbOQCl9FUFu3a7B
1cQNQY/TIUCcLXrBzUEXQXjWhD9fjYPBxvK0QB8F4UB9LavBaVTfQCza70CtNKLBiPHRQO4ItD9J
nXjBEmVcQLSHYEAzHZHBJ2DDQGF2WECeHZ3BKiShQHA6vD/LwIzBuappQLkTtkAK64HBCilRQKj5
wEB3Uo7BPkJZQEEFhkAg9aLB

>  <OMEGA_E>  (3) 
eL7kPqS3qj60PgQ/

>  <OMEGA_NBR>  (3) 
      4292

$$$$
50197326
     RDKit          3D

 92 95  0  0  1  0  0  0  0  0999 V2000
   12.9129    1.0935  -13.0042 C   0  0  0  0  0  0  0  0  0  0  0  0
   12.5045   -0.0331  -13.7462 C   0  0  0  0  0  0  0  0  0  0  0  0
   11.9944    2.1252  -12.7203 C   0  0  0  0  0  0  0  0  0  0  0  0
   11.1760   -0.1323  -14.1983 C   0  0  0  0  0  0  0  0  0  0  0  0
   10.6628    2.0249  -13.1672 C   0  0  0  0  0  0  0  0  0  0  0  0
    6.7689    1.1147  -21.0833 C   0  0  0  0  0  0  0  0  0  0  0  0
    5.0372   -0.5201  -20.5441 C   0  0  0  0  0  0  0  0  0  0  0  0
    7.1614   -1.2550  -21.4938 C   0  0  0  0  0  0  0  0  0  0  0  0
   10.2493    0.8852  -13.8888 C   0  0  0  0  0  0  0  0  0  0  0  0
    5.4839    0.8171  -20.5751 C   0  0  0  0  0  0  0  0  0  0  0  0
    7.6087    0.0785  -21.5301 C   0  0  0  0  0  0  0  0  0  0  0  0
    5.8744   -1.5524  -21.0092 C   0  0  0  0  0  0  0  0  0  0  0  0
    6.5250   -1.1442  -16.0756 C   0  0  0  0  0  0  0  0  0  0  0  0
    7.0207    2.1444  -17.5263 C   0  0  0  0  0  0  0  0  0  0  0  0
    7.6976   -2.2399  -17.8686 C   0  0  0  0  0  0  0  0  0  0  0  0
    6.1348    5.6921  -18.1853 C   0  0  0  0  0  0  0  0  0  0  0  0
    8.0695   -0.7708  -17.8246 C   0  0  0  0  0  0  0  0  0  0  0  0
    4.7389    7.0918  -16.7957 C   0  0  0  0  0  0  0  0  0  0  0  0
    7.1691   -2.4783  -16.4557 C   0  0  2  0  0  0  0  0  0  0  0  0
    5.8874    7.1529  -17.7920 C   0  0  2  0  0  0  0  0  0  0  0  0
    4.9148    4.9159  -17.6320 C   0  0  2  0  0  0  0  0  0  0  0  0
    3.1829   -3.2826  -18.6682 C   0  0  0  0  0  0  0  0  0  0  0  0
    5.0220    9.5189  -21.3962 C   0  0  0  0  0  0  0  0  0  0  0  0
    8.8364    0.7755  -14.3882 C   0  0  0  0  0  0  0  0  0  0  0  0
    4.5543    1.9298  -20.1342 C   0  0  0  0  0  0  0  0  0  0  0  0
    4.3040   -2.8548  -17.7142 C   0  0  0  0  0  0  0  0  0  0  0  0
    6.2546    8.6345  -21.1526 C   0  0  0  0  0  0  0  0  0  0  0  0
    8.7120    1.5071  -15.7314 C   0  0  0  0  0  0  0  0  0  0  0  0
    5.2721   -4.0296  -17.4372 C   0  0  0  0  0  0  0  0  0  0  0  0
    6.5778    8.5213  -19.6569 C   0  0  0  0  0  0  0  0  0  0  0  0
    7.3239    1.2393  -16.3497 C   0  0  2  0  0  0  0  0  0  0  0  0
    6.2331   -3.7102  -16.2556 C   0  0  1  0  0  0  0  0  0  0  0  0
    4.2518    3.9472  -18.6364 C   0  0  2  0  0  0  0  0  0  0  0  0
    5.2440    2.8891  -19.1428 C   0  0  1  0  0  0  0  0  0  0  0  0
    7.1824   -0.1560  -16.8114 N   0  0  0  0  0  0  0  0  0  0  0  0
    5.7235    2.1142  -18.0020 N   0  0  0  0  0  0  0  0  0  0  0  0
    3.9380    5.9409  -17.2209 N   0  0  0  0  0  0  0  0  0  0  0  0
    5.7467   -0.9551  -15.1474 O   0  0  0  0  0  0  0  0  0  0  0  0
    7.8971    2.8178  -18.0595 O   0  0  0  0  0  0  0  0  0  0  0  0
    7.0485   -4.8471  -15.9854 O   0  0  0  0  0  0  0  0  0  0  0  0
    3.7321    4.6747  -19.7479 O   0  0  0  0  0  0  0  0  0  0  0  0
    5.4792    7.9087  -18.9484 O   0  0  0  0  0  0  0  0  0  0  0  0
    8.8422    0.3647  -22.0017 F   0  0  0  0  0  0  0  0  0  0  0  0
    5.4475   -2.8326  -20.9955 F   0  0  0  0  0  0  0  0  0  0  0  0
   13.9313    1.1668  -12.6523 H   0  0  0  0  0  0  0  0  0  0  0  0
   13.2109   -0.8196  -13.9675 H   0  0  0  0  0  0  0  0  0  0  0  0
   12.3123    2.9922  -12.1602 H   0  0  0  0  0  0  0  0  0  0  0  0
   10.8660   -0.9866  -14.7818 H   0  0  0  0  0  0  0  0  0  0  0  0
    9.9602    2.8180  -12.9582 H   0  0  0  0  0  0  0  0  0  0  0  0
    7.1066    2.1395  -21.1287 H   0  0  0  0  0  0  0  0  0  0  0  0
    4.0533   -0.7523  -20.1639 H   0  0  0  0  0  0  0  0  0  0  0  0
    7.8060   -2.0503  -21.8378 H   0  0  0  0  0  0  0  0  0  0  0  0
    6.9209   -2.4328  -18.6233 H   0  0  0  0  0  0  0  0  0  0  0  0
    8.5760   -2.8681  -18.0776 H   0  0  0  0  0  0  0  0  0  0  0  0
    6.1937    5.5909  -19.2791 H   0  0  0  0  0  0  0  0  0  0  0  0
    7.0663    5.3221  -17.7322 H   0  0  0  0  0  0  0  0  0  0  0  0
    9.1233   -0.6518  -17.5327 H   0  0  0  0  0  0  0  0  0  0  0  0
    7.9066   -0.3056  -18.8080 H   0  0  0  0  0  0  0  0  0  0  0  0
    5.1191    6.9436  -15.7742 H   0  0  0  0  0  0  0  0  0  0  0  0
    4.1423    8.0151  -16.8346 H   0  0  0  0  0  0  0  0  0  0  0  0
    8.0389   -2.6233  -15.7982 H   0  0  0  0  0  0  0  0  0  0  0  0
    6.7849    7.5804  -17.3211 H   0  0  0  0  0  0  0  0  0  0  0  0
    5.2365    4.3410  -16.7511 H   0  0  0  0  0  0  0  0  0  0  0  0
    2.5097   -2.4316  -18.8488 H   0  0  0  0  0  0  0  0  0  0  0  0
    3.6196   -3.6133  -19.6221 H   0  0  0  0  0  0  0  0  0  0  0  0
    2.6148   -4.1103  -18.2185 H   0  0  0  0  0  0  0  0  0  0  0  0
    4.8199    9.5776  -22.4759 H   0  0  0  0  0  0  0  0  0  0  0  0
    4.1515    9.0837  -20.8835 H   0  0  0  0  0  0  0  0  0  0  0  0
    5.2119   10.5286  -21.0034 H   0  0  0  0  0  0  0  0  0  0  0  0
    8.5759   -0.2848  -14.5224 H   0  0  0  0  0  0  0  0  0  0  0  0
    8.1523    1.2315  -13.6573 H   0  0  0  0  0  0  0  0  0  0  0  0
    4.2358    2.5001  -21.0193 H   0  0  0  0  0  0  0  0  0  0  0  0
    3.6733    1.4864  -19.6471 H   0  0  0  0  0  0  0  0  0  0  0  0
    4.8655   -2.0247  -18.1677 H   0  0  0  0  0  0  0  0  0  0  0  0
    3.8608   -2.5217  -16.7641 H   0  0  0  0  0  0  0  0  0  0  0  0
    6.0580    7.6290  -21.5530 H   0  0  0  0  0  0  0  0  0  0  0  0
    7.1184    9.0739  -21.6728 H   0  0  0  0  0  0  0  0  0  0  0  0
    8.8372    2.5881  -15.5708 H   0  0  0  0  0  0  0  0  0  0  0  0
    9.4925    1.1456  -16.4171 H   0  0  0  0  0  0  0  0  0  0  0  0
    4.6847   -4.9256  -17.1879 H   0  0  0  0  0  0  0  0  0  0  0  0
    5.8686   -4.2220  -18.3411 H   0  0  0  0  0  0  0  0  0  0  0  0
    7.4806    7.9064  -19.5270 H   0  0  0  0  0  0  0  0  0  0  0  0
    6.7570    9.5266  -19.2480 H   0  0  0  0  0  0  0  0  0  0  0  0
    6.5695    1.4280  -15.5718 H   0  0  0  0  0  0  0  0  0  0  0  0
    5.6081   -3.5034  -15.3744 H   0  0  0  0  0  0  0  0  0  0  0  0
    3.4316    3.4282  -18.1188 H   0  0  0  0  0  0  0  0  0  0  0  0
    6.0842    3.3892  -19.6467 H   0  0  0  0  0  0  0  0  0  0  0  0
    5.0688    1.5214  -17.5330 H   0  0  0  0  0  0  0  0  0  0  0  0
    3.3769    5.6061  -16.4639 H   0  0  0  0  0  0  0  0  0  0  0  0
    3.3476    6.1897  -17.9887 H   0  0  0  0  0  0  0  0  0  0  0  0
    6.4969   -5.6104  -15.8601 H   0  0  0  0  0  0  0  0  0  0  0  0
    3.3266    4.0718  -20.3599 H   0  0  0  0  0  0  0  0  0  0  0  0
  1  2  2  0
  1  3  1  0
  2  4  1  0
  3  5  2  0
  4  9  2  0
  5  9  1  0
  6 10  2  0
  6 11  1  0
  7 10  1  0
  7 12  2  0
  8 11  2  0
  8 12  1  0
  9 24  1  0
 10 25  1  0
 11 43  1  0
 12 44  1  0
 13 19  1  0
 13 35  1  0
 13 38  2  0
 14 31  1  0
 14 36  1  0
 14 39  2  0
 15 17  1  0
 15 19  1  0
 16 20  1  0
 16 21  1  0
 17 35  1  0
 18 20  1  0
 18 37  1  0
 19 32  1  0
 20 42  1  0
 21 33  1  0
 21 37  1  0
 22 26  1  0
 23 27  1  0
 24 28  1  0
 25 34  1  0
 26 29  1  0
 27 30  1  0
 28 31  1  0
 29 32  1  0
 30 42  1  0
 31 35  1  0
 32 40  1  0
 33 34  1  0
 33 41  1  0
 34 36  1  0
  1 45  1  0
  2 46  1  0
  3 47  1  0
  4 48  1  0
  5 49  1  0
  6 50  1  0
  7 51  1  0
  8 52  1  0
 15 53  1  0
 15 54  1  0
 16 55  1  0
 16 56  1  0
 17 57  1  0
 17 58  1  0
 18 59  1  0
 18 60  1  0
 19 61  1  1
 20 62  1  1
 21 63  1  1
 22 64  1  0
 22 65  1  0
 22 66  1  0
 23 67  1  0
 23 68  1  0
 23 69  1  0
 24 70  1  0
 24 71  1  0
 25 72  1  0
 25 73  1  0
 26 74  1  0
 26 75  1  0
 27 76  1  0
 27 77  1  0
 28 78  1  0
 28 79  1  0
 29 80  1  0
 29 81  1  0
 30 82  1  0
 30 83  1  0
 31 84  1  1
 32 85  1  1
 33 86  1  1
 34 87  1  6
 36 88  1  0
 37 89  1  0
 37 90  1  0
 40 91  1  0
 41 92  1  0
M  CHG  1  37   1
M  END
>  <OMEGA_C>  (4) 
JZtOQRT4iz8mEVDBexJIQUDDB71q8FvBQ+k/QbsCCEB8hkvBCNEyQbKDB75KLGPBBZsqQXWXAUDm
rFLBEZvYQHOtjj+xqqjBcjChQCoiBb9rWqTBSCrlQKejoL8386vBL/0jQVafYj9rOF7BHnyvQEYq
UT/EmaTBE3rzQMjDoD2qPazB6vq7QBK0xr/eEqjBBc3QQB51kr/smoDBjKngQJk9CUDiNYzBblL2
QAFbD8Db8o7B6U/EQF8ltkCPe5HBlxwBQUxQRb++mI7BPKWXQM/v4kCqXYbB42jlQM2bHsA6pYPB
/GW8QIrk5EDzVY7BGUadQMNOnUBfDo3BNLRLQCQWUsCIWJXBBLSgQExNGEGBK6vBzGENQTmHRj9B
NmbBobyRQL0C9z/dEqHBL7qJQGW0NsCdto3BVCXIQPAmCkF0OKnBeGQLQUrpwD/5s3vBrbSoQLDy
gMBLf4vBeH3SQFVXCEFbQZ3Bb13qQC+hnj9IzILBYXXHQDJzbcCLC4LBrg6IQEKffEBYF5XBFs+n
QD/nOEBeJJnBkdblQLa1H76yfYbB+Sa3QPVOB0AJBJDBjgd8QKsbvkBhxInBT+W3QIR+dL/pW3LB
9bT8QEpWNEDOeZDBAI3hQLIbm8BcxH/BbttuQDCXlUCu+53BfFWvQOoT/UA+lpfBr3kNQWC/uj5x
A7DBiFGuQD1JNcDa9qfBqeZeQVtZlT/eb0rBuF9TQdLQUb+7el/BGP9EQZd/P0BakELB99otQU2U
fL8kgmzBEV0fQd5ZNEDOVE/B8WjjQBvuCECZB6nB9bSBQCuWQL/DT6HBy8r5QIA4A8DFs67B7Hfd
QEKzG8B8/JTBSzcJQbWPN8DwnpDBaTLGQIToskCQO5rBER/iQGxOqkCB243BPPkRQTjaJr/xQozB
/gL9QFxynL69dpbBe8+jQM0x3kAnY3zBkY2EQM89AEE7rYbBS58AQfXkJ8A/xXzBPR7ZQNeS8kCW
kYrBEJGnQJHpikAsAobBtJ4gQEmfG8BeypbB46dnQGtAZ8AT+pzBalknQJuHg8CHv5HBaDyaQAU+
GUGuzrPB5tiEQM9WEUGCEafB08emQD51KEHzBqjB9TYJQWvMkb7SW2jBBnACQTWgnT98hFrBiYuH
QBIBIEB2J6jBlxZrQKtDvj9NLZ3BjrKbQAmVAcBqV5HBohZ3QNVjIcDdHIbBCdvBQNQg9ECBbKzB
9cnjQNkuEUHyYa3BAGUNQXejJUDQIXnBNOEXQZeikj9OVoPBuOiVQM+encDQgInBWMu7QLYah8Ce
upLBwGDvQP0A/UA1N5zBKznYQBhtGEHP+5nB+jjSQH7Jtj8iJnnBLHWzQMY3YMB//XXBl59bQEBn
W0BP85DBvbHCQGjpWECALJ3BvjOiQBi8wj+WQ4zB8h5YQMVks0D9tYPB4z5WQEwSxkDa6I/BTebP
QBKIs8DPwn3Bl+dUQA1MgkAQ4aLB

>  <OMEGA_E>  (4) 
LNa7Pg==

>  <OMEGA_NBR>  (4) 
      6120

$$$$
50197331
     RDKit          3D

 98101  0  0  1  0  0  0  0  0999 V2000
   12.9490    0.9255  -13.0882 C   0  0  0  0  0  0  0  0  0  0  0  0
   12.0521    1.9553  -12.7378 C   0  0  0  0  0  0  0  0  0  0  0  0
   12.5123   -0.1544  -13.8822 C   0  0  0  0  0  0  0  0  0  0  0  0
   10.7133    1.8984  -13.1681 C   0  0  0  0  0  0  0  0  0  0  0  0
   11.1741   -0.2133  -14.3125 C   0  0  0  0  0  0  0  0  0  0  0  0
    6.7875    1.1274  -21.0763 C   0  0  0  0  0  0  0  0  0  0  0  0
    4.9714   -0.4656  -20.7411 C   0  0  0  0  0  0  0  0  0  0  0  0
    7.1090   -1.2248  -21.6373 C   0  0  0  0  0  0  0  0  0  0  0  0
   10.2692    0.8007  -13.9337 C   0  0  0  0  0  0  0  0  0  0  0  0
    5.4737    0.8455  -20.6361 C   0  0  0  0  0  0  0  0  0  0  0  0
    7.6058    0.0908  -21.5625 C   0  0  0  0  0  0  0  0  0  0  0  0
    5.7856   -1.4987  -21.2449 C   0  0  0  0  0  0  0  0  0  0  0  0
    6.2874   -1.1529  -16.2201 C   0  0  0  0  0  0  0  0  0  0  0  0
    7.5672   -3.7133  -14.9370 C   0  0  0  0  0  0  0  0  0  0  0  0
    7.0161    2.0904  -17.5256 C   0  0  0  0  0  0  0  0  0  0  0  0
    7.7973   -2.2943  -17.7538 C   0  0  0  0  0  0  0  0  0  0  0  0
    6.1398    5.6932  -18.1941 C   0  0  0  0  0  0  0  0  0  0  0  0
    7.7784   -0.7974  -17.9945 C   0  0  0  0  0  0  0  0  0  0  0  0
    4.7683    7.0586  -16.7461 C   0  0  0  0  0  0  0  0  0  0  0  0
    5.9144    7.1434  -17.7435 C   0  0  2  0  0  0  0  0  0  0  0  0
    4.9254    4.9128  -17.6354 C   0  0  2  0  0  0  0  0  0  0  0  0
    6.5061   -2.5180  -16.9357 C   0  0  2  0  0  0  0  0  0  0  0  0
    7.6472   -5.0221  -14.1600 C   0  0  0  0  0  0  0  0  0  0  0  0
    5.0357    9.4577  -21.3754 C   0  0  0  0  0  0  0  0  0  0  0  0
    2.8558   -2.8760  -18.4909 C   0  0  0  0  0  0  0  0  0  0  0  0
    5.4214   -4.3890  -18.3678 C   0  0  0  0  0  0  0  0  0  0  0  0
    8.8455    0.7406  -14.4053 C   0  0  0  0  0  0  0  0  0  0  0  0
    4.5582    1.9509  -20.1540 C   0  0  0  0  0  0  0  0  0  0  0  0
    6.2760    8.5946  -21.0947 C   0  0  0  0  0  0  0  0  0  0  0  0
    3.9364   -2.5262  -17.4462 C   0  0  0  0  0  0  0  0  0  0  0  0
    8.7390    1.4096  -15.7782 C   0  0  0  0  0  0  0  0  0  0  0  0
    6.5983    8.5401  -19.5947 C   0  0  0  0  0  0  0  0  0  0  0  0
    7.3308    1.1725  -16.3500 C   0  0  2  0  0  0  0  0  0  0  0  0
    4.2593    3.9432  -18.6330 C   0  0  2  0  0  0  0  0  0  0  0  0
    5.3556   -2.8828  -17.9501 C   0  0  1  0  0  0  0  0  0  0  0  0
    5.2497    2.8820  -19.1374 C   0  0  1  0  0  0  0  0  0  0  0  0
    7.1784   -0.2333  -16.7804 N   0  0  0  0  0  0  0  0  0  0  0  0
    6.6258   -3.6162  -15.9559 N   0  0  0  0  0  0  0  0  0  0  0  0
    5.7159    2.0833  -18.0002 N   0  0  0  0  0  0  0  0  0  0  0  0
    3.9533    5.9390  -17.2212 N   0  0  0  0  0  0  0  0  0  0  0  0
    5.6069   -0.9636  -15.2173 O   0  0  0  0  0  0  0  0  0  0  0  0
    8.4167   -2.8508  -14.7462 O   0  0  0  0  0  0  0  0  0  0  0  0
    7.8903    2.7745  -18.0490 O   0  0  0  0  0  0  0  0  0  0  0  0
    3.7388    4.6726  -19.7440 O   0  0  0  0  0  0  0  0  0  0  0  0
    5.5015    7.9491  -18.8647 O   0  0  0  0  0  0  0  0  0  0  0  0
    8.8632    0.3630  -21.9752 F   0  0  0  0  0  0  0  0  0  0  0  0
    5.3005   -2.7576  -21.3367 F   0  0  0  0  0  0  0  0  0  0  0  0
   13.9731    0.9640  -12.7474 H   0  0  0  0  0  0  0  0  0  0  0  0
   12.3923    2.7876  -12.1395 H   0  0  0  0  0  0  0  0  0  0  0  0
   13.2043   -0.9357  -14.1598 H   0  0  0  0  0  0  0  0  0  0  0  0
   10.0281    2.6932  -12.9126 H   0  0  0  0  0  0  0  0  0  0  0  0
   10.8403   -1.0330  -14.9315 H   0  0  0  0  0  0  0  0  0  0  0  0
    7.1634    2.1392  -21.0394 H   0  0  0  0  0  0  0  0  0  0  0  0
    3.9583   -0.6799  -20.4344 H   0  0  0  0  0  0  0  0  0  0  0  0
    7.7429   -2.0226  -21.9954 H   0  0  0  0  0  0  0  0  0  0  0  0
    7.7679   -2.8499  -18.7027 H   0  0  0  0  0  0  0  0  0  0  0  0
    8.6875   -2.5936  -17.1811 H   0  0  0  0  0  0  0  0  0  0  0  0
    6.1703    5.6286  -19.2917 H   0  0  0  0  0  0  0  0  0  0  0  0
    7.0786    5.2993  -17.7774 H   0  0  0  0  0  0  0  0  0  0  0  0
    8.7997   -0.4142  -18.1367 H   0  0  0  0  0  0  0  0  0  0  0  0
    7.1693   -0.5540  -18.8776 H   0  0  0  0  0  0  0  0  0  0  0  0
    5.1481    6.8610  -15.7328 H   0  0  0  0  0  0  0  0  0  0  0  0
    4.1848    7.9911  -16.7436 H   0  0  0  0  0  0  0  0  0  0  0  0
    6.8196    7.5425  -17.2625 H   0  0  0  0  0  0  0  0  0  0  0  0
    5.2527    4.3402  -16.7550 H   0  0  0  0  0  0  0  0  0  0  0  0
    8.5207   -4.9996  -13.4918 H   0  0  0  0  0  0  0  0  0  0  0  0
    6.7322   -5.1505  -13.5630 H   0  0  0  0  0  0  0  0  0  0  0  0
    7.7460   -5.8611  -14.8644 H   0  0  0  0  0  0  0  0  0  0  0  0
    4.8363    9.4732  -22.4571 H   0  0  0  0  0  0  0  0  0  0  0  0
    4.1678    9.0343  -20.8487 H   0  0  0  0  0  0  0  0  0  0  0  0
    5.2152   10.4835  -21.0210 H   0  0  0  0  0  0  0  0  0  0  0  0
    1.8642   -2.6087  -18.0971 H   0  0  0  0  0  0  0  0  0  0  0  0
    3.0460   -2.3141  -19.4172 H   0  0  0  0  0  0  0  0  0  0  0  0
    2.8872   -3.9548  -18.7035 H   0  0  0  0  0  0  0  0  0  0  0  0
    4.6075   -4.6101  -19.0740 H   0  0  0  0  0  0  0  0  0  0  0  0
    6.3894   -4.5942  -18.8483 H   0  0  0  0  0  0  0  0  0  0  0  0
    5.3138   -5.0221  -17.4747 H   0  0  0  0  0  0  0  0  0  0  0  0
    8.5281   -0.3098  -14.4827 H   0  0  0  0  0  0  0  0  0  0  0  0
    8.1984    1.2674  -13.6886 H   0  0  0  0  0  0  0  0  0  0  0  0
    4.2383    2.5484  -21.0204 H   0  0  0  0  0  0  0  0  0  0  0  0
    3.6773    1.4974  -19.6761 H   0  0  0  0  0  0  0  0  0  0  0  0
    6.0895    7.5729  -21.4573 H   0  0  0  0  0  0  0  0  0  0  0  0
    7.1369    9.0220  -21.6296 H   0  0  0  0  0  0  0  0  0  0  0  0
    3.8932   -1.4473  -17.2361 H   0  0  0  0  0  0  0  0  0  0  0  0
    3.7344   -3.0880  -16.5223 H   0  0  0  0  0  0  0  0  0  0  0  0
    8.9169    2.4902  -15.6754 H   0  0  0  0  0  0  0  0  0  0  0  0
    9.4890    0.9774  -16.4570 H   0  0  0  0  0  0  0  0  0  0  0  0
    7.5039    7.9352  -19.4404 H   0  0  0  0  0  0  0  0  0  0  0  0
    6.7718    9.5611  -19.2240 H   0  0  0  0  0  0  0  0  0  0  0  0
    6.6023    1.3776  -15.5518 H   0  0  0  0  0  0  0  0  0  0  0  0
    3.4389    3.4273  -18.1126 H   0  0  0  0  0  0  0  0  0  0  0  0
    5.5344   -2.2903  -18.8595 H   0  0  0  0  0  0  0  0  0  0  0  0
    6.0997    3.3818  -19.6250 H   0  0  0  0  0  0  0  0  0  0  0  0
    5.9653   -4.3632  -16.0325 H   0  0  0  0  0  0  0  0  0  0  0  0
    5.0520    1.4956  -17.5376 H   0  0  0  0  0  0  0  0  0  0  0  0
    3.3679    5.5936  -16.4877 H   0  0  0  0  0  0  0  0  0  0  0  0
    3.3866    6.2199  -17.9957 H   0  0  0  0  0  0  0  0  0  0  0  0
    3.3299    4.0709  -20.3549 H   0  0  0  0  0  0  0  0  0  0  0  0
  1  2  2  0
  1  3  1  0
  2  4  1  0
  3  5  2  0
  4  9  2  0
  5  9  1  0
  6 10  2  0
  6 11  1  0
  7 10  1  0
  7 12  2  0
  8 11  2  0
  8 12  1  0
  9 27  1  0
 10 28  1  0
 11 46  1  0
 12 47  1  0
 13 22  1  0
 13 37  1  0
 13 41  2  0
 14 23  1  0
 14 38  1  0
 14 42  2  0
 15 33  1  0
 15 39  1  0
 15 43  2  0
 16 18  1  0
 16 22  1  0
 17 20  1  0
 17 21  1  0
 18 37  1  0
 19 20  1  0
 19 40  1  0
 20 45  1  0
 21 34  1  0
 21 40  1  0
 22 35  1  0
 22 38  1  1
 24 29  1  0
 25 30  1  0
 26 35  1  0
 27 31  1  0
 28 36  1  0
 29 32  1  0
 30 35  1  0
 31 33  1  0
 32 45  1  0
 33 37  1  0
 34 36  1  0
 34 44  1  0
 36 39  1  0
  1 48  1  0
  2 49  1  0
  3 50  1  0
  4 51  1  0
  5 52  1  0
  6 53  1  0
  7 54  1  0
  8 55  1  0
 16 56  1  0
 16 57  1  0
 17 58  1  0
 17 59  1  0
 18 60  1  0
 18 61  1  0
 19 62  1  0
 19 63  1  0
 20 64  1  1
 21 65  1  1
 23 66  1  0
 23 67  1  0
 23 68  1  0
 24 69  1  0
 24 70  1  0
 24 71  1  0
 25 72  1  0
 25 73  1  0
 25 74  1  0
 26 75  1  0
 26 76  1  0
 26 77  1  0
 27 78  1  0
 27 79  1  0
 28 80  1  0
 28 81  1  0
 29 82  1  0
 29 83  1  0
 30 84  1  0
 30 85  1  0
 31 86  1  0
 31 87  1  0
 32 88  1  0
 32 89  1  0
 33 90  1  1
 34 91  1  1
 35 92  1  6
 36 93  1  6
 38 94  1  0
 39 95  1  0
 40 96  1  0
 40 97  1  0
 44 98  1  0
M  CHG  1  40   1
M  END
>  <OMEGA_C>  (5) 
Ai9PQYfsbD8taVHBOtVAQTFI+j8ezkvBYzJIQUMbHr5THV7BlmkrQYb/8j9msFLBMskyQeFzWr4K
AGXBXDPZQKpPkD88nKjBvhWfQLpe7r7R7aXBG33jQD/HnL80Ga3BeE4kQdf6TD9k8F7B3iivQDZx
WD/MFqXBnWLzQBIIuj3nf6zB6iO5QIbUv7939anBUTLJQHCRk7+twoHBGybyQEGmbcAH/m7BIYTg
QDXJBUCCNIzBw4P5QCvWEsC6B47BOXnEQHoutkBrjZHB2+j4QDkfTL/U9I/Bt5WYQDzg4UD694XB
F0O9QMCW5EDG8o3BipydQGs1nUA8FY3BpDHQQFInIcBCfIfBnLX0QBy1oMA3j2LBhSShQJ9SF0HQ
AKvBJMY2QAUROMBY7ZPB73utQN9yjMBL8ZLBXocNQW+WPT8pfGbBddyRQPu1+T9vO6HBB9XIQF+D
CUEJwqjBe+57QAStIcDRkYvB9dILQcJttD+Xc3zB8CTTQC+kCEHZwZzBMpbqQLwUlj/bzILBFkyI
QN1dfEBeEJXBJ2GrQEp/OMDMmY/Bx/2nQGhzOEBgGZnBjbXlQF/obr5EPobBWAbUQIdwZ8BQS3/B
X+i2QMFUBUBpAJDBzwJ9QPoLvkAMxYnBbmuzQFuwdr80enPB26oGQehzNsBX8GvBin38QEaRMUBd
ZJDBdUhvQEKGlUDD853BTwywQLpe/kDS6pbByc8NQejZuT48za/B+p2pQA98MMCQsarBx5FfQVnK
dj999UvBq0ZGQdpnMkBSO0LB1ERTQYOKb7+bjmLB93IgQd5cLED5mU7B6XEtQfQ4hL9h527BdTrl
QFXpCECXUKjBxVR9QN8LLr+aeaPBlsX3QMdxAcCi9q/B6pL4QDJlNsAbn5XBMgALQSn9JcDfconB
CHPFQLEdtEB4VZrBhoPiQB+UqUAOOI7BlMsMQdYW1L4GGJHBnmrlQPjRDb85BZfB1bykQKWN20CR
uXvB2OmFQDm3/0Ds8oXBQDraQDxc8UClGYrBBhaoQOriikBHCobBuFQIQeT8n8BY3lfBcW7XQJDQ
pMDiAVnBo9/3QIGOu8Cc1G3BnMKaQB2SF0ELqLPBNl6FQLKMEEEQyqbBj+KmQDi8J0EUK6jB1Jzu
Pzj1JsDGxpDB3/FCQHEaFMB1VpvBo8c4QDkcfcC0oJXBW3CTQP+Fk8CEl5jBxHXMQL8Dk8BcyZbB
AQuqQBi1oMA2zIvBE3MIQXuanr4ruWfBpywDQbU4oj9tBFvBcaCHQNgYI0DaKajBy1hrQJSpvz+n
aJ3Bed3CQDBV8kBzqKvB0mHkQB5aEEF3Ca3B+yp5QDRBub+B44nBvwBvQGKiRcDBLYTBvasOQQRg
H0CBznrB+dIXQSE6ej/vp4PBWCDwQOPs/UDhhZvBNLLYQGH6GEHKypnBAEbTQAJWsD8y1HjBPRdc
QLZYW0Cf5pDB3hmxQJOUEsBH4JbB4DDDQHpvWED//5zBDOS+QFufi8CkQoDBRKqhQOpwvz8NTYzB
D4tXQKr+skDl5oPBZ71YQG0Jx0BE94/BlR1VQLREgkDs1qLBaYBPQQhtdz+IolHBs21IQd74Br60
4F3BKDNBQb9kAECZXkzBiP4yQRy3Sr6yq2TBN70rQbhd+D9IHlPBOHTZQD94jD9klajB9v6eQHla
+L4q9KXBzEbjQBi2oL/YHq3BNY8kQYpPUz+q7V7BeVKvQHCjUj+NFqXBG3fzQNzTZT1BeazBYt24
QGTIwr8n/6nBdKXJQN9yk7//u4HBnQzyQDdLb8C+DW/Bs+PgQE+3BUBFN4zBMW76QBh2EsCY5I3B
W2HEQObxtUCftJHBHpT5QBxXS78k44/BS4mYQKaR4UAdFobBDCC9QJ5V5EALF47B8cWdQEzXnECc
J43BpdbQQNQDIcBcd4fB/zL1QI9aosAuXmPB5WKhQKfnGEFIuqrBlMg4QI9SPcAI7JPBxJ6vQFH9
i8BsOpPBiMUNQdynQT+vbmbByyWSQOJY9z/rPqHBi/nHQBAlCkFY1qjBJlJ9QEiRJMAjk4vB5gUM
QVSWtT/DcXzBgv7SQHhyCEG45pzBcP7qQGmUlj/GyILBGHiIQHMWe0ClEpXBS2CsQM05OMAFqI/B
4UioQLF2N0AKI5nBpC3mQGaza779M4bBJEzUQPMQaMDMdn/Bylq3QDCABECGDJDB0SF9QKSTvUCB
1onB0uSzQDhLd7+/aHPBiysGQZAeN8CRQGvBkcT8QHPJMUCIZZDBKL1uQGaglEAF853BXNyvQAcd
/kDNDZfBgvANQbcXoz4lsa/BcSapQDfOMcAVtqrB4elfQQeBgT+TRkzBGHRTQQn2a7/nCWLBsrVG
QSOSNkBOKUPB7pktQRXsg79gQ27B280gQW9vL0DIQ0/Bua7lQIjVBkCtRKjB1A59QBOpMb9sgqPB
6mL3QFCYA8CmArDBvPz5QNxhNsDddZXBcmALQZUBJcDINYnBoBHFQDTfs0AUfZrBqJPiQHV0qUAx
b47B7BgNQUWuz74uBZHBqBrmQM4JD7+w+JbBBsykQHNp20D29nvB3byFQDFU/0C6FIbBZBzaQIwf
8UBJQYrBqICoQLK1ikDhGobBI1kIQfm5ocBlYljBZqrXQPvlp8CtM1rB2n/5QPxCvMA2Fm/BDHCa
QA28GUEyWLPBbVeFQNaFEkEleabBXr+oQP0GKUFJt6fBcaDxP/55LsA7wJDBLYxDQBDlGMDGVJvB
wS09QK0egcDwoZXBOtKVQEE2k8Co75jBYcrOQO6NkcCcEpfBGYqsQO3eoMCTL4zBDsMIQepTl74F
lmfBZGQDQe1XpD/W/lrBBvGHQPTHIUD1MKjBid9rQCe2vT+maJ3BHWXAQHYw9EA16avBDs3jQGKZ
EEFaJ63BAjV4QHFXv7/04YnBltZxQAIEScAeL4TBEtYOQbABIECT4XrBsQcYQbQgfD/po4PBxpfv
QHi+/EDY7ZvBlX7ZQOSIGEFHuZnBtarTQAQCsT8Uz3jBNexcQBbOWUDf2JDBJa+xQJLLEMAg05bB
Ol/DQHmrV0DcDp3BkyG/QGHZi8AYeYDBjEKiQAq+vD/nYIzBn+5XQF+CskAE8oPBk5pYQElpxkBC
BpDBQJhUQA4zgUDPy6LB

>  <OMEGA_E>  (5) 
+N1APpDCQD4=

>  <OMEGA_NBR>  (5) 
      9470

$$$$
50197338
     RDKit          3D

 91 94  0  0  1  0  0  0  0  0999 V2000
   12.9055    0.8610  -13.0406 C   0  0  0  0  0  0  0  0  0  0  0  0
   12.4634   -0.2288  -13.8177 C   0  0  0  0  0  0  0  0  0  0  0  0
   12.0252    1.9198  -12.7365 C   0  0  0  0  0  0  0  0  0  0  0  0
   11.1361   -0.2668  -14.2792 C   0  0  0  0  0  0  0  0  0  0  0  0
   10.6960    1.8818  -13.1943 C   0  0  0  0  0  0  0  0  0  0  0  0
    6.7658    1.1245  -21.0491 C   0  0  0  0  0  0  0  0  0  0  0  0
    4.8723   -0.4017  -20.8477 C   0  0  0  0  0  0  0  0  0  0  0  0
    7.0013   -1.2090  -21.7182 C   0  0  0  0  0  0  0  0  0  0  0  0
   10.2484    0.7765  -13.9443 C   0  0  0  0  0  0  0  0  0  0  0  0
    5.4269    0.8792  -20.6620 C   0  0  0  0  0  0  0  0  0  0  0  0
    7.5562    0.0744  -21.5534 C   0  0  0  0  0  0  0  0  0  0  0  0
    5.6507   -1.4366  -21.3953 C   0  0  0  0  0  0  0  0  0  0  0  0
    6.4416   -1.1156  -15.9621 C   0  0  0  0  0  0  0  0  0  0  0  0
    6.9989    2.1364  -17.5355 C   0  0  0  0  0  0  0  0  0  0  0  0
    7.4707   -2.2574  -17.7901 C   0  0  0  0  0  0  0  0  0  0  0  0
    6.1045    5.7045  -18.1821 C   0  0  0  0  0  0  0  0  0  0  0  0
    7.5919   -0.7640  -17.9976 C   0  0  0  0  0  0  0  0  0  0  0  0
    4.7378    7.0817  -16.7396 C   0  0  0  0  0  0  0  0  0  0  0  0
    6.2989   -2.3640  -16.8150 C   0  0  2  0  0  0  0  0  0  0  0  0
    5.9098    7.1529  -17.7105 C   0  0  2  0  0  0  0  0  0  0  0  0
    4.8821    4.9369  -17.6358 C   0  0  2  0  0  0  0  0  0  0  0  0
    5.0785    9.1886  -21.4683 C   0  0  0  0  0  0  0  0  0  0  0  0
    3.1235   -3.1904  -18.9467 C   0  0  0  0  0  0  0  0  0  0  0  0
    4.8286   -4.7622  -17.9651 C   0  0  0  0  0  0  0  0  0  0  0  0
    8.8373    0.7264  -14.4316 C   0  0  0  0  0  0  0  0  0  0  0  0
    4.5313    1.9983  -20.1774 C   0  0  0  0  0  0  0  0  0  0  0  0
    4.8976   -2.2595  -17.4675 C   0  0  0  0  0  0  0  0  0  0  0  0
    6.3038    9.5120  -20.5992 C   0  0  0  0  0  0  0  0  0  0  0  0
    8.7368    1.4332  -15.7912 C   0  0  0  0  0  0  0  0  0  0  0  0
    6.6641    8.3401  -19.6791 C   0  0  0  0  0  0  0  0  0  0  0  0
    7.3193    1.2360  -16.3440 C   0  0  2  0  0  0  0  0  0  0  0  0
    4.2287    3.9762  -18.6491 C   0  0  2  0  0  0  0  0  0  0  0  0
    4.5938   -3.3444  -18.5108 C   0  0  0  0  0  0  0  0  0  0  0  0
    5.2263    2.9186  -19.1548 C   0  0  1  0  0  0  0  0  0  0  0  0
    7.1370   -0.1729  -16.7259 N   0  0  0  0  0  0  0  0  0  0  0  0
    5.6998    2.1122  -18.0224 N   0  0  0  0  0  0  0  0  0  0  0  0
    3.9164    5.9731  -17.2331 N   0  0  0  0  0  0  0  0  0  0  0  0
    5.8360   -0.9035  -14.9181 O   0  0  0  0  0  0  0  0  0  0  0  0
    7.8626    2.8465  -18.0398 O   0  0  0  0  0  0  0  0  0  0  0  0
    3.7220    4.7175  -19.7603 O   0  0  0  0  0  0  0  0  0  0  0  0
    5.5569    8.0217  -18.8060 O   0  0  0  0  0  0  0  0  0  0  0  0
    8.8383    0.3065  -21.9119 F   0  0  0  0  0  0  0  0  0  0  0  0
    5.0842   -2.6327  -21.6687 F   0  0  0  0  0  0  0  0  0  0  0  0
   13.9222    0.8852  -12.6769 H   0  0  0  0  0  0  0  0  0  0  0  0
   13.1431   -1.0329  -14.0581 H   0  0  0  0  0  0  0  0  0  0  0  0
   12.3716    2.7594  -12.1521 H   0  0  0  0  0  0  0  0  0  0  0  0
   10.7975   -1.0922  -14.8879 H   0  0  0  0  0  0  0  0  0  0  0  0
   10.0220    2.6958  -12.9721 H   0  0  0  0  0  0  0  0  0  0  0  0
    7.1812    2.1172  -20.9576 H   0  0  0  0  0  0  0  0  0  0  0  0
    3.8460   -0.5896  -20.5688 H   0  0  0  0  0  0  0  0  0  0  0  0
    7.6116   -2.0179  -22.0920 H   0  0  0  0  0  0  0  0  0  0  0  0
    7.2484   -2.7731  -18.7360 H   0  0  0  0  0  0  0  0  0  0  0  0
    8.3903   -2.6736  -17.3529 H   0  0  0  0  0  0  0  0  0  0  0  0
    6.1315    5.6563  -19.2808 H   0  0  0  0  0  0  0  0  0  0  0  0
    7.0368    5.2873  -17.7738 H   0  0  0  0  0  0  0  0  0  0  0  0
    8.6355   -0.4843  -18.2044 H   0  0  0  0  0  0  0  0  0  0  0  0
    6.9523   -0.4345  -18.8296 H   0  0  0  0  0  0  0  0  0  0  0  0
    5.0915    6.8782  -15.7181 H   0  0  0  0  0  0  0  0  0  0  0  0
    4.1674    8.0222  -16.7496 H   0  0  0  0  0  0  0  0  0  0  0  0
    6.3764   -3.2745  -16.2027 H   0  0  0  0  0  0  0  0  0  0  0  0
    6.8132    7.5061  -17.1918 H   0  0  0  0  0  0  0  0  0  0  0  0
    5.1942    4.3597  -16.7530 H   0  0  0  0  0  0  0  0  0  0  0  0
    4.8490   10.0491  -22.1141 H   0  0  0  0  0  0  0  0  0  0  0  0
    5.2938    8.3089  -22.0926 H   0  0  0  0  0  0  0  0  0  0  0  0
    4.2153    8.9761  -20.8204 H   0  0  0  0  0  0  0  0  0  0  0  0
    2.9604   -2.1747  -19.3364 H   0  0  0  0  0  0  0  0  0  0  0  0
    2.8953   -3.9255  -19.7326 H   0  0  0  0  0  0  0  0  0  0  0  0
    2.4651   -3.3615  -18.0823 H   0  0  0  0  0  0  0  0  0  0  0  0
    5.8789   -4.8671  -17.6554 H   0  0  0  0  0  0  0  0  0  0  0  0
    4.1723   -4.9351  -17.0995 H   0  0  0  0  0  0  0  0  0  0  0  0
    4.6025   -5.4991  -18.7498 H   0  0  0  0  0  0  0  0  0  0  0  0
    8.5246   -0.3226  -14.5403 H   0  0  0  0  0  0  0  0  0  0  0  0
    8.1816    1.2314  -13.7071 H   0  0  0  0  0  0  0  0  0  0  0  0
    4.2249    2.6033  -21.0434 H   0  0  0  0  0  0  0  0  0  0  0  0
    3.6413    1.5568  -19.7051 H   0  0  0  0  0  0  0  0  0  0  0  0
    4.1424   -2.3292  -16.6707 H   0  0  0  0  0  0  0  0  0  0  0  0
    4.8212   -1.2790  -17.9603 H   0  0  0  0  0  0  0  0  0  0  0  0
    7.1602    9.7283  -21.2547 H   0  0  0  0  0  0  0  0  0  0  0  0
    6.0817   10.3954  -19.9826 H   0  0  0  0  0  0  0  0  0  0  0  0
    8.9392    2.5071  -15.6660 H   0  0  0  0  0  0  0  0  0  0  0  0
    9.4696    1.0008  -16.4883 H   0  0  0  0  0  0  0  0  0  0  0  0
    6.9059    7.4596  -20.2926 H   0  0  0  0  0  0  0  0  0  0  0  0
    7.5381    8.6138  -19.0699 H   0  0  0  0  0  0  0  0  0  0  0  0
    6.6086    1.4756  -15.5394 H   0  0  0  0  0  0  0  0  0  0  0  0
    3.4021    3.4551  -18.1439 H   0  0  0  0  0  0  0  0  0  0  0  0
    5.2416   -3.1882  -19.3860 H   0  0  0  0  0  0  0  0  0  0  0  0
    6.0738    3.4239  -19.6410 H   0  0  0  0  0  0  0  0  0  0  0  0
    5.0433    1.5063  -17.5730 H   0  0  0  0  0  0  0  0  0  0  0  0
    3.3149    5.6319  -16.5107 H   0  0  0  0  0  0  0  0  0  0  0  0
    3.3658    6.2641  -18.0155 H   0  0  0  0  0  0  0  0  0  0  0  0
    3.3203    4.1220  -20.3821 H   0  0  0  0  0  0  0  0  0  0  0  0
  1  2  2  0
  1  3  1  0
  2  4  1  0
  3  5  2  0
  4  9  2  0
  5  9  1  0
  6 10  2  0
  6 11  1  0
  7 10  1  0
  7 12  2  0
  8 11  2  0
  8 12  1  0
  9 25  1  0
 10 26  1  0
 11 42  1  0
 12 43  1  0
 13 19  1  0
 13 35  1  0
 13 38  2  0
 14 31  1  0
 14 36  1  0
 14 39  2  0
 15 17  1  0
 15 19  1  0
 16 20  1  0
 16 21  1  0
 17 35  1  0
 18 20  1  0
 18 37  1  0
 19 27  1  0
 20 41  1  0
 21 32  1  0
 21 37  1  0
 22 28  1  0
 23 33  1  0
 24 33  1  0
 25 29  1  0
 26 34  1  0
 27 33  1  0
 28 30  1  0
 29 31  1  0
 30 41  1  0
 31 35  1  0
 32 34  1  0
 32 40  1  0
 34 36  1  0
  1 44  1  0
  2 45  1  0
  3 46  1  0
  4 47  1  0
  5 48  1  0
  6 49  1  0
  7 50  1  0
  8 51  1  0
 15 52  1  0
 15 53  1  0
 16 54  1  0
 16 55  1  0
 17 56  1  0
 17 57  1  0
 18 58  1  0
 18 59  1  0
 19 60  1  1
 20 61  1  1
 21 62  1  1
 22 63  1  0
 22 64  1  0
 22 65  1  0
 23 66  1  0
 23 67  1  0
 23 68  1  0
 24 69  1  0
 24 70  1  0
 24 71  1  0
 25 72  1  0
 25 73  1  0
 26 74  1  0
 26 75  1  0
 27 76  1  0
 27 77  1  0
 28 78  1  0
 28 79  1  0
 29 80  1  0
 29 81  1  0
 30 82  1  0
 30 83  1  0
 31 84  1  1
 32 85  1  1
 33 86  1  0
 34 87  1  6
 36 88  1  0
 37 89  1  0
 37 90  1  0
 40 91  1  0
M  CHG  1  37   1
M  END
>  <OMEGA_C>  (6) 
Dn1OQSVqXD94plDBKGpHQVtIar50FV3BRWdAQXK69T+LyEvBqy0yQYagiL6Ad2TB/yIrQRbe8D8L
HFPByYHYQP7tjz+PZKjBwOmbQIKnzb4oyKbB+ArgQKjAmr/evq3BcvkjQfLJRj8GHF/BUamtQLYT
YT/CS6XBX8zxQOdomD1TbazBSNK0QLTit7+AKavBYiHOQNvLjr+4ZH/BQ/ffQB27CEDHSIzBDRDv
QIx5EMAsUo7B6FfDQDaLtkAGdZHBI/HyQAWWQ78g+4/B5ZuXQOmc4kCs6oXByJDJQLdLF8AihYbB
Hh29QJDk5EAtr43BizqcQP76nUAlFo3BHIOiQLQEE0Efv6vBXedHQOovTMDrkpfBP4SaQMxjmMB8
uI/Bx2UNQcL1OT/152bBogCRQEfI/z9Wa6HBzLicQNKbEMBqvYvBnLjJQAoxGEESy6TB48kLQV5z
tz+vqHzBPEDVQN9wBUHkbp3B3TfqQCU0nj+awILBR1GHQFp6fkBUMZXBZACTQEgKVsA4FpTBCD6n
QKPJOkABPZnBgGLkQKUGMb6yzoXBumS2QPMtB0DgLZDBF6Z6QF4jv0Bw3YnBfcC6QAxKZ7++sG7B
0Jr7QLItNkCWUZDBrjVuQLH1lkAwFZ7BvtGxQLNYAEHFcpbB22kNQQLsnD6jS6/B5bGiQGt9KMCC
Wa3BIsFeQZ2ZYj+h1ErBFEpSQXk3hL8h7mDB5fFFQQ+aMEApb0LBf8IsQanLi7/1NG7B7FkgQeSH
LEDZjU/Bw8zlQJJ/B0A8qafB1SR2QMzyFr/njKTB3pHzQBAlAcB1vLDBHvPnQOp5McBY45XBuz4G
QSUcK8DU0orBJzXEQBYAtUD6PprBLC3hQD0xqUCwMI7B9CoKQWPy976RopHB7XjeQDF43r4Xo5bB
bu2iQEca3EAyfXvBIVuFQLxaAEEz/4XB1QvMQFiRUcAHn4HB7wXaQNYx8EDKiInB7jamQFqCi0AQ
BobBQCubQAjJIEGg6bDB7mapQGzxBEGyvbDB/+OGQA2eD0FCkKbB9Hc9QP4uC8DesJrBUkw5QEI7
e8Bi3J3BAsQdQI0iV8CRqJDBLSC8QJ2/m8BQPo3BO4OFQIHsncC8y4jBY0eTQNz4r8CN/5XBkWQI
Qfsnpb4EpWjB6OcCQRSenT8XUFvBBTKHQPacJkD5WKjBpQtpQM5Gxz8ipJ3Bo46EQGQSFcCRXYXB
5EaaQJ63o7+mro/BLyDlQAinG0G5CarBQJ3CQKpTJkFK3J/BDQcPQR91IEDkp3rBZYMXQcoZgD8g
6IPBaP3cQPy07kAyV6LBXDjxQBLSCUE+j5jBs3nTQH/fvD9SoXjBDLxZQAggXUC8JpHBNLunQJIL
TMCcFpvBe1zCQJshW0DEIJ3B5GKhQBzOwD+NlYzBrSdUQJY4tED7FYTBSWlXQMRzyEDHH5DBiYBU
QLrng0CODqPBbEBOQYkkZT/TzFDBXDlHQZFwQL7saF3B1A5AQbOE+D+YlEvBN+4xQcs5bb4KnmTB
q7sqQQPr8j9uu1LBG5fYQIHgkD9S8ajB+USeQNhV6r79V6bB26PiQK7Nm79Bia3B/50jQaVXTD+D
5F7BlYWuQG3vWT8rb6XBWanyQGLMxD224qzB8k64QC7Avr/pYarBHjjOQAOAkb/NGIDB0BfgQO8R
B0BZbIzB8jD1QEDEEsBolI3B/sXDQHp0tkALuZHB10L5QBvSS79FbI/BobCXQETZ4UDoGobBODDM
QN+jGMCvAYfB3uS8QOG25EAA743BqJecQP2NnUD4aY3B4s6hQHboGEEmdqrBgbufQAxYl8BlvZLB
HD9AQAI3TcBgQpXBJQENQUChPj+3mWbBlluRQHCR+j+fjaHB4eijQOBvEMAGLI7BednIQIltCkEw
kqjBq2ILQQ8Wuz8IQHzBNdXTQCnECEGpoJzBoAPqQLnunD/vyILB3LOHQOwqfUADfJXBXpSHQK1n
YMApQY7BuomnQIL9OEAYbZnBf5XlQL03Pr5t24XB2H62QIUMBkDiSZDB4P96QAOFvkABKorBbAi5
QHmLcb8o/W/BIh78QDV2MkAgpZDBSENvQGX7lUBub57B1VmwQLRP/0BwzpbB8XMNQbS8uz7eMbDB
x8GoQHPWL8DuJKvBW5BeQYVqbD/YHUvBsy1SQaGKe7+WhmHBWI9FQfKtMUBlGELB6IwsQW2Khr8o
gW7BRN4fQcn/LECi607BubjkQL0ZCUBrmKjBjY17QH14K79f8KPB6dL2QNjsAMAOdLDB/RjyQN6H
NcBYMZXBfmIIQU/aK8B8GYnBTO/EQJ72tECXgprBq57hQHlbqUBXZo7BJYsNQYQTAb8iHJDB3gbo
QFnA/b6jtZbB4kSjQIjc2kAG9nvB+U+FQHfe/0AeCIbBrDPLQGNSU8C7JoLBvcXZQPXi8EAr7YnB
7KOmQKsji0D1WIbBqOOaQCy5GUGJFLPBMO+FQEZLEkG2OabBg6ioQDQSKUHTbafBjda7QKUJnsCG
to3BZl+KQI5Ss8DQvJLBIzSqQEKWkMBJ+JrBDBIeQH1eFcBxBpLBhwJVQFCQP8Atfp3BDlkVQHWE
gsC0QpXB/w0IQSbxm75bdGjBnYECQUb4nj+r7VrBixKHQA+II0C1eqjBC2RqQNGbwD+Ctp3B8bSQ
QJaItL/IP4vBd2SuQHOYA8D7apbBEcjBQHer9EA1qqvBZIHkQKkcEUFS3qzBVwYOQRKRIkABAnrB
hYcXQR7Nhz8coYPB2SXwQOMC/UA6n5vBCb7aQOXUGEHeeZnBA3bSQHPWuT/T/3jBblJaQDRAXEC3
bJHB+f55QAxzbsAXDIbBAcHCQMjVWEB3Vp3BhE6hQDRPwD8wnYzBZkpUQINds0CZb4TBIAFYQI8H
yEASbZDBVqBVQKXCgkDyX6PB

>  <OMEGA_E>  (6) 
eIJ1PtAmWj4=

>  <OMEGA_NBR>  (6) 
     15686

$$$$
50197340
     RDKit          3D

 75 77  0  0  1  0  0  0  0  0999 V2000
    6.7528    1.1131  -21.1374 C   0  0  0  0  0  0  0  0  0  0  0  0
    4.9085   -0.4389  -20.7499 C   0  0  0  0  0  0  0  0  0  0  0  0
    6.9831   -1.2351  -21.7546 C   0  0  0  0  0  0  0  0  0  0  0  0
    5.4520    0.8575  -20.6505 C   0  0  0  0  0  0  0  0  0  0  0  0
    7.5205    0.0646  -21.6752 C   0  0  0  0  0  0  0  0  0  0  0  0
    5.6704   -1.4815  -21.3101 C   0  0  0  0  0  0  0  0  0  0  0  0
    6.1193   -1.1969  -16.2628 C   0  0  0  0  0  0  0  0  0  0  0  0
    7.0400    2.0315  -17.4396 C   0  0  0  0  0  0  0  0  0  0  0  0
    7.6463   -2.4265  -17.6636 C   0  0  0  0  0  0  0  0  0  0  0  0
    6.1587    5.7422  -18.2381 C   0  0  0  0  0  0  0  0  0  0  0  0
    7.7375   -0.9336  -17.9313 C   0  0  0  0  0  0  0  0  0  0  0  0
    4.7763    7.1067  -16.7960 C   0  0  0  0  0  0  0  0  0  0  0  0
    6.2854   -2.5659  -16.9686 C   0  0  2  0  0  0  0  0  0  0  0  0
    5.8990    7.1975  -17.8199 C   0  0  2  0  0  0  0  0  0  0  0  0
    4.9780    4.9417  -17.6399 C   0  0  2  0  0  0  0  0  0  0  0  0
    4.9228    9.5285  -21.4397 C   0  0  0  0  0  0  0  0  0  0  0  0
    8.7605    1.1934  -15.7037 C   0  0  0  0  0  0  0  0  0  0  0  0
    5.1759   -4.4168  -18.3201 C   0  0  0  0  0  0  0  0  0  0  0  0
    3.7566   -2.4682  -17.6373 C   0  0  0  0  0  0  0  0  0  0  0  0
    4.5869    1.9826  -20.1394 C   0  0  0  0  0  0  0  0  0  0  0  0
    6.1473    8.6319  -21.2010 C   0  0  0  0  0  0  0  0  0  0  0  0
    6.5161    8.5666  -19.7124 C   0  0  0  0  0  0  0  0  0  0  0  0
    7.3344    1.0520  -16.2856 C   0  0  2  0  0  0  0  0  0  0  0  0
    5.1828   -2.8978  -18.0302 C   0  0  0  0  0  0  0  0  0  0  0  0
    4.3170    3.9525  -18.6139 C   0  0  2  0  0  0  0  0  0  0  0  0
    5.3085    2.8774  -19.1047 C   0  0  1  0  0  0  0  0  0  0  0  0
    7.1104   -0.3346  -16.7487 N   0  0  0  0  0  0  0  0  0  0  0  0
    5.7498    2.0481  -17.9648 N   0  0  0  0  0  0  0  0  0  0  0  0
    3.9862    5.9484  -17.2177 N   0  0  0  0  0  0  0  0  0  0  0  0
    5.3720   -0.9753  -15.3176 O   0  0  0  0  0  0  0  0  0  0  0  0
    7.9245    2.7493  -17.8959 O   0  0  0  0  0  0  0  0  0  0  0  0
    3.7804    4.6701  -19.7292 O   0  0  0  0  0  0  0  0  0  0  0  0
    5.4451    7.9663  -18.9520 O   0  0  0  0  0  0  0  0  0  0  0  0
    8.7667    0.3111  -22.1355 F   0  0  0  0  0  0  0  0  0  0  0  0
    5.1448   -2.7245  -21.4041 F   0  0  0  0  0  0  0  0  0  0  0  0
    7.1579    2.1134  -21.0968 H   0  0  0  0  0  0  0  0  0  0  0  0
    3.9067   -0.6327  -20.3959 H   0  0  0  0  0  0  0  0  0  0  0  0
    7.5779   -2.0420  -22.1563 H   0  0  0  0  0  0  0  0  0  0  0  0
    7.6721   -2.9994  -18.6023 H   0  0  0  0  0  0  0  0  0  0  0  0
    8.4625   -2.7617  -17.0069 H   0  0  0  0  0  0  0  0  0  0  0  0
    6.1728    5.6508  -19.3342 H   0  0  0  0  0  0  0  0  0  0  0  0
    7.1153    5.3862  -17.8281 H   0  0  0  0  0  0  0  0  0  0  0  0
    8.7860   -0.6143  -18.0245 H   0  0  0  0  0  0  0  0  0  0  0  0
    7.1894   -0.6640  -18.8461 H   0  0  0  0  0  0  0  0  0  0  0  0
    5.1833    6.9524  -15.7858 H   0  0  0  0  0  0  0  0  0  0  0  0
    4.1638    8.0203  -16.8090 H   0  0  0  0  0  0  0  0  0  0  0  0
    6.3273   -3.3689  -16.2180 H   0  0  0  0  0  0  0  0  0  0  0  0
    6.8017    7.6327  -17.3664 H   0  0  0  0  0  0  0  0  0  0  0  0
    5.3381    4.3866  -16.7611 H   0  0  0  0  0  0  0  0  0  0  0  0
    4.6884    9.5514  -22.5142 H   0  0  0  0  0  0  0  0  0  0  0  0
    4.0615    9.1280  -20.8851 H   0  0  0  0  0  0  0  0  0  0  0  0
    5.1417   10.5484  -21.0905 H   0  0  0  0  0  0  0  0  0  0  0  0
    8.8984    0.4671  -14.8890 H   0  0  0  0  0  0  0  0  0  0  0  0
    9.5000    1.0013  -16.4950 H   0  0  0  0  0  0  0  0  0  0  0  0
    8.8977    2.2126  -15.3132 H   0  0  0  0  0  0  0  0  0  0  0  0
    4.4002   -4.6448  -19.0659 H   0  0  0  0  0  0  0  0  0  0  0  0
    6.1590   -4.7202  -18.7092 H   0  0  0  0  0  0  0  0  0  0  0  0
    4.9638   -4.9663  -17.3910 H   0  0  0  0  0  0  0  0  0  0  0  0
    3.0564   -2.7417  -18.4404 H   0  0  0  0  0  0  0  0  0  0  0  0
    3.4638   -2.9768  -16.7069 H   0  0  0  0  0  0  0  0  0  0  0  0
    3.7309   -1.3793  -17.4838 H   0  0  0  0  0  0  0  0  0  0  0  0
    4.2842    2.6074  -20.9927 H   0  0  0  0  0  0  0  0  0  0  0  0
    3.6930    1.5503  -19.6662 H   0  0  0  0  0  0  0  0  0  0  0  0
    5.9214    7.6162  -21.5579 H   0  0  0  0  0  0  0  0  0  0  0  0
    7.0016    9.0366  -21.7633 H   0  0  0  0  0  0  0  0  0  0  0  0
    7.4281    7.9636  -19.5915 H   0  0  0  0  0  0  0  0  0  0  0  0
    6.6980    9.5854  -19.3395 H   0  0  0  0  0  0  0  0  0  0  0  0
    6.6220    1.2673  -15.4756 H   0  0  0  0  0  0  0  0  0  0  0  0
    5.4493   -2.3772  -18.9619 H   0  0  0  0  0  0  0  0  0  0  0  0
    3.5012    3.4431  -18.0801 H   0  0  0  0  0  0  0  0  0  0  0  0
    6.1720    3.3646  -19.5812 H   0  0  0  0  0  0  0  0  0  0  0  0
    5.0698    1.4526  -17.5370 H   0  0  0  0  0  0  0  0  0  0  0  0
    3.4364    5.6025  -16.4574 H   0  0  0  0  0  0  0  0  0  0  0  0
    3.3859    6.1912  -17.9798 H   0  0  0  0  0  0  0  0  0  0  0  0
    3.3716    4.0600  -20.3318 H   0  0  0  0  0  0  0  0  0  0  0  0
  1  4  2  0
  1  5  1  0
  2  4  1  0
  2  6  2  0
  3  5  2  0
  3  6  1  0
  4 20  1  0
  5 34  1  0
  6 35  1  0
  7 13  1  0
  7 27  1  0
  7 30  2  0
  8 23  1  0
  8 28  1  0
  8 31  2  0
  9 11  1  0
  9 13  1  0
 10 14  1  0
 10 15  1  0
 11 27  1  0
 12 14  1  0
 12 29  1  0
 13 24  1  0
 14 33  1  0
 15 25  1  0
 15 29  1  0
 16 21  1  0
 17 23  1  0
 18 24  1  0
 19 24  1  0
 20 26  1  0
 21 22  1  0
 22 33  1  0
 23 27  1  0
 25 26  1  0
 25 32  1  0
 26 28  1  0
  1 36  1  0
  2 37  1  0
  3 38  1  0
  9 39  1  0
  9 40  1  0
 10 41  1  0
 10 42  1  0
 11 43  1  0
 11 44  1  0
 12 45  1  0
 12 46  1  0
 13 47  1  1
 14 48  1  1
 15 49  1  1
 16 50  1  0
 16 51  1  0
 16 52  1  0
 17 53  1  0
 17 54  1  0
 17 55  1  0
 18 56  1  0
 18 57  1  0
 18 58  1  0
 19 59  1  0
 19 60  1  0
 19 61  1  0
 20 62  1  0
 20 63  1  0
 21 64  1  0
 21 65  1  0
 22 66  1  0
 22 67  1  0
 23 68  1  1
 24 69  1  0
 25 70  1  1
 26 71  1  6
 28 72  1  0
 29 73  1  0
 29 74  1  0
 32 75  1  0
M  CHG  1  29   1
M  END
>  <OMEGA_C>  (7) 
vRbYQAl5jj9sGanBoRKdQKS84L67/6XBv3XfQDYWnr9hCa7BknauQHiFWz8oNKXB7KfwQC44hD3S
Zq3B63O1QKWgvb8De6rBDdHDQKozmb8jGoLB8UfhQOIEAkBbhIvBNq70QFRLG8AUT43BBxTFQB/A
t0Cw55HBzpn3QJj/br9Mc4/BddeYQERq40BGXobBwCHJQAo3JMCmv4fBRsS8QPRR5kAwj47Bl0uf
QB4inkB8Ho3BzYedQNV0GEGPhKvBHisMQZLAmD8qQnvB8qClQGBWjcCDj5LBhmtwQLL3HcBFGY3B
58eSQNPF/T+VHaHBp7bEQBUcCkGVm6nB0YPQQOcQCUELs53BeLPqQLOnhj/gSILBitmlQHZ1OcDm
PZDBpiSKQJj1fEBS6ZTBLd+pQK4mOECD1pjBLYjjQERNq75e/YXBHf63QPQTA0Dst4/Bxx1/QARZ
vkDyvYnBQOerQPKueb/SFHXBg5X9QKb0L0DgKo/BXPFxQDFxlUBZ1Z3BUT6uQP7r/kC8nZfBlEQM
QVFJnz5xFbHBNqKkQLhdLsCGO6vBUQ3lQNFBB0BNxqjBzAd6QGb4Ib/nKqPBf37yQNewAsAMQLHB
woH1QIn2P8Bu0ZTBk2YHQUW/MMAJDojBwofFQCLTtECBrJrBxbDjQI9brEADoI7BiJMMQVhAHb9A
MpDBbQ/mQBn6Kb/MxJbBu92lQGR63kC0knzB9z2FQExTAEHOeIbBVHnKQAucV8B3voHBTafZQCw/
9EBU7orBT9GqQBFfjEC+FobBbgeWQKzSGEEcHbTBg/eBQCUMEkGxFKfBooikQDnGKEFSuajBt18O
QRku7z6EOW7BGwAYQWIpgD/E9YPBAV0OQZaaDUDnAnXBbM6MQNuhlMAOh5jBrBbFQJALl8CArJXB
uteeQJjrnsDWIIvBr5tDQFZ4L8D/hZPBVK9dQCuDPsC6p4XBqcduQIONsL+93ovBYRiJQPDfJkD7
8KfBaVlsQEhwxj9VVJ3BYXy9QOi380CodqzBgA3gQAiWEEFJG67BGLPtQCDW/kBju5zBwFXWQMBd
GUFet5rBj+fTQDY4oj/um3fBj2CuQM4kGMD4sZfBpBNgQAJbXEADpJDB1IDFQAVWV0A1ppzBGzyi
QCvtuT/FS4zBku1bQPpHs0DKqIPBz7JYQEMexkCZ1o/BZchXQEfrgUCbp6LBtoTZQDjykT9qD6nB
zfidQNM7z762j6bBmdvgQBw4mb9sU67BoaevQK5+YT8qXKXB8RvyQFTwyz0Mea3BA5S2QMYGub9U
/arBNfPEQDt7nL/IzIHBWW7hQHjcAkB0P4vBFyPjQH7aDcCpvpHB6MvFQE98t0AQspHB4Jf7QJjs
dr/jrI7Bms6YQKiL40Abe4bBCRvJQJH8I8Dg1YfBpA+9QF4m5kA7lI7BNW6fQIsnnkA4GI3BLMib
QChgGEESFqvBVy4MQd0nlD9/AXvBfu95QIooGMDxnJDBGxWkQBX4kcDTxpDBjdGTQAgw/z9OJ6HB
ZcTFQDoRDEHGT6nBQXbQQPf0CUEiX53B1pDqQK7EhT8eJILB2Q2dQIuNUMBIV4rBXrSKQGMvfUDY
9ZTBaqaqQCCFOEAAy5jB+D7iQAEIo77WOYbBx2a4QPd1A0BeoY/BXCh/QJqSvkD46YnBGN+sQD8n
gL8YinTBVOj9QGXPMECAzo7BLvZzQMmllUDz653BAKOuQPG7/UC6zZfBKBANQUpVsz70CLHBHiCm
QPxZLMB+t6vBEqbmQCzBCEDAgKjBRdl6QN3dF7/2E6TBcw70QK8EAMC/ibHBa/rNQFtUAcDcmZjB
/k75QI4hQsCTv5PB5EnHQGIPtEAjcprB5QHkQAFMrEBbJo7B98kNQYIDnb9zqIvBIsX+QD9bl76s
nZXBSXOlQJWh3kCauHzBeVeFQMFuAEESqIbBAQHcQJQGUMCi2oLBBbDZQJOg9EDZ9IrBRzyqQNto
jECp/YXB0TqVQDSNGUFgtrPBmF2BQLrYD0GnIafBx7GeQEKKKEGkrqfBYEIOQbKz1T7gJm7BpO0X
QU5qdz8M4IPBN6EOQf3LCkDUhnTBgIs+QHVNPMAj/5HBe4VrQCZjvL+L9IvBwxKLQErhBcBYWJjB
DvuEQF0KocAbcpLBaDi0QMBtisDjXZjBlQ64QDEXqMBNGIzBZPmJQN0TKEBT66fBPKRuQAxWxj9/
Z53BuZvCQLbw90Dxx6zB6O/fQOOpFEHuVK3BKnjuQA/vAEECeZzBPVnUQJ8DGkH05pnB5ufTQF2E
oD9RPHfBKDaOQP69YcAAqILB7sVgQO19XEB3yJDBlm7GQDPHV0CXhpzBb4+iQEjnuT/FT4zBm/Za
QI67s0D+5YPBj7pZQI1LxkD/G5DB6kpaQGcsgkDby6LBX93aQGf9jz+476jBdTKhQJQZ6r6FTaXB
AV7kQAbdnr9L+6zBloCxQLDGWj+T9aTBxkz0QI5ynj015azBd5+6QLCewL8oRKnB1mbvQK09bL8L
hI7BGH3iQAAIBkBeQYvBJnOrQAtE+L8CRovBsmjGQAiYt0AhWpHBwtWzQNQXVr+/CoPBmviXQJ6I
4kBWTIbBs+/XQNFiEcDFbo/BgSa8QAoN5kDpYo7B6dufQBKInUDbG43BDN2YQDZNF0GhGqvBBPgM
QSDXjz+P/3vBSJkPQamZWMAuC4vBIQvmQPtzYMBUEnrBkTOVQILZ/D+2IKHBLYnDQMCsC0EzOKnB
9hfOQFj4CUE+Qp3BRCXrQHdwjD8IGILB7mruQN1aXMDoQInBqtaLQJizfUDRSZXBmOqrQIE5OUBQ
+JjBjCzeQArCgr6hrIXBRqa5QDz8BUDHtI/B2fJ+QA8yvUAHz4nBP3wGQQgeC79HNpTB2wb/QEQf
NEARwo7B4kJ5QCJvlkAmUp7BZAOtQMCv/EAKsJfBxfkNQTrfrj6Ip7DBqEirQLBDMcBROqnBUPfm
QDS9CED376jBHh+BQDuNKL+JhKLBXyH4QLUhA8CH5K/B2pycQMRTNMCQfIfB7bqWQBKyyb/Hw5HB
VmbJQMQNtEBSE5rBYkDkQFcgrUDvfI3BA92aQEeWgr27j4PBwkK0QC47ob8/13XBTbKkQOec3UBL
X3zBp/ODQH57/0CFa4bB5q7VQLETI8CC7pfBhT/YQKSl9UCgy4rB20+qQIj3ikCQGobB2GmSQA81
GEFAvrPBoMx9QPtzDkEzI6fBq7maQLiRJ0EVx6fBQ9wOQY8yyD4xAm/Bs+AXQeKwXj92mYTBZsgQ
QZJJCEDe+XXBHVQXQVeuhsAkr4bBrhATQcOfXsBto5PBh84VQbsdG8BwFojB9lj3QK6fi8CbMnPB
tUvxQMz1JMBfh3LB/InDQDgKaMD4JnfBlnSLQDsaJUC3EKjBdFNxQARmxT8CUZ3Br23BQOrv9kBq
nKzBCkHdQLGVFEFNQK3BB77sQO6JAUGBR5zB0a3QQOUlGkGv2pnBiH7WQEY5sT9ysnbBksviQB5T
jMDavozBM55hQA37XEC5aJHBk5XHQAYnWEAnzJzBismjQJvLvz8dUozBxGJbQNy9sUAwzoPBYAVZ
QCrPxEAM94/Beo5gQENNg0D5WqPB

>  <OMEGA_E>  (7) 
yvwIP4x1CT8yaTg/

>  <OMEGA_NBR>  (7) 
     19535

$$$$
50197341
     RDKit          3D

 78 80  0  0  1  0  0  0  0  0999 V2000
    6.7218    1.1260  -21.1662 C   0  0  0  0  0  0  0  0  0  0  0  0
    4.8765   -0.4314  -20.8136 C   0  0  0  0  0  0  0  0  0  0  0  0
    6.9631   -1.2151  -21.8015 C   0  0  0  0  0  0  0  0  0  0  0  0
    5.4226    0.8606  -20.6817 C   0  0  0  0  0  0  0  0  0  0  0  0
    7.4939    0.0858  -21.7116 C   0  0  0  0  0  0  0  0  0  0  0  0
    5.6487   -1.4693  -21.3692 C   0  0  0  0  0  0  0  0  0  0  0  0
    6.4289   -1.1546  -16.0246 C   0  0  0  0  0  0  0  0  0  0  0  0
    7.0571    2.1129  -17.4284 C   0  0  0  0  0  0  0  0  0  0  0  0
    7.6542   -2.2708  -17.7435 C   0  0  0  0  0  0  0  0  0  0  0  0
    6.1563    5.7237  -18.1264 C   0  0  0  0  0  0  0  0  0  0  0  0
    7.8024   -0.7692  -17.9071 C   0  0  0  0  0  0  0  0  0  0  0  0
    4.6736    7.0884  -16.7982 C   0  0  0  0  0  0  0  0  0  0  0  0
    6.3637   -2.3771  -16.9372 C   0  0  2  0  0  0  0  0  0  0  0  0
    5.8358    7.1821  -17.7739 C   0  0  2  0  0  0  0  0  0  0  0  0
    4.9316    4.9193  -17.6283 C   0  0  2  0  0  0  0  0  0  0  0  0
    4.9380    9.5649  -21.3800 C   0  0  0  0  0  0  0  0  0  0  0  0
    8.8022    1.3971  -15.6496 C   0  0  0  0  0  0  0  0  0  0  0  0
    4.8718   -4.7016  -18.3715 C   0  0  0  0  0  0  0  0  0  0  0  0
    2.9398   -3.1105  -18.6792 C   0  0  0  0  0  0  0  0  0  0  0  0
    4.5627    1.9702  -20.1357 C   0  0  0  0  0  0  0  0  0  0  0  0
    5.1195   -2.2266  -17.8515 C   0  0  0  0  0  0  0  0  0  0  0  0
    6.1835    8.6995  -21.1349 C   0  0  0  0  0  0  0  0  0  0  0  0
    6.4915    8.5650  -19.6378 C   0  0  0  0  0  0  0  0  0  0  0  0
    7.3896    1.1863  -16.2346 C   0  0  2  0  0  0  0  0  0  0  0  0
    4.3185    3.9687  -18.6672 C   0  0  2  0  0  0  0  0  0  0  0  0
    4.1773   -3.4377  -17.8193 C   0  0  0  0  0  0  0  0  0  0  0  0
    5.3067    2.8776  -19.1238 C   0  0  1  0  0  0  0  0  0  0  0  0
    7.2559   -0.2162  -16.6518 N   0  0  0  0  0  0  0  0  0  0  0  0
    5.7671    2.0726  -17.9661 N   0  0  0  0  0  0  0  0  0  0  0  0
    3.9158    5.9202  -17.2464 N   0  0  0  0  0  0  0  0  0  0  0  0
    5.7235   -0.9704  -15.0399 O   0  0  0  0  0  0  0  0  0  0  0  0
    7.9256    2.8274  -17.9179 O   0  0  0  0  0  0  0  0  0  0  0  0
    3.8790    4.7247  -19.8006 O   0  0  0  0  0  0  0  0  0  0  0  0
    5.4121    7.8945  -18.9533 O   0  0  0  0  0  0  0  0  0  0  0  0
    8.7406    0.3409  -22.1647 F   0  0  0  0  0  0  0  0  0  0  0  0
    5.1342   -2.7147  -21.4719 F   0  0  0  0  0  0  0  0  0  0  0  0
    7.1223    2.1278  -21.1179 H   0  0  0  0  0  0  0  0  0  0  0  0
    3.8651   -0.6257  -20.4885 H   0  0  0  0  0  0  0  0  0  0  0  0
    7.5648   -2.0175  -22.2022 H   0  0  0  0  0  0  0  0  0  0  0  0
    7.5587   -2.7714  -18.7183 H   0  0  0  0  0  0  0  0  0  0  0  0
    8.5053   -2.6987  -17.1934 H   0  0  0  0  0  0  0  0  0  0  0  0
    6.2815    5.6060  -19.2129 H   0  0  0  0  0  0  0  0  0  0  0  0
    7.0717    5.3932  -17.6138 H   0  0  0  0  0  0  0  0  0  0  0  0
    8.8600   -0.4918  -18.0285 H   0  0  0  0  0  0  0  0  0  0  0  0
    7.2278   -0.4119  -18.7743 H   0  0  0  0  0  0  0  0  0  0  0  0
    5.0387    6.9448  -15.7706 H   0  0  0  0  0  0  0  0  0  0  0  0
    4.0532    7.9956  -16.8434 H   0  0  0  0  0  0  0  0  0  0  0  0
    6.3228   -3.3121  -16.3592 H   0  0  0  0  0  0  0  0  0  0  0  0
    6.7037    7.6612  -17.2973 H   0  0  0  0  0  0  0  0  0  0  0  0
    5.2279    4.3365  -16.7437 H   0  0  0  0  0  0  0  0  0  0  0  0
    4.7490    9.6385  -22.4611 H   0  0  0  0  0  0  0  0  0  0  0  0
    4.0692    9.1050  -20.8864 H   0  0  0  0  0  0  0  0  0  0  0  0
    5.1039   10.5711  -20.9676 H   0  0  0  0  0  0  0  0  0  0  0  0
    8.9590    0.7043  -14.8097 H   0  0  0  0  0  0  0  0  0  0  0  0
    9.5542    1.2045  -16.4289 H   0  0  0  0  0  0  0  0  0  0  0  0
    8.9006    2.4332  -15.2933 H   0  0  0  0  0  0  0  0  0  0  0  0
    5.7542   -4.9337  -17.7572 H   0  0  0  0  0  0  0  0  0  0  0  0
    4.1704   -5.5484  -18.3403 H   0  0  0  0  0  0  0  0  0  0  0  0
    5.1852   -4.5231  -19.4107 H   0  0  0  0  0  0  0  0  0  0  0  0
    2.4462   -2.2101  -18.2847 H   0  0  0  0  0  0  0  0  0  0  0  0
    3.2525   -2.9315  -19.7185 H   0  0  0  0  0  0  0  0  0  0  0  0
    2.2377   -3.9568  -18.6481 H   0  0  0  0  0  0  0  0  0  0  0  0
    4.2191    2.5918  -20.9757 H   0  0  0  0  0  0  0  0  0  0  0  0
    3.6936    1.5230  -19.6310 H   0  0  0  0  0  0  0  0  0  0  0  0
    4.5556   -1.3398  -17.5266 H   0  0  0  0  0  0  0  0  0  0  0  0
    5.4646   -2.0831  -18.8860 H   0  0  0  0  0  0  0  0  0  0  0  0
    6.0106    7.6978  -21.5553 H   0  0  0  0  0  0  0  0  0  0  0  0
    7.0453    9.1640  -21.6364 H   0  0  0  0  0  0  0  0  0  0  0  0
    7.4165    7.9834  -19.5102 H   0  0  0  0  0  0  0  0  0  0  0  0
    6.6261    9.5674  -19.2052 H   0  0  0  0  0  0  0  0  0  0  0  0
    6.6600    1.3900  -15.4369 H   0  0  0  0  0  0  0  0  0  0  0  0
    3.4542    3.4704  -18.2038 H   0  0  0  0  0  0  0  0  0  0  0  0
    3.8591   -3.6236  -16.7828 H   0  0  0  0  0  0  0  0  0  0  0  0
    6.1659    3.3494  -19.6231 H   0  0  0  0  0  0  0  0  0  0  0  0
    5.1062    1.4557  -17.5388 H   0  0  0  0  0  0  0  0  0  0  0  0
    3.3408    5.5708  -16.5066 H   0  0  0  0  0  0  0  0  0  0  0  0
    3.3427    6.1547  -18.0317 H   0  0  0  0  0  0  0  0  0  0  0  0
    3.4993    4.1387  -20.4448 H   0  0  0  0  0  0  0  0  0  0  0  0
  1  4  2  0
  1  5  1  0
  2  4  1  0
  2  6  2  0
  3  5  2  0
  3  6  1  0
  4 20  1  0
  5 35  1  0
  6 36  1  0
  7 13  1  0
  7 28  1  0
  7 31  2  0
  8 24  1  0
  8 29  1  0
  8 32  2  0
  9 11  1  0
  9 13  1  0
 10 14  1  0
 10 15  1  0
 11 28  1  0
 12 14  1  0
 12 30  1  0
 13 21  1  0
 14 34  1  0
 15 25  1  0
 15 30  1  0
 16 22  1  0
 17 24  1  0
 18 26  1  0
 19 26  1  0
 20 27  1  0
 21 26  1  0
 22 23  1  0
 23 34  1  0
 24 28  1  0
 25 27  1  0
 25 33  1  0
 27 29  1  0
  1 37  1  0
  2 38  1  0
  3 39  1  0
  9 40  1  0
  9 41  1  0
 10 42  1  0
 10 43  1  0
 11 44  1  0
 11 45  1  0
 12 46  1  0
 12 47  1  0
 13 48  1  1
 14 49  1  1
 15 50  1  1
 16 51  1  0
 16 52  1  0
 16 53  1  0
 17 54  1  0
 17 55  1  0
 17 56  1  0
 18 57  1  0
 18 58  1  0
 18 59  1  0
 19 60  1  0
 19 61  1  0
 19 62  1  0
 20 63  1  0
 20 64  1  0
 21 65  1  0
 21 66  1  0
 22 67  1  0
 22 68  1  0
 23 69  1  0
 23 70  1  0
 24 71  1  1
 25 72  1  1
 26 73  1  0
 27 74  1  6
 29 75  1  0
 30 76  1  0
 30 77  1  0
 33 78  1  0
M  CHG  1  30   1
M  END
>  <OMEGA_C>  (8) 
ZRnXQJkgkD93VKnBVQycQCXe3L5agqbBD9LeQPeHm795aa7BxYWtQNRNXD8adKXB1M3vQMCxrz1Y
sa3BwsG0QOQRvL8K9KrB17nNQN3Kk79vMoDB59PhQD45B0BPbYvBjO/0QGVUEcCW8o3BLgDFQHko
t0DmApHBq635QBboRL+pQY/B2I2VQE/U4kC4YobBfKPLQA0iGMBhf4fBgr66QPLT5UAMMY7BnM+d
QDdrnUC1Bo3BJwSeQNMJGUE0CqvB+dUMQSjVsj+sZHrBheWbQD1zlsDT+JLBIiU8QEUSR8D4bpXB
ggGSQLYv/D/3FaHBltKjQDCBDsDNz47B5t7FQDwxC0FEFKnBgbrPQAsKCUEmGp3BNXfsQFjZlz+C
4IHBdzGKQH3+fUBhVpXBjayFQMsCXMDdjY7BcNCpQAAqOECg/ZjBdDDoQFppXb7jNoXBGIy4QNml
BECquo/B8Jt6QAtyvUCs+InB0ya3QKxteL9qo3DBiZ79QMjzNEDwV4/B7EF4QIIwl0CpZ57B6y+t
QA6g/EBToJfBYtkLQb2Prj5SUbHBakukQCy+LcBfxqvB4+njQJUuCEBo8ajBzV13QFksIL986KPB
phLyQBIfAcAKnrHBt+DxQA5eMcAGv5XB4RUIQcm2LMAZjInBRwLJQCFks0AGtJnBdEviQOeUrEAm
6YzBXcINQY/K+75cOpDBz0nnQHTq0r7KMZbB1jyhQHY73kAzVHzBnrOBQFvc/0Bfv4bBVFTKQEH5
U8Cj34LBloTWQI0o9UDlYIrBE0unQJDEikAV84XBiveXQEE3GkFdsLPBtDaCQOGtEUFuF6fBwlKj
QCUjKUGPvafBIFgPQb1JND+r9GzBHN4YQUwtmj97boPBqWgOQQm5G0A3sXTBtCK4QAnhncDBDo7B
7nOFQG+MscD6uJLBNe2lQIW9kMAWSZvB640cQPRxDcASR5LBQSlQQJKdO8B1v53BszYPQGY7fcBZ
L5XBnAKHQGjfJUBIzqfBpGRsQInwwj9MDJ3BL8eRQNl9q7+PNozBod2uQC9RBcCRFpfB+VbAQKhU
9kBIcazBBnPhQJifEkFpF63BolPtQOZ3/0D5FJzB5gjUQOATGUFTpJnB6B7VQBfssT+3/XbBXRJd
QHAbXkBJoZHBA/x2QBbpZ8BAQ4bBtU7FQDlcVkAL/JzB32WjQDxVuj9zT4zB4c5VQC5EskCNDYTB
7e5VQAzzxEDcQJDBRPVfQAVwhEDqjqPBp5HYQAWSjD/vyajBP8SbQDCi0L5kmqbBqbveQMVLn7+i
/K3BlTauQH+oXT9XUKXBsebwQOxxHT2B/6zBptezQD2iur+nA6vBrq/NQPeMkr8i/H7BxHThQIBD
B0D7e4vBJDvuQGdzEMBdao7BTcDDQKLDt0CYBpLB0CLzQFVoQr9nmo/BFViXQPXk4kBrYIbBrtLI
QHMSGMBKl4bBc0+8QFr65UCwRo7BUsWdQFFInkCYVo3BJjChQDrdF0HfeqvBF1QMQX2EsT/HUnrB
ooBGQDY3TMBb0ZfBxbOWQDAKmcA+D4/ByKmSQN0U/z/ASKHBAgmcQKHvEMB924vBk57HQBA8CUEc
LKnB0JHSQPbhCEFYNJ3B9oLrQIOGmD+y4oHBUDKJQLqzfEArHpXBrrWRQFJRWMDQ8ZPBXIqpQEMF
OUASApnB4mzmQMf0W777GIXBKUq4QMbkBEDp04/BUuB7QHCivkBULYrBkuS4QMPYbb+xuW7BdXf9
QCmpNEBoXI/BTFJvQNQAlUDZDJ7BKVCvQAgnAEFkJ5fBNKoMQag7hj5jYbDBvyuhQBzTKcA55qzB
aD7mQBeZBUAVN6jBgwx2QA7iE787MqTBiLPxQDQSBMANBrHBA5XmQE6vLsAQIZbB87YFQUV7LcDH
GYvBA8bDQJ72tUBx0JrBNE7iQDJyq0AN7Y7BGEEKQeMg/r6qcpHB6A/eQPKTwb4b9ZXBCEijQFTw
3EBad3zBvT2EQLQ6AEHqcYbBJUXLQFwwU8AS2oHBGiHZQIaR8kDJUorBH92oQA3VjEB3N4bBHj+a
QHu8F0FfG7TBKxOFQPMMEkGzDafB97moQP5HKEHG7ajBHZ4OQel9Mj/WzWzBxmEYQfXwlj/uWoPB
ahgOQe8dG0Cwt3TB3Ts/QLEGDMDNUJvBYHg3QNHYfMCe5Z3Bg4AaQDUpU8DgAJHB6dO3QJZqncCn
SozBjq2AQBR9nMDQP4jBfCmPQOJUscCOJJXBJCaJQIJgJ0CNI6jBA+prQDQtyD9fhZ3BZcuDQB7T
EsAge4XBwzeaQFpOpr8wDZDBQN+/QOPC8UDtyKvBDYbjQH0cD0EBqa3BcibvQPfb/UBn7pvBoQnZ
QDlMGUEPeZrBiC/UQP0atT9jFXfBqLJeQAY9W0Bv2pDB2GWnQHdsUsAm1prB5trEQDMiWUB315zB
PiujQFXmuT+Qe4zByz5WQNlys0BvV4TBX+BXQMwpx0A5cJDBStZVQN8/gUCM3qLB

>  <OMEGA_E>  (8) 
rMPdPiQG3T4=

>  <OMEGA_NBR>  (8) 
     22318

$$$$
50197343
     RDKit          3D

 89 92  0  0  1  0  0  0  0  0999 V2000
   12.9222    0.9200  -13.0514 C   0  0  0  0  0  0  0  0  0  0  0  0
   12.0153    1.9357  -12.6852 C   0  0  0  0  0  0  0  0  0  0  0  0
   12.4941   -0.1550  -13.8565 C   0  0  0  0  0  0  0  0  0  0  0  0
   10.6758    1.8704  -13.1128 C   0  0  0  0  0  0  0  0  0  0  0  0
   11.1550   -0.2236  -14.2819 C   0  0  0  0  0  0  0  0  0  0  0  0
    6.7851    1.1421  -21.0349 C   0  0  0  0  0  0  0  0  0  0  0  0
    4.9847   -0.4762  -20.7402 C   0  0  0  0  0  0  0  0  0  0  0  0
    7.1326   -1.1920  -21.6512 C   0  0  0  0  0  0  0  0  0  0  0  0
   10.2407    0.7762  -13.8891 C   0  0  0  0  0  0  0  0  0  0  0  0
    5.4723    0.8385  -20.6037 C   0  0  0  0  0  0  0  0  0  0  0  0
    7.6166    0.1251  -21.5398 C   0  0  0  0  0  0  0  0  0  0  0  0
    5.8107   -1.4880  -21.2707 C   0  0  0  0  0  0  0  0  0  0  0  0
    6.3333   -1.2193  -16.2304 C   0  0  0  0  0  0  0  0  0  0  0  0
    7.6839   -3.8203  -15.0241 C   0  0  0  0  0  0  0  0  0  0  0  0
    6.9901    2.0810  -17.4710 C   0  0  0  0  0  0  0  0  0  0  0  0
    7.8974   -2.2986  -17.7480 C   0  0  0  0  0  0  0  0  0  0  0  0
    6.1352    5.7255  -18.2767 C   0  0  0  0  0  0  0  0  0  0  0  0
    7.8314   -0.8019  -17.9888 C   0  0  0  0  0  0  0  0  0  0  0  0
    4.7996    7.1622  -16.8598 C   0  0  0  0  0  0  0  0  0  0  0  0
    5.9343    7.1955  -17.8827 C   0  0  2  0  0  0  0  0  0  0  0  0
    4.9406    4.9638  -17.6459 C   0  0  2  0  0  0  0  0  0  0  0  0
    6.5938   -2.5654  -16.9645 C   0  0  2  0  0  0  0  0  0  0  0  0
    7.7310   -5.1262  -14.2405 C   0  0  0  0  0  0  0  0  0  0  0  0
    2.9813   -2.9967  -18.5882 C   0  0  0  0  0  0  0  0  0  0  0  0
    5.5565   -4.4436  -18.4191 C   0  0  0  0  0  0  0  0  0  0  0  0
    8.8186    0.7073  -14.3643 C   0  0  0  0  0  0  0  0  0  0  0  0
    4.5421    1.9285  -20.1032 C   0  0  0  0  0  0  0  0  0  0  0  0
    4.0431   -2.5759  -17.5497 C   0  0  0  0  0  0  0  0  0  0  0  0
    8.7142    1.3867  -15.7315 C   0  0  0  0  0  0  0  0  0  0  0  0
    7.3149    1.1361  -16.3197 C   0  0  2  0  0  0  0  0  0  0  0  0
    4.2500    3.9462  -18.5861 C   0  0  2  0  0  0  0  0  0  0  0  0
    5.4753   -2.9362  -18.0112 C   0  0  1  0  0  0  0  0  0  0  0  0
    5.2310    2.8692  -19.0892 C   0  0  1  0  0  0  0  0  0  0  0  0
    7.1895   -0.2624  -16.7838 N   0  0  0  0  0  0  0  0  0  0  0  0
    6.7144   -3.6836  -16.0086 N   0  0  0  0  0  0  0  0  0  0  0  0
    5.6947    2.0646  -17.9561 N   0  0  0  0  0  0  0  0  0  0  0  0
    3.9775    6.0074  -17.2459 N   0  0  0  0  0  0  0  0  0  0  0  0
    5.6623   -1.0704  -15.2148 O   0  0  0  0  0  0  0  0  0  0  0  0
    8.4245   -2.8979  -14.7041 O   0  0  0  0  0  0  0  0  0  0  0  0
    7.8467    2.8187  -17.9482 O   0  0  0  0  0  0  0  0  0  0  0  0
    5.5443    7.9719  -19.0181 O   0  0  0  0  0  0  0  0  0  0  0  0
    3.6903    4.6338  -19.7045 O   0  0  0  0  0  0  0  0  0  0  0  0
    8.8769    0.4171  -21.9300 F   0  0  0  0  0  0  0  0  0  0  0  0
    5.3425   -2.7510  -21.3915 F   0  0  0  0  0  0  0  0  0  0  0  0
   13.9472    0.9657  -12.7143 H   0  0  0  0  0  0  0  0  0  0  0  0
   12.3484    2.7635  -12.0767 H   0  0  0  0  0  0  0  0  0  0  0  0
   13.1936   -0.9251  -14.1465 H   0  0  0  0  0  0  0  0  0  0  0  0
    9.9835    2.6556  -12.8472 H   0  0  0  0  0  0  0  0  0  0  0  0
   10.8275   -1.0404  -14.9080 H   0  0  0  0  0  0  0  0  0  0  0  0
    7.1502    2.1568  -20.9764 H   0  0  0  0  0  0  0  0  0  0  0  0
    3.9746   -0.7097  -20.4374 H   0  0  0  0  0  0  0  0  0  0  0  0
    7.7749   -1.9742  -22.0281 H   0  0  0  0  0  0  0  0  0  0  0  0
    7.9121   -2.8543  -18.6972 H   0  0  0  0  0  0  0  0  0  0  0  0
    8.7821   -2.5673  -17.1521 H   0  0  0  0  0  0  0  0  0  0  0  0
    6.1270    5.6158  -19.3712 H   0  0  0  0  0  0  0  0  0  0  0  0
    7.0875    5.3466  -17.8773 H   0  0  0  0  0  0  0  0  0  0  0  0
    8.8411   -0.3831  -18.1119 H   0  0  0  0  0  0  0  0  0  0  0  0
    7.2303   -0.5782  -18.8825 H   0  0  0  0  0  0  0  0  0  0  0  0
    5.1986    7.0308  -15.8432 H   0  0  0  0  0  0  0  0  0  0  0  0
    4.2100    8.0897  -16.9053 H   0  0  0  0  0  0  0  0  0  0  0  0
    6.8505    7.5896  -17.4188 H   0  0  0  0  0  0  0  0  0  0  0  0
    5.2976    4.4302  -16.7527 H   0  0  0  0  0  0  0  0  0  0  0  0
    8.4804   -5.0468  -13.4392 H   0  0  0  0  0  0  0  0  0  0  0  0
    6.7429   -5.3251  -13.7999 H   0  0  0  0  0  0  0  0  0  0  0  0
    8.0034   -5.9498  -14.9168 H   0  0  0  0  0  0  0  0  0  0  0  0
    1.9808   -2.7231  -18.2218 H   0  0  0  0  0  0  0  0  0  0  0  0
    3.1762   -2.4822  -19.5407 H   0  0  0  0  0  0  0  0  0  0  0  0
    3.0303   -4.0847  -18.7423 H   0  0  0  0  0  0  0  0  0  0  0  0
    4.7648   -4.6698  -19.1486 H   0  0  0  0  0  0  0  0  0  0  0  0
    6.5390   -4.6493  -18.8690 H   0  0  0  0  0  0  0  0  0  0  0  0
    5.4230   -5.0725  -17.5266 H   0  0  0  0  0  0  0  0  0  0  0  0
    8.5099   -0.3449  -14.4513 H   0  0  0  0  0  0  0  0  0  0  0  0
    8.1647    1.2231  -13.6458 H   0  0  0  0  0  0  0  0  0  0  0  0
    4.2008    2.5242  -20.9627 H   0  0  0  0  0  0  0  0  0  0  0  0
    3.6755    1.4575  -19.6162 H   0  0  0  0  0  0  0  0  0  0  0  0
    3.9812   -1.4881  -17.3983 H   0  0  0  0  0  0  0  0  0  0  0  0
    3.8354   -3.0907  -16.6000 H   0  0  0  0  0  0  0  0  0  0  0  0
    8.8762    2.4687  -15.6172 H   0  0  0  0  0  0  0  0  0  0  0  0
    9.4763    0.9712  -16.4072 H   0  0  0  0  0  0  0  0  0  0  0  0
    6.5782    1.3077  -15.5210 H   0  0  0  0  0  0  0  0  0  0  0  0
    3.4506    3.4455  -18.0203 H   0  0  0  0  0  0  0  0  0  0  0  0
    5.6808   -2.3477  -18.9176 H   0  0  0  0  0  0  0  0  0  0  0  0
    6.0847    3.3608  -19.5787 H   0  0  0  0  0  0  0  0  0  0  0  0
    6.0329   -4.4123  -16.0766 H   0  0  0  0  0  0  0  0  0  0  0  0
    5.0330    1.4658  -17.5049 H   0  0  0  0  0  0  0  0  0  0  0  0
    3.4245    5.6966  -16.4729 H   0  0  0  0  0  0  0  0  0  0  0  0
    3.3784    6.2435  -18.0109 H   0  0  0  0  0  0  0  0  0  0  0  0
    5.4245    8.8774  -18.7570 H   0  0  0  0  0  0  0  0  0  0  0  0
    3.2666    4.0090  -20.2812 H   0  0  0  0  0  0  0  0  0  0  0  0
  1  2  2  0
  1  3  1  0
  2  4  1  0
  3  5  2  0
  4  9  2  0
  5  9  1  0
  6 10  2  0
  6 11  1  0
  7 10  1  0
  7 12  2  0
  8 11  2  0
  8 12  1  0
  9 26  1  0
 10 27  1  0
 11 43  1  0
 12 44  1  0
 13 22  1  0
 13 34  1  0
 13 38  2  0
 14 23  1  0
 14 35  1  0
 14 39  2  0
 15 30  1  0
 15 36  1  0
 15 40  2  0
 16 18  1  0
 16 22  1  0
 17 20  1  0
 17 21  1  0
 18 34  1  0
 19 20  1  0
 19 37  1  0
 20 41  1  0
 21 31  1  0
 21 37  1  0
 22 32  1  0
 22 35  1  1
 24 28  1  0
 25 32  1  0
 26 29  1  0
 27 33  1  0
 28 32  1  0
 29 30  1  0
 30 34  1  0
 31 33  1  0
 31 42  1  0
 33 36  1  0
  1 45  1  0
  2 46  1  0
  3 47  1  0
  4 48  1  0
  5 49  1  0
  6 50  1  0
  7 51  1  0
  8 52  1  0
 16 53  1  0
 16 54  1  0
 17 55  1  0
 17 56  1  0
 18 57  1  0
 18 58  1  0
 19 59  1  0
 19 60  1  0
 20 61  1  1
 21 62  1  1
 23 63  1  0
 23 64  1  0
 23 65  1  0
 24 66  1  0
 24 67  1  0
 24 68  1  0
 25 69  1  0
 25 70  1  0
 25 71  1  0
 26 72  1  0
 26 73  1  0
 27 74  1  0
 27 75  1  0
 28 76  1  0
 28 77  1  0
 29 78  1  0
 29 79  1  0
 30 80  1  1
 31 81  1  1
 32 82  1  6
 33 83  1  6
 35 84  1  0
 36 85  1  0
 37 86  1  0
 37 87  1  0
 41 88  1  0
 42 89  1  0
M  CHG  1  37   1
M  END
>  <OMEGA_C>  (9) 
RsFOQWWEaz+J0lDBxj5AQbLD9z9x9krB9OdHQXSxHr5XtF3BMNAqQexo7z/tzVHB0HoyQVoBZb6w
gmTB8R/ZQCQvkj95R6jBQYKfQGfV877u66XBTj7kQPaTmL+SNa3ByNkjQS24Rj/sOV7Bch2vQF+q
Vj9o1KTBZLvzQKolAD6LUazBUvG5QIx2vr9WKqrBi6rKQLYRnL/R14HBauL1QAyAdMCVYnDBOq/f
QGQvBUCNxIvBjbf8QGAcE8Dm+43BY1PEQLQ3t0CtNpLBepr6QK9HTb8p6Y/BW5aZQIsw5UDm4IbB
J+a9QFBB5kDbD4/B/hieQA/XnkDDKo3B0ADTQGkvJMBCt4fBNGT3QNsJpMAl2WPBOc0+QI7JP8CM
tJTBgM6xQCEyjsBVWpPBDhkNQfsQNT9Z1GXBzFiRQJ7Y9j9Z06DB7mCBQOHbJMC2ZYzBZm0LQSJ/
sT8ZtHvBYxPqQFRtkT+ojoLBNgCIQL2OfEA8sJTBADavQIvqO8AGF5DBXGSnQNGgN0C8tpjBLRDm
QFtWhr4fRYbBptzWQJbAa8CZEYDB2jq2QFIiBEAcpo/BJZB+QKE8wECF94nBKTG1QD4Cib/Db3PB
tsoGQUp3OcAnRGvB9Rf7QNxkNEDslY/B92qxQG8Z/0D8JJjBZS1sQPtHlEDbop3B6gcOQbqT1T6i
cK/BIvaqQCERMMDXIavBtSdfQcY6dz+YbUvB5pJFQdHcMEBCOkHB1hhTQSTTbL8yWGLBfbwfQbD1
KUA2jk3BUj0tQWwrhb9fh27BJ87kQHAJCkCyz6fB319+QOOxNb/Wf6PBHsz4QA6y/L9zObDBRjD9
QJmsNsDjk5XBi4MMQehNJMB1N4nBdhDEQG+0s0Ar+JrBrMziQI4Xq0CtBI/BC3UNQTgsxL4n5ZDB
UF7nQL8HFL9uD5fBolqmQKn84ECWfX3BJLiGQFdvAUEiPofBfDfbQPzd8kCdWYvB5IWpQA/EjUB4
BYbBi68HQUV/ocDlBlfB0cXXQIRnqsCCzFzBEw4AQQ1lvsBSq27BPIr9PwxILsBSxpHBJ0ZLQGHc
HsBaU5zBQPFBQPO1gsBT8JXBB3mYQKRulcA/MJnBRz/RQLvGlMCl85bBG4mtQChSosBgNozBkygI
QSuYsL65OGfBhKICQS6NnD8UVVrBy2yGQNWLIUCIs6fBHztrQLaPuj/17ZzBkct+QGJ7vr/HL4vB
qnZ1QDfNRcDAzITBxAQOQeb+HUDf33nBEp8XQbSieD/cQYPBRIDSQHZipz8RVnjBJ9ZcQIeCXEB8
KZDBf8m1QHFBFsBDV5fB0bXCQPMWV0AcoZzBmA3BQEAxjcDHnIDBkg6hQMeduz8CCozBeSpbQCZK
tkB9yIPBUjdYQN7Kx0BEFpDBS5WtQL8JDkFJDpbB7A9RQJFJgED/P6LBo3NOQfJFfT8R/k/B8fJH
QRRJ7b1sZFzB3a4/QUlNAEAazkrBLaIyQbGyWL7Nd2PBCVUqQZY19D9bzVHB1TefQNb58r60uqXB
6yLZQLEGkT+LG6jBq9TjQBdOmr/e/KzBDrsjQfCAST9bz13BJBGvQE5/Vj9ap6TBOH65QKgiv79J
7anB8Y3zQKAT4D0nIazB0cPJQFx6nL+mtoHBhij1QDLfcsBK+m/Byn/fQFqSBECYnovBk+36QDUE
E8AYLY7BG3HEQLRJt0DAAZLBpC/5QCcKTL8C2o/B/R2ZQE7P5UCc+IbBkpq9QNyE5kBiG4/Bx8+d
QJIon0CTFI3BQ9bRQJNdJMBDo4fBkFf4QL7Bo8C/9WPBekE7QLRRQsD8MJTBr0SxQNYWjsAuZJPB
7Q0NQTDrLz9cl2XBBHGRQBRk9z/1q6DBeTF/QI/wKcBUwIvBmj8LQU4QsD9fYnvBmaTpQGFkkD/Q
XYLBpP+HQH1vfUDMrJTBEW6tQCaOPMDdz4/BbmunQLMVOEBvkJjB0Y/lQMOxir5QD4bBFGzWQOm2
a8DW83/BVdy1QGRSBUAFY4/BJNl9QD6swEB//InByfyzQB/1iL8ASXPBByEIQZqMO8Cv4GzBM337
QMHoMEAntY/Box2xQMR0/kCeV5jBK5RtQNjLlEBTsp3BuEyqQIlIMMC61qrBTfwNQQ6CyD4kPa/B
U8heQbJ8hz8ddErBw1FTQQtvY78FdWDBNsBEQdHPNkBwd0HBh7AtQYwshr+nNm3BJwkfQVsiLEC0
/E3B5aJ9QP9oM78eVKPBQQLlQKNTCUBhqKfBTjz4QO3//r+6/a/Bi076QBZXNcCZ25XBA9gLQdiW
JcAYqonBaAXFQPAls0CcvprBXKLiQMh7q0D1k47BMckMQYJIxr6a65DBloblQCLfDL8K4ZbBGbWl
QK4D4kDUnX3BODmGQEW5AUFpc4fBj73aQCSt80CmbIvBSsOoQBwJjkBL5YXB9U0KQQ5Do8B+eVnB
YGHbQLNmqMDeOlrBP1P7QEMpvsC3gG/Bcwv2P6NGNMDfC5HBRB1GQGEKHcAqiJvB7D5AQDKCg8C+
ApbBSYKXQOujlcB3FZnBX3jQQBU8k8CbQZfB9oiuQOsFo8CJWYzBzIsIQTxAvr4YKWfB9E8CQYAS
lz+zGFrBpp+GQKm7IUCqkKfBn0drQLyQuz9+x5zBGoZ5QDKHyr8t84nBwqdzQJw9T8DBbYTBR9QN
QSs9HUC9cnnB5mUXQTQwdz9FJoPBZhTSQKcQpz8I+HfBbhBcQI3AXUAJP5DBAYCyQFAKFcDe+5bB
j+rCQM0dV0CHdJzBL1bBQNvMjcBwmIDBR0egQC7wwT8CnYvBoFRaQEn0tkBqyoPBl6BXQB7zx0DH
I5DBMQOtQDnKDUF7a5bBg8tSQKjegEDNW6LB9cNOQRREdj9Vb1DB3gZIQVTuFb6solzBHzFAQfnC
/j+tWkvBR6syQacEbr5DnmPBX88qQUXR8z/dS1LBxx/ZQII3kT9OWqjBsjyfQHH08r6e+6XBqfDj
QEcdmr/XMq3Bt/kjQd4cSD/6HV7BBwyvQAyMVj+86aTB95nzQNQE5T1jW6zBE5a5QJIQv78BJ6rB
Xq/KQCgbnL+RxYHBSuj1QO3MdMDLkHDB1pjfQB2GBUCVr4vBsFb8QFgiEsCAGI7BAljEQP1bt0Dc
VZLBrwb6QNCASb9J8I/B8aOZQDkb5UCW7obBzcq9QAlY5kDCKY/B22OeQP7EnkA1OY3BOuLSQIHq
I8CTvYfBq5v3QOsypMBrBWTBGJs9QFx/Q8AsMpTBqXKzQMLBjMDjAZTBUkYNQQTNMT/m22XBKXeR
QGdD9z/b5qDBAuCAQE+dK8DBxIvBsXwLQQAJsT+QpnvBQArqQK+7kT/Qe4LBzjyIQLtkfEDPuJTB
MMCuQDIQO8BxA5DB6ZanQCZpN0DywJjBg+DlQO3qg74VOYbBkQnXQMI8bMDMNIDBjVa2QMiQA0CM
s4/B5vN+QKH6v0A494nBeIC1QKvRib8pL3PBrNQGQULIOcD6gWvBZNH6QErONUCpX4/BVx6xQDIp
/0DQO5jBHpBsQHc5lECuqZ3BMgAOQUfWyj7kd6/BWWuqQBE9MMD/D6vBxyBfQfEDgz+o90rB/j9T
QSHQbb+anmDBhG5FQQz4NUDZI0LB04gtQeZfib/KK23B+qofQdKbLEAIlU7B5vPkQHp0CUCp56fB
gKN9QPOEM7+emaPBzGb4QDnP/r9/LbDBBpX8QItINcBbuJXBym0MQchjI8AEaYnBEtbDQC7gs0Bd
F5vBtPjiQB5fq0A9M4/BGiENQVDgur4P/ZDBCHfmQOQvD78rBpfB3ZmmQM4J4UCYoH3BApeGQAJW
AUHqSIfBjCHbQGYK80DXeovBuxiqQHW0jUDXGobBfd8HQfOgocCQRlfBcxXYQFmWqsA231zBVRsA
QfyNvsB13W7BzsH6P/W2N8BG6JDBwuVGQNA3HMDsZ5vBW/xDQHrLg8CYSJbBxdWZQM73k8CyxJnB
6r3SQNjNkMBD6JfBNBSxQFu0osAoJ43B3J0IQa88ub51aWfBOaECQeTGmD/6VlrBp7mGQDYKIkBF
xafBwjZrQKpyuz/ECJ3Bmqh6QI0dz7/rsonBM793QOvtUsCXk4TBmh0OQfmyHUDJuHnBYpsXQXeT
eD/qSYPBPpbSQMPIpz+9InjBulhdQMpnXEC3LpDBvkKzQBI8EcBYAJfBYPfCQOXVVkDupZzBc53B
QLW9jcDw3oDBW0ShQBaouD+QNYzBTxJcQF/utUAXv4PBqCBYQIJnx0BtDJDBWTOtQD0PDkFzI5bB
OlhRQPg+gEB0RaLB

>  <OMEGA_E>  (9) 
KKirPrAirD7YSKs+

>  <OMEGA_NBR>  (9) 
     26734

$$$$
50197361
     RDKit          3D

 98102  0  0  1  0  0  0  0  0999 V2000
   12.9620    0.9081  -13.1297 C   0  0  0  0  0  0  0  0  0  0  0  0
   12.4948   -0.2013  -13.8635 C   0  0  0  0  0  0  0  0  0  0  0  0
   12.0940    1.9800  -12.8373 C   0  0  0  0  0  0  0  0  0  0  0  0
    7.3984    8.8407  -21.4436 C   0  0  0  0  0  0  0  0  0  0  0  0
   11.1566   -0.2443  -14.2960 C   0  0  0  0  0  0  0  0  0  0  0  0
   10.7540    1.9372  -13.2663 C   0  0  0  0  0  0  0  0  0  0  0  0
    6.9545    8.4213  -20.1830 C   0  0  0  0  0  0  0  0  0  0  0  0
    6.8049    1.0267  -21.1337 C   0  0  0  0  0  0  0  0  0  0  0  0
    4.9247   -0.4870  -20.7794 C   0  0  0  0  0  0  0  0  0  0  0  0
    7.0388   -1.3476  -21.6410 C   0  0  0  0  0  0  0  0  0  0  0  0
    6.4677    9.3538  -22.3693 C   0  0  0  0  0  0  0  0  0  0  0  0
    4.7068    9.0619  -20.8547 C   0  0  0  0  0  0  0  0  0  0  0  0
   10.2801    0.8137  -13.9754 C   0  0  0  0  0  0  0  0  0  0  0  0
    5.4755    0.8075  -20.7057 C   0  0  0  0  0  0  0  0  0  0  0  0
    5.5726    8.4986  -19.8935 C   0  0  0  0  0  0  0  0  0  0  0  0
    7.5874   -0.0520  -21.5851 C   0  0  0  0  0  0  0  0  0  0  0  0
    5.7025   -1.5615  -21.2549 C   0  0  0  0  0  0  0  0  0  0  0  0
    6.2581   -1.0997  -16.2262 C   0  0  0  0  0  0  0  0  0  0  0  0
    7.4495   -3.6829  -14.8832 C   0  0  0  0  0  0  0  0  0  0  0  0
    7.0627    2.1078  -17.6033 C   0  0  0  0  0  0  0  0  0  0  0  0
    7.7502   -2.3167  -17.7144 C   0  0  0  0  0  0  0  0  0  0  0  0
    6.1513    5.8258  -18.4038 C   0  0  0  0  0  0  0  0  0  0  0  0
    7.7635   -0.8274  -18.0051 C   0  0  0  0  0  0  0  0  0  0  0  0
    4.9430    6.9309  -16.6501 C   0  0  0  0  0  0  0  0  0  0  0  0
    5.8301    7.2293  -17.8413 C   0  0  2  0  0  0  0  0  0  0  0  0
    5.0885    4.9035  -17.7577 C   0  0  2  0  0  0  0  0  0  0  0  0
    6.4440   -2.4860  -16.9090 C   0  0  2  0  0  0  0  0  0  0  0  0
    7.5178   -5.0027  -14.1233 C   0  0  0  0  0  0  0  0  0  0  0  0
    2.7964   -2.7878  -18.4859 C   0  0  0  0  0  0  0  0  0  0  0  0
    5.2879   -4.3660  -18.2699 C   0  0  0  0  0  0  0  0  0  0  0  0
    8.8573    0.7700  -14.4532 C   0  0  0  0  0  0  0  0  0  0  0  0
    4.6021    1.9626  -20.2597 C   0  0  0  0  0  0  0  0  0  0  0  0
    3.8888   -2.3810  -17.4741 C   0  0  0  0  0  0  0  0  0  0  0  0
    8.7712    1.4092  -15.8419 C   0  0  0  0  0  0  0  0  0  0  0  0
    7.3576    1.1985  -16.4131 C   0  0  2  0  0  0  0  0  0  0  0  0
    4.3613    3.9587  -18.7325 C   0  0  2  0  0  0  0  0  0  0  0  0
    5.2948   -2.8397  -17.9292 C   0  0  1  0  0  0  0  0  0  0  0  0
    5.3236    2.8832  -19.2550 C   0  0  1  0  0  0  0  0  0  0  0  0
    5.1552    9.4740  -22.0619 N   0  0  0  0  0  0  0  0  0  0  0  0
    7.1655   -0.2126  -16.8139 N   0  0  0  0  0  0  0  0  0  0  0  0
    6.5211   -3.5713  -15.9104 N   0  0  0  0  0  0  0  0  0  0  0  0
    5.7818    2.0677  -18.1247 N   0  0  0  0  0  0  0  0  0  0  0  0
    4.1249    5.8063  -17.1121 N   0  0  0  0  0  0  0  0  0  0  0  0
    5.5872   -0.8729  -15.2249 O   0  0  0  0  0  0  0  0  0  0  0  0
    8.2965   -2.8232  -14.6710 O   0  0  0  0  0  0  0  0  0  0  0  0
    7.9193    2.8574  -18.0619 O   0  0  0  0  0  0  0  0  0  0  0  0
    3.8111    4.6958  -19.8246 O   0  0  0  0  0  0  0  0  0  0  0  0
    5.0041    8.0215  -18.7300 O   0  0  0  0  0  0  0  0  0  0  0  0
    8.8639    0.1588  -21.9747 F   0  0  0  0  0  0  0  0  0  0  0  0
    5.1732   -2.8045  -21.3175 F   0  0  0  0  0  0  0  0  0  0  0  0
   13.9870    0.9369  -12.7907 H   0  0  0  0  0  0  0  0  0  0  0  0
   13.1636   -1.0175  -14.0936 H   0  0  0  0  0  0  0  0  0  0  0  0
   12.4571    2.8337  -12.2843 H   0  0  0  0  0  0  0  0  0  0  0  0
    8.4443    8.7714  -21.7039 H   0  0  0  0  0  0  0  0  0  0  0  0
   10.8010   -1.0856  -14.8723 H   0  0  0  0  0  0  0  0  0  0  0  0
   10.0905    2.7622  -13.0530 H   0  0  0  0  0  0  0  0  0  0  0  0
    7.6523    8.0473  -19.4485 H   0  0  0  0  0  0  0  0  0  0  0  0
    7.2203    2.0234  -21.1142 H   0  0  0  0  0  0  0  0  0  0  0  0
    3.9037   -0.6563  -20.4707 H   0  0  0  0  0  0  0  0  0  0  0  0
    7.6428   -2.1763  -21.9797 H   0  0  0  0  0  0  0  0  0  0  0  0
    6.8101    9.6583  -23.3473 H   0  0  0  0  0  0  0  0  0  0  0  0
    3.6578    9.1667  -20.6199 H   0  0  0  0  0  0  0  0  0  0  0  0
    7.7230   -2.9035  -18.6445 H   0  0  0  0  0  0  0  0  0  0  0  0
    8.6261   -2.6138  -17.1189 H   0  0  0  0  0  0  0  0  0  0  0  0
    6.0619    5.8154  -19.5001 H   0  0  0  0  0  0  0  0  0  0  0  0
    7.1658    5.5131  -18.1157 H   0  0  0  0  0  0  0  0  0  0  0  0
    8.7933   -0.4694  -18.1515 H   0  0  0  0  0  0  0  0  0  0  0  0
    7.1659   -0.6010  -18.9005 H   0  0  0  0  0  0  0  0  0  0  0  0
    5.5432    6.6474  -15.7730 H   0  0  0  0  0  0  0  0  0  0  0  0
    4.3147    7.7984  -16.3996 H   0  0  0  0  0  0  0  0  0  0  0  0
    6.7485    7.7539  -17.5391 H   0  0  0  0  0  0  0  0  0  0  0  0
    5.5844    4.2928  -16.9890 H   0  0  0  0  0  0  0  0  0  0  0  0
    8.3827   -4.9908  -13.4437 H   0  0  0  0  0  0  0  0  0  0  0  0
    6.5951   -5.1380  -13.5400 H   0  0  0  0  0  0  0  0  0  0  0  0
    7.6247   -5.8320  -14.8381 H   0  0  0  0  0  0  0  0  0  0  0  0
    1.8157   -2.4438  -18.1255 H   0  0  0  0  0  0  0  0  0  0  0  0
    3.0106   -2.3271  -19.4616 H   0  0  0  0  0  0  0  0  0  0  0  0
    2.7845   -3.8826  -18.5921 H   0  0  0  0  0  0  0  0  0  0  0  0
    4.4771   -4.5797  -18.9819 H   0  0  0  0  0  0  0  0  0  0  0  0
    6.2526   -4.6459  -18.7182 H   0  0  0  0  0  0  0  0  0  0  0  0
    5.1294   -4.9464  -17.3490 H   0  0  0  0  0  0  0  0  0  0  0  0
    8.5198   -0.2755  -14.5081 H   0  0  0  0  0  0  0  0  0  0  0  0
    8.2169    1.3257  -13.7523 H   0  0  0  0  0  0  0  0  0  0  0  0
    4.3191    2.5545  -21.1427 H   0  0  0  0  0  0  0  0  0  0  0  0
    3.6966    1.5589  -19.7833 H   0  0  0  0  0  0  0  0  0  0  0  0
    3.8880   -1.2858  -17.3707 H   0  0  0  0  0  0  0  0  0  0  0  0
    3.6619   -2.8413  -16.5012 H   0  0  0  0  0  0  0  0  0  0  0  0
    8.9790    2.4866  -15.7638 H   0  0  0  0  0  0  0  0  0  0  0  0
    9.5102    0.9406  -16.5083 H   0  0  0  0  0  0  0  0  0  0  0  0
    6.6355    1.4370  -15.6182 H   0  0  0  0  0  0  0  0  0  0  0  0
    3.5521    3.4565  -18.1819 H   0  0  0  0  0  0  0  0  0  0  0  0
    5.5232   -2.3045  -18.8627 H   0  0  0  0  0  0  0  0  0  0  0  0
    6.1785    3.3659  -19.7511 H   0  0  0  0  0  0  0  0  0  0  0  0
    5.8374   -4.2977  -15.9808 H   0  0  0  0  0  0  0  0  0  0  0  0
    5.1252    1.4419  -17.7036 H   0  0  0  0  0  0  0  0  0  0  0  0
    3.6759    5.3538  -16.3416 H   0  0  0  0  0  0  0  0  0  0  0  0
    3.4343    6.1148  -17.7661 H   0  0  0  0  0  0  0  0  0  0  0  0
    3.3663    4.1007  -20.4167 H   0  0  0  0  0  0  0  0  0  0  0  0
  1  2  2  0
  1  3  1  0
  2  5  1  0
  3  6  2  0
  4  7  2  0
  4 11  1  0
  5 13  2  0
  6 13  1  0
  7 15  1  0
  8 14  2  0
  8 16  1  0
  9 14  1  0
  9 17  2  0
 10 16  2  0
 10 17  1  0
 11 39  2  0
 12 15  2  0
 12 39  1  0
 13 31  1  0
 14 32  1  0
 15 48  1  0
 16 49  1  0
 17 50  1  0
 18 27  1  0
 18 40  1  0
 18 44  2  0
 19 28  1  0
 19 41  1  0
 19 45  2  0
 20 35  1  0
 20 42  1  0
 20 46  2  0
 21 23  1  0
 21 27  1  0
 22 25  1  0
 22 26  1  0
 23 40  1  0
 24 25  1  0
 24 43  1  0
 25 48  1  0
 26 36  1  0
 26 43  1  0
 27 37  1  0
 27 41  1  1
 29 33  1  0
 30 37  1  0
 31 34  1  0
 32 38  1  0
 33 37  1  0
 34 35  1  0
 35 40  1  0
 36 38  1  0
 36 47  1  0
 38 42  1  0
  1 51  1  0
  2 52  1  0
  3 53  1  0
  4 54  1  0
  5 55  1  0
  6 56  1  0
  7 57  1  0
  8 58  1  0
  9 59  1  0
 10 60  1  0
 11 61  1  0
 12 62  1  0
 21 63  1  0
 21 64  1  0
 22 65  1  0
 22 66  1  0
 23 67  1  0
 23 68  1  0
 24 69  1  0
 24 70  1  0
 25 71  1  1
 26 72  1  1
 28 73  1  0
 28 74  1  0
 28 75  1  0
 29 76  1  0
 29 77  1  0
 29 78  1  0
 30 79  1  0
 30 80  1  0
 30 81  1  0
 31 82  1  0
 31 83  1  0
 32 84  1  0
 32 85  1  0
 33 86  1  0
 33 87  1  0
 34 88  1  0
 34 89  1  0
 35 90  1  1
 36 91  1  1
 37 92  1  6
 38 93  1  6
 41 94  1  0
 42 95  1  0
 43 96  1  0
 43 97  1  0
 47 98  1  0
M  CHG  1  43   1
M  END
>  <OMEGA_C>  (10) 
VmRPQcB4aD8qE1LBxupHQTgaTr7y0F3B+4BBQfhw/T9+ZU3B/r/sQFFzDUGVjKvBa4EyQegder5E
vGTBRhAsQdj09z+oQlTBpoveQNO9BkHgdqHBY8HZQGhqgz/cEanB3padQOhb+b5APKbBmT3hQJt+
rL+4IK3BnffOQP6oFUFP9LLB852WQIX9EEFp1qbBc3skQUxOUD8pm1/BJTevQCG1Tj9VpaXBJFOy
QBX6B0HoJZ/BWszyQJAZVb1PrqzBf3q2QE/ex78MCqrBt0LIQJ/DjL8sz4HB+GHuQCi1a8BrIW7B
8gHiQODlBkCW04zBfQH4QHxFFMAQt43BQdfEQB5tukAJO5PBfm74QDjNU79xCpDB7SyeQPDJ3UBb
M4XBHpC6QAdW50Dquo7BvNSiQNjpnEDcD47B7DTOQNgZH8CURYfBxZHwQF4WoMA8+WHBkfgyQLZq
MsAi45PBczapQEO2i8C2KJLBVbcNQfkhRT8sQGfBq0STQIs2+z/ZE6LBxOJ4QKxhGMDxyovBtlYM
QcZgtD8+eH3BIXHrQIxpmT/5TYPBi4+LQJhbfUAW3JXB+W6pQG6+NcAYb4/BLFuqQDqGOEBJCprB
LPekQIqVF0HYfrDB8EvlQJi/Wb7kgobBt6zQQPKQZMAykX7BLAS5QFBVBEB7/5DBlv+DQOHMuUCU
5YjBTMqyQPB1X787mXPBXL4EQVavNMA/vGrBAmv9QEDfNkCxfpDBGOlzQJtDlkDUmJ7B4CGgQCxY
AEEj15XBXdINQRCbIj4qzK/B/IqlQKh8M8BCiqrB28pfQYPbbz/ZpkzBDJ5SQV09gr8+f2HBRlBH
QXpbNUCejETB7BsHQahXDEGboa3BC9EsQfX0ir/E9G3BtnIhQWnIMEBH2VDB4t/0QOTBAEFxlpvB
pAznQE5/AUDh6ajB09V5QEAGKL/8w6PB7JH0QPhIC8CE1q/BZuzZQEyIGkE2x7rBJhpqQN+qEkF3
9aTB1yL3QEvSOcDWJ5XBfgQKQfVHJ8Ca84jBrfrBQOIXukBHAJzBA07lQG5rsED57JDBNLEMQbVS
8L4xNpHB9k7lQIzdGb8gNJfBImKxQGi31EAPXnzBPhKKQG2M+UBTMoPBfPPXQE4g+EAsUIzBk7Oy
QE5eiUB26YfBVh8GQbW0n8CFGVfB2ArTQNpqpMDno1jBXP3zQP6fusDDaG3BH2noP7JmHMAXAZHB
8a1AQOjuFMBEsZvBlDUyQO97eMCKvJTBNESPQIqMksDa2pfBUxXIQNOqlMDyvpXBaCSkQKpInsC0
yorB/VAIQfAIjb4WIWjBZHgDQW+xqT+aCVzBcDaKQCF8I0ArJKnBnpRsQOKIxz8vRJ7BqtV4QEKW
pL8c94rBTF1qQCjYNcBiAoTB4akPQQkkH0CiOHzB2SkYQVTIcD8MEYTBK1bUQFrutz8v5HnBMFZj
QLc3XUCQdJHBab6wQEp9E8DR5pbBabbFQF1rV0BWAp7BKMy6QCOHicBjsX/BxQGkQOqQuD8FoY3B
hUFrQJFSq0Cju4LB6MpbQFesw0AJIY7B/nBXQPg4g0BiVaPB

>  <OMEGA_E>  (10) 
kI/SPg==

>  <OMEGA_NBR>  (10) 
     28661

$$$$
50197381
     RDKit          3D

 78 80  0  0  1  0  0  0  0  0999 V2000
    6.7117    1.1142  -21.1324 C   0  0  0  0  0  0  0  0  0  0  0  0
    4.8246   -0.4054  -20.8474 C   0  0  0  0  0  0  0  0  0  0  0  0
    6.9112   -1.2203  -21.8072 C   0  0  0  0  0  0  0  0  0  0  0  0
    5.4002    0.8686  -20.6717 C   0  0  0  0  0  0  0  0  0  0  0  0
    7.4680    0.0671  -21.6874 C   0  0  0  0  0  0  0  0  0  0  0  0
    5.5834   -1.4513  -21.4050 C   0  0  0  0  0  0  0  0  0  0  0  0
    6.3585   -1.1398  -16.0434 C   0  0  0  0  0  0  0  0  0  0  0  0
    7.0440    2.1214  -17.3752 C   0  0  0  0  0  0  0  0  0  0  0  0
    7.5869   -2.2359  -17.7615 C   0  0  0  0  0  0  0  0  0  0  0  0
    6.1423    5.7666  -18.2789 C   0  0  0  0  0  0  0  0  0  0  0  0
    7.8480   -0.7462  -17.8405 C   0  0  0  0  0  0  0  0  0  0  0  0
    4.7754    7.1310  -16.8178 C   0  0  0  0  0  0  0  0  0  0  0  0
    6.2416   -2.2830  -17.0493 C   0  0  2  0  0  0  0  0  0  0  0  0
    5.9096    7.2178  -17.8298 C   0  0  2  0  0  0  0  0  0  0  0  0
    4.9702    4.9724  -17.6597 C   0  0  2  0  0  0  0  0  0  0  0  0
    4.5247   -4.8612  -18.4943 C   0  0  0  0  0  0  0  0  0  0  0  0
    4.9903    9.5708  -21.4405 C   0  0  0  0  0  0  0  0  0  0  0  0
    8.7626    1.4196  -15.5618 C   0  0  0  0  0  0  0  0  0  0  0  0
    4.5550    1.9838  -20.1142 C   0  0  0  0  0  0  0  0  0  0  0  0
    5.0985   -1.9327  -18.0316 C   0  0  0  0  0  0  0  0  0  0  0  0
    3.4360   -3.7713  -18.5744 C   0  0  0  0  0  0  0  0  0  0  0  0
    6.1946    8.6478  -21.1980 C   0  0  0  0  0  0  0  0  0  0  0  0
    3.7466   -2.5615  -17.6672 C   0  0  0  0  0  0  0  0  0  0  0  0
    6.5642    8.5858  -19.7097 C   0  0  0  0  0  0  0  0  0  0  0  0
    7.3643    1.1929  -16.1743 C   0  0  2  0  0  0  0  0  0  0  0  0
    4.3091    3.9609  -18.6069 C   0  0  2  0  0  0  0  0  0  0  0  0
    5.3016    2.8807  -19.0919 C   0  0  1  0  0  0  0  0  0  0  0  0
    7.2552   -0.2116  -16.5954 N   0  0  0  0  0  0  0  0  0  0  0  0
    5.7665    2.0631  -17.9428 N   0  0  0  0  0  0  0  0  0  0  0  0
    3.9786    5.9859  -17.2585 N   0  0  0  0  0  0  0  0  0  0  0  0
    5.6363   -0.9731  -15.0679 O   0  0  0  0  0  0  0  0  0  0  0  0
    7.9108    2.8542  -17.8399 O   0  0  0  0  0  0  0  0  0  0  0  0
    3.7523    4.6605  -19.7253 O   0  0  0  0  0  0  0  0  0  0  0  0
    5.4782    8.0196  -18.9459 O   0  0  0  0  0  0  0  0  0  0  0  0
    8.7269    0.3018  -22.1170 F   0  0  0  0  0  0  0  0  0  0  0  0
    5.0478   -2.6876  -21.5187 F   0  0  0  0  0  0  0  0  0  0  0  0
    7.1337    2.1056  -21.0585 H   0  0  0  0  0  0  0  0  0  0  0  0
    3.7999   -0.5795  -20.5539 H   0  0  0  0  0  0  0  0  0  0  0  0
    7.5032   -2.0300  -22.2076 H   0  0  0  0  0  0  0  0  0  0  0  0
    7.5246   -2.6846  -18.7639 H   0  0  0  0  0  0  0  0  0  0  0  0
    8.3663   -2.7481  -17.1783 H   0  0  0  0  0  0  0  0  0  0  0  0
    6.1245    5.6924  -19.3763 H   0  0  0  0  0  0  0  0  0  0  0  0
    7.1059    5.3935  -17.9018 H   0  0  0  0  0  0  0  0  0  0  0  0
    8.9279   -0.5402  -17.8791 H   0  0  0  0  0  0  0  0  0  0  0  0
    7.3598   -0.3101  -18.7245 H   0  0  0  0  0  0  0  0  0  0  0  0
    5.1700    6.9634  -15.8048 H   0  0  0  0  0  0  0  0  0  0  0  0
    4.1730    8.0513  -16.8290 H   0  0  0  0  0  0  0  0  0  0  0  0
    6.0700   -3.2505  -16.5547 H   0  0  0  0  0  0  0  0  0  0  0  0
    6.8174    7.6244  -17.3602 H   0  0  0  0  0  0  0  0  0  0  0  0
    5.3359    4.4394  -16.7696 H   0  0  0  0  0  0  0  0  0  0  0  0
    4.2564   -5.6975  -19.1565 H   0  0  0  0  0  0  0  0  0  0  0  0
    5.4901   -4.4388  -18.8099 H   0  0  0  0  0  0  0  0  0  0  0  0
    4.6043   -5.2243  -17.4590 H   0  0  0  0  0  0  0  0  0  0  0  0
    4.7538    9.5913  -22.5146 H   0  0  0  0  0  0  0  0  0  0  0  0
    4.1214    9.1941  -20.8810 H   0  0  0  0  0  0  0  0  0  0  0  0
    5.2334   10.5878  -21.0992 H   0  0  0  0  0  0  0  0  0  0  0  0
    8.9117    0.7266  -14.7207 H   0  0  0  0  0  0  0  0  0  0  0  0
    9.5317    1.2381  -16.3271 H   0  0  0  0  0  0  0  0  0  0  0  0
    8.8413    2.4559  -15.2014 H   0  0  0  0  0  0  0  0  0  0  0  0
    4.2184    2.6154  -20.9496 H   0  0  0  0  0  0  0  0  0  0  0  0
    3.6811    1.5407  -19.6143 H   0  0  0  0  0  0  0  0  0  0  0  0
    4.9784   -0.8394  -18.0466 H   0  0  0  0  0  0  0  0  0  0  0  0
    5.3843   -2.2841  -19.0340 H   0  0  0  0  0  0  0  0  0  0  0  0
    3.3611   -3.4226  -19.6150 H   0  0  0  0  0  0  0  0  0  0  0  0
    2.4753   -4.2081  -18.2640 H   0  0  0  0  0  0  0  0  0  0  0  0
    5.9448    7.6349  -21.5468 H   0  0  0  0  0  0  0  0  0  0  0  0
    7.0569    9.0286  -21.7650 H   0  0  0  0  0  0  0  0  0  0  0  0
    3.7762   -2.8958  -16.6197 H   0  0  0  0  0  0  0  0  0  0  0  0
    2.9549   -1.8077  -17.7894 H   0  0  0  0  0  0  0  0  0  0  0  0
    7.4605    7.9605  -19.5843 H   0  0  0  0  0  0  0  0  0  0  0  0
    6.7726    9.6025  -19.3451 H   0  0  0  0  0  0  0  0  0  0  0  0
    6.6169    1.3871  -15.3909 H   0  0  0  0  0  0  0  0  0  0  0  0
    3.5028    3.4554  -18.0552 H   0  0  0  0  0  0  0  0  0  0  0  0
    6.1567    3.3643  -19.5867 H   0  0  0  0  0  0  0  0  0  0  0  0
    5.1143    1.4192  -17.5427 H   0  0  0  0  0  0  0  0  0  0  0  0
    3.4081    5.6448  -16.5113 H   0  0  0  0  0  0  0  0  0  0  0  0
    3.3981    6.2373  -18.0330 H   0  0  0  0  0  0  0  0  0  0  0  0
    3.3416    4.0395  -20.3153 H   0  0  0  0  0  0  0  0  0  0  0  0
  1  4  2  0
  1  5  1  0
  2  4  1  0
  2  6  2  0
  3  5  2  0
  3  6  1  0
  4 19  1  0
  5 35  1  0
  6 36  1  0
  7 13  1  0
  7 28  1  0
  7 31  2  0
  8 25  1  0
  8 29  1  0
  8 32  2  0
  9 11  1  0
  9 13  1  0
 10 14  1  0
 10 15  1  0
 11 28  1  0
 12 14  1  0
 12 30  1  0
 13 20  1  0
 14 34  1  0
 15 26  1  0
 15 30  1  0
 16 21  1  0
 17 22  1  0
 18 25  1  0
 19 27  1  0
 20 23  1  0
 21 23  1  0
 22 24  1  0
 24 34  1  0
 25 28  1  0
 26 27  1  0
 26 33  1  0
 27 29  1  0
  1 37  1  0
  2 38  1  0
  3 39  1  0
  9 40  1  0
  9 41  1  0
 10 42  1  0
 10 43  1  0
 11 44  1  0
 11 45  1  0
 12 46  1  0
 12 47  1  0
 13 48  1  1
 14 49  1  1
 15 50  1  1
 16 51  1  0
 16 52  1  0
 16 53  1  0
 17 54  1  0
 17 55  1  0
 17 56  1  0
 18 57  1  0
 18 58  1  0
 18 59  1  0
 19 60  1  0
 19 61  1  0
 20 62  1  0
 20 63  1  0
 21 64  1  0
 21 65  1  0
 22 66  1  0
 22 67  1  0
 23 68  1  0
 23 69  1  0
 24 70  1  0
 24 71  1  0
 25 72  1  1
 26 73  1  1
 27 74  1  6
 29 75  1  0
 30 76  1  0
 30 77  1  0
 33 78  1  0
M  CHG  1  30   1
M  END
>  <OMEGA_C>  (11) 
PMbWQESejj8TD6nBHGOaQIGUz76Fx6bB4yjdQBg0nL8Rda7BIM6sQI5ZXj+8X6XBCPruQEBqiT20
f63BOauyQKfDub9uPavBM3nLQNzkkb/ZWIDBP2jhQIjEB0BaAIvBucfyQMsYD8CeF47B2o3EQNyH
uEA4O5LBHCP7QPoFP79euY7B5M+YQAox5EDeiobB8rrHQJEcEsD4ZIjBnBu9QNX35kB+o47Bnguf
QOkdn0AFR43BQsqQQLWOm8A79JPByLCfQNEhGUEahqvBmDMMQeq0tT9T/XjBmcKRQNXt/T/l6aDB
xiajQFZk97+lQJDBH+dbQEBdccBamJTBSTrGQDFdCkGElanBu8hvQNjvI8CEVo3BRg7SQHlfCUGC
rZ3BDajrQB2ymD/+ZIHBX+SJQGF/fUDt2pTBT6apQB5eOEAvvJjBxCroQDqxWL5ww4TBGIe4QHwJ
BEDzio/BJKF+QJyMv0BbEYrBw1y0QMofeb/zFXHBeyX9QNGqNkAtuI7BvSVwQOsilUB0zZ3ByE2v
QBtQAEE7kZfBMqELQax/mj6Y77DB5YehQOABLMBfJqzBaUfkQPvBBkDKd6jBYDJzQNVcFL9NbqTB
gBrwQDnsAcAZqbHBYsnwQPLQK8B6HJbBONwFQSDhL8AebYnBnvvDQPIntkCXApvB2mPjQEGXrEDm
No/BoNgOQcpJCr9eCI/BLIPrQDjGnr7Dy5XB13ClQOrT3kCC4HzBBImFQCXSAEHJoYbBzj3CQHoH
UMAZcITBdSjaQMv680C74YrBsb+qQNMPjkA0KIbBwDSIQERStsBwQJnBra6vQKkKjsCzepbBUlaT
QKUtp8D/q4vBdB+YQAB2GUHSHbTBJ+KDQDEbE0E9DKfBYHinQKxnKUEXy6jBhpYOQWwDOj/wh2vB
34EYQX56nj/NnYLB9nUNQfssHUD4OHPBSv2GQNRiJ0CxmKfBCZdrQIY1xT8P6pzBRE+fQIbkVr97
X5DBzkusQF0uEsCoRZjBVhxXQBMMW8B065zBn2seQAaphsDAHJLBmju+QP1Q9EDtX6zB0tHhQPl0
EEHHHq7BhKxxQCBUOcAW9YTBYBw9QCpk57/GUI7BZLzuQG+8/kC8rJzB2bjYQOWjGUHdwprB7r3T
QAWNsT/6QHbBii5gQD4lXUANcZDB9APFQA5RV0CEsZzBd6ijQIeotT+DV4zBHB9aQAKitEAzF4TB
FHtZQECYx0COQ5DB49xVQEdDgUDRhaLB

>  <OMEGA_E>  (11) 
gh4IPw==

>  <OMEGA_NBR>  (11) 
     30258

$$$$
50197388
     RDKit          3D

 79 81  0  0  1  0  0  0  0  0999 V2000
    6.0303    0.5540  -21.2250 C   0  0  0  0  0  0  0  0  0  0  0  0
    4.9753   -0.6263  -19.3647 C   0  0  0  0  0  0  0  0  0  0  0  0
    6.6137   -1.7731  -20.7655 C   0  0  0  0  0  0  0  0  0  0  0  0
    5.1206    0.5407  -20.1442 C   0  0  0  0  0  0  0  0  0  0  0  0
    6.7752   -0.6027  -21.5365 C   0  0  0  0  0  0  0  0  0  0  0  0
    5.7000   -1.7867  -19.6907 C   0  0  0  0  0  0  0  0  0  0  0  0
    7.0925   -0.9287  -15.8697 C   0  0  0  0  0  0  0  0  0  0  0  0
    6.5648    2.3642  -16.9276 C   0  0  0  0  0  0  0  0  0  0  0  0
    9.2115   -0.9711  -17.0128 C   0  0  0  0  0  0  0  0  0  0  0  0
    6.0748    5.7016  -18.3966 C   0  0  0  0  0  0  0  0  0  0  0  0
    8.9848    0.3885  -16.3853 C   0  0  0  0  0  0  0  0  0  0  0  0
    4.8738    7.4082  -17.3014 C   0  0  0  0  0  0  0  0  0  0  0  0
    8.2742   -1.8666  -16.2033 C   0  0  2  0  0  0  0  0  0  0  0  0
    6.3013    6.8710  -17.4819 C   0  0  2  0  0  0  0  0  0  0  0  0
    4.8539    5.0518  -17.7393 C   0  0  2  0  0  0  0  0  0  0  0  0
    9.7961   -6.1614  -18.4856 C   0  0  0  0  0  0  0  0  0  0  0  0
    9.2998   10.7595  -17.0688 C   0  0  0  0  0  0  0  0  0  0  0  0
    7.5130    2.4166  -14.5581 C   0  0  0  0  0  0  0  0  0  0  0  0
    4.2875    1.7702  -19.8293 C   0  0  0  0  0  0  0  0  0  0  0  0
    8.5979   -5.2587  -18.1543 C   0  0  0  0  0  0  0  0  0  0  0  0
    8.7255    9.6638  -17.9790 C   0  0  0  0  0  0  0  0  0  0  0  0
    9.0462   -4.0639  -17.2793 C   0  0  0  0  0  0  0  0  0  0  0  0
    7.7176    8.7999  -17.2075 C   0  0  0  0  0  0  0  0  0  0  0  0
    6.7881    1.5822  -15.6394 C   0  0  2  0  0  0  0  0  0  0  0  0
    7.8543   -3.1264  -16.9952 C   0  0  1  0  0  0  0  0  0  0  0  0
    4.1381    4.0080  -18.6285 C   0  0  2  0  0  0  0  0  0  0  0  0
    5.0459    2.7793  -18.9255 C   0  0  1  0  0  0  0  0  0  0  0  0
    7.5626    0.3823  -15.9882 N   0  0  0  0  0  0  0  0  0  0  0  0
    5.4060    2.1123  -17.6581 N   0  0  0  0  0  0  0  0  0  0  0  0
    3.9785    6.2143  -17.4194 N   0  0  0  0  0  0  0  0  0  0  0  0
    5.9519   -1.2560  -15.5586 O   0  0  0  0  0  0  0  0  0  0  0  0
    7.4527    3.0950  -17.3476 O   0  0  0  0  0  0  0  0  0  0  0  0
    6.8396   -3.8468  -16.2854 O   0  0  0  0  0  0  0  0  0  0  0  0
    3.7381    4.6289  -19.8534 O   0  0  0  0  0  0  0  0  0  0  0  0
    7.2004    7.8007  -18.0996 O   0  0  0  0  0  0  0  0  0  0  0  0
    7.6217   -0.5978  -22.5927 F   0  0  0  0  0  0  0  0  0  0  0  0
    5.4685   -2.9287  -19.0056 F   0  0  0  0  0  0  0  0  0  0  0  0
    6.1556    1.4509  -21.8134 H   0  0  0  0  0  0  0  0  0  0  0  0
    4.3068   -0.6285  -18.5166 H   0  0  0  0  0  0  0  0  0  0  0  0
    7.1886   -2.6574  -20.9978 H   0  0  0  0  0  0  0  0  0  0  0  0
    8.9376   -0.9683  -18.0782 H   0  0  0  0  0  0  0  0  0  0  0  0
   10.2587   -1.2898  -16.9043 H   0  0  0  0  0  0  0  0  0  0  0  0
    5.8552    6.0283  -19.4238 H   0  0  0  0  0  0  0  0  0  0  0  0
    6.9394    5.0215  -18.4051 H   0  0  0  0  0  0  0  0  0  0  0  0
    9.6328    0.5238  -15.5068 H   0  0  0  0  0  0  0  0  0  0  0  0
    9.1814    1.1898  -17.1128 H   0  0  0  0  0  0  0  0  0  0  0  0
    4.7615    7.8765  -16.3124 H   0  0  0  0  0  0  0  0  0  0  0  0
    4.6382    8.1441  -18.0844 H   0  0  0  0  0  0  0  0  0  0  0  0
    8.7713   -2.1719  -15.2707 H   0  0  0  0  0  0  0  0  0  0  0  0
    6.6919    6.5245  -16.5137 H   0  0  0  0  0  0  0  0  0  0  0  0
    5.1695    4.5630  -16.8058 H   0  0  0  0  0  0  0  0  0  0  0  0
    9.4600   -7.0043  -19.1072 H   0  0  0  0  0  0  0  0  0  0  0  0
   10.5523   -5.5803  -19.0338 H   0  0  0  0  0  0  0  0  0  0  0  0
   10.2344   -6.5457  -17.5528 H   0  0  0  0  0  0  0  0  0  0  0  0
   10.0191   11.3685  -17.6362 H   0  0  0  0  0  0  0  0  0  0  0  0
    8.4827   11.4004  -16.7062 H   0  0  0  0  0  0  0  0  0  0  0  0
    9.8090   10.2946  -16.2118 H   0  0  0  0  0  0  0  0  0  0  0  0
    7.6481    1.8065  -13.6529 H   0  0  0  0  0  0  0  0  0  0  0  0
    8.4960    2.7329  -14.9370 H   0  0  0  0  0  0  0  0  0  0  0  0
    6.9107    3.3044  -14.3153 H   0  0  0  0  0  0  0  0  0  0  0  0
    4.0232    2.2698  -20.7730 H   0  0  0  0  0  0  0  0  0  0  0  0
    3.3697    1.4530  -19.3127 H   0  0  0  0  0  0  0  0  0  0  0  0
    8.1612   -4.8787  -19.0897 H   0  0  0  0  0  0  0  0  0  0  0  0
    7.8433   -5.8442  -17.6087 H   0  0  0  0  0  0  0  0  0  0  0  0
    8.2196   10.1328  -18.8358 H   0  0  0  0  0  0  0  0  0  0  0  0
    9.5459    9.0269  -18.3413 H   0  0  0  0  0  0  0  0  0  0  0  0
    9.4445   -4.4423  -16.3263 H   0  0  0  0  0  0  0  0  0  0  0  0
    9.8308   -3.5024  -17.8075 H   0  0  0  0  0  0  0  0  0  0  0  0
    8.2186    8.3148  -16.3568 H   0  0  0  0  0  0  0  0  0  0  0  0
    6.8949    9.4296  -16.8380 H   0  0  0  0  0  0  0  0  0  0  0  0
    5.8090    1.2782  -15.2409 H   0  0  0  0  0  0  0  0  0  0  0  0
    7.4511   -2.7941  -17.9632 H   0  0  0  0  0  0  0  0  0  0  0  0
    3.2492    3.6508  -18.0880 H   0  0  0  0  0  0  0  0  0  0  0  0
    5.9531    3.1194  -19.4464 H   0  0  0  0  0  0  0  0  0  0  0  0
    4.7708    1.4292  -17.2977 H   0  0  0  0  0  0  0  0  0  0  0  0
    3.4985    6.0569  -16.5564 H   0  0  0  0  0  0  0  0  0  0  0  0
    3.3114    6.3548  -18.1510 H   0  0  0  0  0  0  0  0  0  0  0  0
    6.2619   -3.2326  -15.8477 H   0  0  0  0  0  0  0  0  0  0  0  0
    3.2978    3.9914  -20.4031 H   0  0  0  0  0  0  0  0  0  0  0  0
  1  4  2  0
  1  5  1  0
  2  4  1  0
  2  6  2  0
  3  5  2  0
  3  6  1  0
  4 19  1  0
  5 36  1  0
  6 37  1  0
  7 13  1  0
  7 28  1  0
  7 31  2  0
  8 24  1  0
  8 29  1  0
  8 32  2  0
  9 11  1  0
  9 13  1  0
 10 14  1  0
 10 15  1  0
 11 28  1  0
 12 14  1  0
 12 30  1  0
 13 25  1  0
 14 35  1  0
 15 26  1  0
 15 30  1  0
 16 20  1  0
 17 21  1  0
 18 24  1  0
 19 27  1  0
 20 22  1  0
 21 23  1  0
 22 25  1  0
 23 35  1  0
 24 28  1  0
 25 33  1  0
 26 27  1  0
 26 34  1  0
 27 29  1  0
  1 38  1  0
  2 39  1  0
  3 40  1  0
  9 41  1  0
  9 42  1  0
 10 43  1  0
 10 44  1  0
 11 45  1  0
 11 46  1  0
 12 47  1  0
 12 48  1  0
 13 49  1  1
 14 50  1  1
 15 51  1  1
 16 52  1  0
 16 53  1  0
 16 54  1  0
 17 55  1  0
 17 56  1  0
 17 57  1  0
 18 58  1  0
 18 59  1  0
 18 60  1  0
 19 61  1  0
 19 62  1  0
 20 63  1  0
 20 64  1  0
 21 65  1  0
 21 66  1  0
 22 67  1  0
 22 68  1  0
 23 69  1  0
 23 70  1  0
 24 71  1  1
 25 72  1  6
 26 73  1  1
 27 74  1  6
 29 75  1  0
 30 76  1  0
 30 77  1  0
 33 78  1  0
 34 79  1  0
M  CHG  1  30   1
M  END
>  <OMEGA_C>  (12) 
YPjAQBjQDT+2zKnB7zWfQN5TIL/96prBF6PTQA/14r/JH6bB29ujQKFoCj9sJ6HBuc7YQOpJGr+u
SqzB/2W2QB+y5L+Qhp3B0fXiQFm/bb9Q6n3B7xLSQI9PF0Cqa4fBUmITQdeWeL9IGojBD2XCQHtz
tkBMLJPBr8EPQdPpxj4eFYPB4PWbQBAQ7UBNaYrBS2MEQaTr7r9zoIHB2KPJQA7f20Di2ovB4lKb
QAyooUAX6o3B17wcQe8pxcB+4pPBI8wUQRUnLEH8jIjBamrwQHOpGkAQ7mjBlDOJQGWX4j9Sop7B
0JAJQQNHqMARPJHBlpsLQbueGkEA1Y/BD70QQa8LgsD1O4rBg/b2QGPMDEH1qInBRTjZQKuGyj8r
O3rB1Vb7QGIXSMAp9ofBCWuEQORBgEBAB5XBEHihQCPgMUBgZ5fBMgHyQEHDwz6Jz3/BEP6sQF8w
B0DYQ43BSZ9+QFbbxkAAW4vB5nW+QCzGoL848HjBHHzuQK0URkDjx4rBqt3aQJQydsCISILBWT1v
QEcglEDL057Be2nmQD6f+UD/y5DBruTzQC0HGb/ivbTBNv6uQJtvO8B9C5jB7vrEQH+1uT/dga7B
FNGJQHPiIL/nIZTB2gjmQC4SKsCB+6fBfwAPQRjhd78hoJDBnyMkQW8Ypb/6O4fBiF27QKznwEDj
Y5vBaQ/eQGKwoEC9PZPBACAaQbkUBj/iG3jBJ+cSQWJKmD8Z54jBcV6YQBIM/EDRf4LBamyUQChO
AkHMrJDBDFcMQR4AC8DtVHTBpyPWQADJ0EADHITBcGylQPMDkkA5cobBJ1wXQXcj4MCi25jBHNYo
QaORssA9RZjBCcAjQbp20cAQbIzBIk4gQUblNUHwFo3BAbkHQTtoNkFmpoXBsPEcQX22JEG/sYHB
Nr30QH865z8cclrBv+8HQcXnLkAf/m7BESTdQFB7U0BGC2XBur2AQC5EEUABL6bB+ahXQOL6uT9U
gJrBE5QCQYwenMC6t5jB//v6QKIDu8CM3ozBWoMDQccfIkGzr5bBCbwYQQluEEELu5LBoBwXQWsn
jsBFnILB5UodQS4nYMDLdY7Bkn8DQZMJBUHC2oLBvKLcQMffFkEmtIbBLuO5QPOaoz/B2nPBJm/u
QCfTMsCLtI/Bi/JPQPylaUAltJDBpn++QGqkR0A5kpvBuaqYQArwtj+7YYrB8eZfQF/SwUB9c4TB
+e1TQNBay0BYNZHByWHIQPriTsBMkH3BVQ9TQChzf0CXOaPB0ffXQJodjz859KjBRMOfQFFw/b7p
uaTBEHPiQDdjn7+p5azBZiWvQEizVD9asKTBY7XxQH4hoT128KzBIWW5QPDOw7/336jBqGLRQHC+
mL/FFoDBClLgQFW5CkABE4vBdfT0QD8xDcAaOY/BB1DEQBUeuEBVtJHB+Gn+QEg4OL/+z47BAc+W
QOFe40CdbYbBgdblQAEoIMBL0oPB0oa7QDCR5kBfYY7B67WdQLWOnkAaUo3B5l1MQBuDUcC8aJXB
7CWdQPKlF0GugKvBOVoLQYdZsD+lpXnB3n+SQGBK+T9g3qDBNa2JQAdQN8Bymo3BKX3FQA9ECkHY
VanBlLmoQAZvgcCdnovBkh7QQN5rCUEWW53B78LpQNbDmT/n3IHBRGrIQJgDcMAYUILBlGyJQOJX
fkAdUZXBqFWpQAAcOUDN55jBtUrkQIpyK752/IXBiJa3QKNSB0B/j4/BeWp7QKjHvkADKYrBODa6
QLmUhr8ig3DBrnn8QEbGOEA4w47BjRjjQEhpnMB/qYDBkwB0QHwRlkCDb57BvpmtQCAL/0Dkf5fB
+XUMQRp3tT4u67DBEKCqQDwJM8CxHanBLGrjQL/BCEBhJ6nBAl6AQPlLN7+rk6HBIUP2QJrGAsA0
9K/B3LnbQDF1G8BPGJXB6vAIQaYSMsDoMZHBZCXGQEtdtUAqd5rBOlviQAuWrEB8I47BvU8QQXUc
Db+API3BYo/1QNnJeb6hbpbBC/eiQIa03UB+lXzBwm2DQG9gAEEpg4bBJ0QBQcO6KsA0zH3BEvvX
QM2l9EBblIrB1iWoQECPjEDuOIbB7fkgQLkQG8DHtpbBQgZpQLPEZMACFJ3BkSgoQLfDg8C/CZLB
o5CWQBTiF0GHJbTB/cWBQJyKEEE/Q6fB2DmiQO0ZKEG5pajBYHMNQelxJj9RnWzBAKsXQWn/mj+G
94LB2+UMQX5zGUBCPXPBXwWIQFw0IkDc1afB5tZsQN8WwT8U5JzB/Z6bQEAtAcBx/5DBSWB2QPvv
I8Av9YXBwy3AQDjB80CdQazBnqHgQOxvEUEXpK3Bsu+VQGAXnsCMm4nB4Si7QORch8Df95LBW5Dt
QF4RAEEnLpzB8/vUQATLGUEZXZrBMuXRQMg1sD/MGHfB3zG1QBgKZcB6I3bB9/dcQB1WXkDETpHB
K9TEQFh2V0Ba4ZzBMFKiQGflvz8RK4zBWCpWQAiPs0B2SoTBkhFXQBYIx0DRaZDBssvRQAQgtcCF
cn/BlPxaQJ6QgkAVW6PBLknWQNdRjD98N6nB+5WbQL215r7Qk6XBpufdQI2Vor+NfK3BrMGsQFzx
WT+mN6XBIu7uQJC/CT0/P63BbBG0QC0Iwb/FwqnBKDLRQLxyf7+/S33BZPvhQLOZDEAgBYzBfV7+
QI2mCcDYkYvBZAvEQFJft0CYvpHB3Zf1QMKEOL+R+Y7BbVuXQNzA4kDpRIbBGWXeQIcPGcB6YYLB
Ol+8QBis5UBSJo7Bcm+dQEcVnkC9S43Bg5p2QLNul8BpXJbBKWyhQNWPGEF8CavB6xwNQfD/vT9Y
xHvBYSmRQBVG/j8gUKHBKDhrQGAMUsDkiZLB96DIQP1WCkFV6ajBDIigQNWzJ8DxuY/B8ezSQFoH
CUGy7JzBZlvsQIF7qT9USILBnky2QHnOTMChiYXBZLyIQBusfUCIQ5XBtLqoQEsdOkBiU5nBb3Dl
QHM5l711NIXBJcO4QNREB0C3O5DBB6B7QEmavkD6FYrBDBy4QD+CP7/4xG7BWYD9QGU+OkBbD5DB
PxDEQEODkcDP3IbBMCtvQGQTlkDwIZ7B/YivQOZd/0DsJ5fBWVcLQbJvij4FD7HBZUijQBMbMMB0
Q6rBlRrjQGlZBkDTLanB5EJ3QCflIr8ipKLBnfDwQOuZBcAlh7DBJ4j4QHVONsDiNpLB98IPQe3R
EMCcwIjBeRrFQBxOtUB8hprBYi3iQD8Oq0B8ZY7BA48JQWuPbr5kwZHB7G7dQPltML+pXpXB8jWj
QPO73EDrPXzBZ2OEQKgzAEHyV4bB/uvuQIk7OsC0nnfBMxXZQPKV8kCCNorBpe6nQJUEjEC3NobB
OKs3QGg5pcB2RpjBUJ+PQKnnl8Cqi53BxoiKQP5hqsBe/4/B9AGbQNkgGUFfr7PBL2+FQCXoEUFZ
3abBYcGnQF7VKEGSFKjBJ00PQfNhUj+s423BXLYYQdvVmz/jJYTBeawPQYHQIUA82XbBWBOHQISM
JUBBPqjBRJJpQPl9yD8DVp3BlVJMQMnoLMCL8JjBgCVCQHPdUcA/ZIvBUhTCQJNF9EBT7qvBg2bk
QAIQEUGNJa3Bm3W2QFBjMMAphpbB9uOaQBf2xb8wcI7B35fvQCsq/kAOxJvBEwHZQGE6GUGR1pnB
hvPVQMzcyz9ysHfBATWfQPrySMCy033BDGBdQFT+W0BwGpHBm2fDQNI7WkAjbp3B7YikQGqhuz+h
1IzBAQFWQHpus0BhP4TBzZVXQJpIx0CZVJDBDVqsQC3YosDS0ojBu6VVQLetgkDVCaPB

>  <OMEGA_E>  (12) 
4qyTP2BjDz9GcRI/

>  <OMEGA_NBR>  (12) 
     34271

$$$$
50197392
     RDKit          3D

 90 93  0  0  1  0  0  0  0  0999 V2000
   12.9265    0.9628  -13.0445 C   0  0  0  0  0  0  0  0  0  0  0  0
   12.5137   -0.1193  -13.8481 C   0  0  0  0  0  0  0  0  0  0  0  0
   12.0059    1.9675  -12.6825 C   0  0  0  0  0  0  0  0  0  0  0  0
   11.1767   -0.2049  -14.2783 C   0  0  0  0  0  0  0  0  0  0  0  0
   10.6681    1.8837  -13.1124 C   0  0  0  0  0  0  0  0  0  0  0  0
    6.7855    1.1555  -21.0239 C   0  0  0  0  0  0  0  0  0  0  0  0
    5.0034   -0.4822  -20.7249 C   0  0  0  0  0  0  0  0  0  0  0  0
    7.1557   -1.1738  -21.6443 C   0  0  0  0  0  0  0  0  0  0  0  0
   10.2484    0.7840  -13.8895 C   0  0  0  0  0  0  0  0  0  0  0  0
    5.4779    0.8372  -20.5866 C   0  0  0  0  0  0  0  0  0  0  0  0
    7.6257    0.1484  -21.5338 C   0  0  0  0  0  0  0  0  0  0  0  0
    5.8386   -1.4845  -21.2590 C   0  0  0  0  0  0  0  0  0  0  0  0
    6.3294   -1.2222  -16.2133 C   0  0  0  0  0  0  0  0  0  0  0  0
    7.6491   -3.8033  -14.9773 C   0  0  0  0  0  0  0  0  0  0  0  0
    6.9792    2.0810  -17.4613 C   0  0  0  0  0  0  0  0  0  0  0  0
    7.8928   -2.2891  -17.7408 C   0  0  0  0  0  0  0  0  0  0  0  0
    6.1151    5.7452  -18.4071 C   0  0  0  0  0  0  0  0  0  0  0  0
    7.8192   -0.7921  -17.9760 C   0  0  0  0  0  0  0  0  0  0  0  0
    4.8332    7.2244  -16.9674 C   0  0  0  0  0  0  0  0  0  0  0  0
    5.9898    7.2127  -17.9726 C   0  0  2  0  0  0  0  0  0  0  0  0
    4.9503    5.0058  -17.7037 C   0  0  2  0  0  0  0  0  0  0  0  0
    6.5940   -2.5655  -16.9540 C   0  0  2  0  0  0  0  0  0  0  0  0
    7.7748   -5.1500  -14.2736 C   0  0  0  0  0  0  0  0  0  0  0  0
    2.9762   -3.0129  -18.5631 C   0  0  0  0  0  0  0  0  0  0  0  0
    5.5601   -4.4404  -18.4143 C   0  0  0  0  0  0  0  0  0  0  0  0
    8.8259    0.6964  -14.3639 C   0  0  0  0  0  0  0  0  0  0  0  0
    4.5360    1.9161  -20.0837 C   0  0  0  0  0  0  0  0  0  0  0  0
    4.0396   -2.5872  -17.5281 C   0  0  0  0  0  0  0  0  0  0  0  0
    8.7023    1.3951  -15.7202 C   0  0  0  0  0  0  0  0  0  0  0  0
    7.3012    1.1402  -16.3043 C   0  0  2  0  0  0  0  0  0  0  0  0
    4.2376    3.9550  -18.5889 C   0  0  2  0  0  0  0  0  0  0  0  0
    5.4722   -2.9356  -17.9978 C   0  0  1  0  0  0  0  0  0  0  0  0
    5.2180    2.8712  -19.0785 C   0  0  1  0  0  0  0  0  0  0  0  0
    7.1788   -0.2588  -16.7677 N   0  0  0  0  0  0  0  0  0  0  0  0
    5.6820    8.0833  -19.1338 N   0  0  0  0  0  0  0  0  0  0  0  0
    6.7231   -3.6910  -16.0063 N   0  0  0  0  0  0  0  0  0  0  0  0
    5.6775    2.0853  -17.9301 N   0  0  0  0  0  0  0  0  0  0  0  0
    4.0003    6.0626  -17.3131 N   0  0  0  0  0  0  0  0  0  0  0  0
    5.6524   -1.0777  -15.2009 O   0  0  0  0  0  0  0  0  0  0  0  0
    8.4463   -2.9107  -14.7144 O   0  0  0  0  0  0  0  0  0  0  0  0
    7.8508    2.7750  -17.9758 O   0  0  0  0  0  0  0  0  0  0  0  0
    3.6454    4.6047  -19.7142 O   0  0  0  0  0  0  0  0  0  0  0  0
    8.8805    0.4551  -21.9303 F   0  0  0  0  0  0  0  0  0  0  0  0
    5.3840   -2.7526  -21.3783 F   0  0  0  0  0  0  0  0  0  0  0  0
   13.9502    1.0224  -12.7054 H   0  0  0  0  0  0  0  0  0  0  0  0
   13.2231   -0.8821  -14.1334 H   0  0  0  0  0  0  0  0  0  0  0  0
   12.3270    2.8010  -12.0755 H   0  0  0  0  0  0  0  0  0  0  0  0
   10.8615   -1.0261  -14.9050 H   0  0  0  0  0  0  0  0  0  0  0  0
    9.9648    2.6595  -12.8479 H   0  0  0  0  0  0  0  0  0  0  0  0
    7.1396    2.1742  -20.9660 H   0  0  0  0  0  0  0  0  0  0  0  0
    3.9964   -0.7266  -20.4208 H   0  0  0  0  0  0  0  0  0  0  0  0
    7.8051   -1.9486  -22.0243 H   0  0  0  0  0  0  0  0  0  0  0  0
    7.9067   -2.8412  -18.6922 H   0  0  0  0  0  0  0  0  0  0  0  0
    8.7809   -2.5558  -17.1491 H   0  0  0  0  0  0  0  0  0  0  0  0
    6.0219    5.6582  -19.4997 H   0  0  0  0  0  0  0  0  0  0  0  0
    7.0826    5.3308  -18.0875 H   0  0  0  0  0  0  0  0  0  0  0  0
    8.8267   -0.3686  -18.1007 H   0  0  0  0  0  0  0  0  0  0  0  0
    7.2144   -0.5682  -18.8671 H   0  0  0  0  0  0  0  0  0  0  0  0
    5.2157    7.1313  -15.9403 H   0  0  0  0  0  0  0  0  0  0  0  0
    4.2531    8.1544  -17.0598 H   0  0  0  0  0  0  0  0  0  0  0  0
    6.9181    7.5378  -17.4801 H   0  0  0  0  0  0  0  0  0  0  0  0
    5.3402    4.5056  -16.8049 H   0  0  0  0  0  0  0  0  0  0  0  0
    8.6275   -5.1232  -13.5792 H   0  0  0  0  0  0  0  0  0  0  0  0
    6.8517   -5.3580  -13.7127 H   0  0  0  0  0  0  0  0  0  0  0  0
    7.9356   -5.9406  -15.0213 H   0  0  0  0  0  0  0  0  0  0  0  0
    1.9754   -2.7479  -18.1915 H   0  0  0  0  0  0  0  0  0  0  0  0
    3.1630   -2.4942  -19.5150 H   0  0  0  0  0  0  0  0  0  0  0  0
    3.0328   -4.1001  -18.7208 H   0  0  0  0  0  0  0  0  0  0  0  0
    4.7664   -4.6672  -19.1413 H   0  0  0  0  0  0  0  0  0  0  0  0
    6.5417   -4.6379  -18.8697 H   0  0  0  0  0  0  0  0  0  0  0  0
    5.4344   -5.0749  -17.5246 H   0  0  0  0  0  0  0  0  0  0  0  0
    8.5371   -0.3600  -14.4669 H   0  0  0  0  0  0  0  0  0  0  0  0
    8.1644    1.1881  -13.6354 H   0  0  0  0  0  0  0  0  0  0  0  0
    4.1801    2.5032  -20.9431 H   0  0  0  0  0  0  0  0  0  0  0  0
    3.6797    1.4348  -19.5885 H   0  0  0  0  0  0  0  0  0  0  0  0
    3.9704   -1.5003  -17.3732 H   0  0  0  0  0  0  0  0  0  0  0  0
    3.8402   -3.1062  -16.5790 H   0  0  0  0  0  0  0  0  0  0  0  0
    8.8540    2.4768  -15.5903 H   0  0  0  0  0  0  0  0  0  0  0  0
    9.4637    0.9980  -16.4076 H   0  0  0  0  0  0  0  0  0  0  0  0
    6.5641    1.3139  -15.5065 H   0  0  0  0  0  0  0  0  0  0  0  0
    3.4572    3.4684  -17.9853 H   0  0  0  0  0  0  0  0  0  0  0  0
    5.6702   -2.3409  -18.9017 H   0  0  0  0  0  0  0  0  0  0  0  0
    6.0737    3.3570  -19.5702 H   0  0  0  0  0  0  0  0  0  0  0  0
    5.6049    9.0324  -18.8283 H   0  0  0  0  0  0  0  0  0  0  0  0
    6.4154    8.0093  -19.8095 H   0  0  0  0  0  0  0  0  0  0  0  0
    6.0791   -4.4481  -16.1166 H   0  0  0  0  0  0  0  0  0  0  0  0
    5.0072    1.5154  -17.4548 H   0  0  0  0  0  0  0  0  0  0  0  0
    3.4588    5.7726  -16.5240 H   0  0  0  0  0  0  0  0  0  0  0  0
    3.3896    6.2832  -18.0736 H   0  0  0  0  0  0  0  0  0  0  0  0
    3.2076    3.9605  -20.2582 H   0  0  0  0  0  0  0  0  0  0  0  0
  1  2  2  0
  1  3  1  0
  2  4  1  0
  3  5  2  0
  4  9  2  0
  5  9  1  0
  6 10  2  0
  6 11  1  0
  7 10  1  0
  7 12  2  0
  8 11  2  0
  8 12  1  0
  9 26  1  0
 10 27  1  0
 11 43  1  0
 12 44  1  0
 13 22  1  0
 13 34  1  0
 13 39  2  0
 14 23  1  0
 14 36  1  0
 14 40  2  0
 15 30  1  0
 15 37  1  0
 15 41  2  0
 16 18  1  0
 16 22  1  0
 17 20  1  0
 17 21  1  0
 18 34  1  0
 19 20  1  0
 19 38  1  0
 20 35  1  0
 21 31  1  0
 21 38  1  0
 22 32  1  0
 22 36  1  1
 24 28  1  0
 25 32  1  0
 26 29  1  0
 27 33  1  0
 28 32  1  0
 29 30  1  0
 30 34  1  0
 31 33  1  0
 31 42  1  0
 33 37  1  0
  1 45  1  0
  2 46  1  0
  3 47  1  0
  4 48  1  0
  5 49  1  0
  6 50  1  0
  7 51  1  0
  8 52  1  0
 16 53  1  0
 16 54  1  0
 17 55  1  0
 17 56  1  0
 18 57  1  0
 18 58  1  0
 19 59  1  0
 19 60  1  0
 20 61  1  1
 21 62  1  1
 23 63  1  0
 23 64  1  0
 23 65  1  0
 24 66  1  0
 24 67  1  0
 24 68  1  0
 25 69  1  0
 25 70  1  0
 25 71  1  0
 26 72  1  0
 26 73  1  0
 27 74  1  0
 27 75  1  0
 28 76  1  0
 28 77  1  0
 29 78  1  0
 29 79  1  0
 30 80  1  1
 31 81  1  1
 32 82  1  6
 33 83  1  6
 35 84  1  0
 35 85  1  0
 36 86  1  0
 37 87  1  0
 38 88  1  0
 38 89  1  0
 42 90  1  0
M  CHG  1  38   1
M  END
>  <OMEGA_C>  (13) 
A9NOQZx6dj8itlDBGzhIQa5g9L3QkV3BDRhAQYvV+z9a60rBm9MyQRLXUb7fc2TBZbAqQfkd8T9l
zFHBkSLZQB3okz/cMKjBAxygQLng9r6wzKXBsfvkQBM/lr+SJ63BlvkjQV62SD9SO17ByUqvQNpV
Vj9ysaTBhQX0QG//Fz4qRazBM9a6QDcEvr9dEqrBEorKQHBynL/htIHBF8X0QEppc8A5o2/B21Xf
QKMvBUDRsIvBa5H8QEWBEsA57Y3BQK/DQNHYt0DIQZPBqTb6QGbHSr/Xzo/B4amaQJEu50BWvYfB
UKy/QMHO5kD7x4/B9mieQDgvoEApoY3BaALTQPIwJMDWoYfB7sr4QLDMpMDVYGTBnno+QPLSQMBO
gZTBX+yxQL0XjsBwUJPB2jYNQeJGMj+w0mXBFSeRQCFD9T9Zq6DBiESBQCWUJcCEOYzBrjwLQTiR
sj/ThXvBV6PpQEbzkT9Ob4LBa5qHQDkffUAAtpTB8RuvQPDgO8B8+4/BCfqmQE3CN0C1oJjBd7jl
QKOEhL5TJIbBkdK1QEBVAUEJEpnBiCPXQMY5bMDnDIDBMa61QDl1BUDmcI/B0QKAQHcAwkAqgYrB
1+C0QM7wib/FNnPB3yMHQbBIOsBDbmvBrzn7QDWaMUCFzo/B+E1pQAFak0DEtp3BuhYOQcAD6T5E
ca/BUkmsQAcqMMDPBqvB3jNfQRvfgj8mSUvBtZFTQT3QYb9VImLBSztFQQpEM0AWNUHB1sgtQVVY
g7+uem7B728fQRA2KkAJkU3BsHfkQJMlC0B3uqfBV8R/QHn/Ob/GXaPBVsP5QIRr+b/YMbDB4gP9
QJnVNcCZiZXBbn4MQTmSI8BcMYnBvrPAQFUQtUBn/5vBEKXiQI6VqkA2s5DBFDoNQXC2vL5EzpDB
eNzmQK92Eb/o75bBC+emQNYz5EBwC3/BCRmIQHt4AkFyeojB1WDdQMU18UA614vBFeOqQLwtkEB6
cIbBGgoKQZXxo8CNRFnB70DbQAR1q8BhZ1vBcfD9QLgZvsBEV3DBKtn8P2DeL8A7iJHB2G1KQDqg
H8C+HpzB7xhCQKAzg8AlxJXBR4aYQFNZlcBwIZnBs1XRQJ1plMA39ZbBYOatQKllosBPMozB2pcI
QfRSuL5feGfBXaECQRMSmD/MKlrBZMOFQPYzIECJi6fB/IBrQGmotz9OtZzBzxp+QLgKwL9V/IrB
5sV1QGPMRsC8oYTB6qkNQZGDHkDNcXnBXGsXQRl8fz/YQoPBJQ3SQFItqD+lGnjBZ0NdQOH6XUDy
4Y/BrHK1QH/QFcCqNpfBDFzCQNLYVkDGj5zBeVuzQKaEEEFhoJbB9krNQOclAEHfeZ7BZYjCQOhW
jsDW7oDBvzqgQLT5wT95o4vBRl1dQBq5uEAZMYTBXO9YQJ0PyUCklpDBCEpNQHh5fUDMEKLBc35O
QXu4gj+YulDB+Vc/QThgAEDsJUvBFWZIQbRrm70WhF3B8QcqQdqG8T8eKVLBOhszQQGmR74clGTB
RPDYQDi2kj+WUKjBE1mfQD798L4O3aXBfQHkQFN3mL//Ka3Bt9cjQVsgRj+Ajl7BzfOuQOo1WD+G
1KTByIHzQCCsAT4XVqzBMry5QH0Yvr9rFKrB7J3KQO7Vnb+krYHB5Ir1QOeHdsAzUXDBAyffQFcU
BUADx4vBqT38QAyPE8A47o3B4m/EQPqYt0BO9JLBa+X5QKwRT79k54/B9ICaQDJ450CP0IfBA7y/
QNDU5kCZxo/BxoOeQMYkoEA0iI3BBrDSQHrXJMAsnofBE1f2QIjxpMAvpmPBmGU9QITXPMC+hJTB
xEqwQEgvjsDxLJPB1jQNQZ+AJz8IWmbBKieRQKzT9z9t3KDBGwSBQAfZIsBTQYzB7BgLQauwsD87
ynvBW1npQATkkD94kYLBy92HQH10fUCnuZTBtJeuQCi7O8Bm9o/BBB6nQMImOEDdvZjBPiHlQB7o
h74UTYbBT8O1QP/RAEGoP5nBOIzWQKn1bMBnCIDB8q+1QODMBEAxpI/BJQeAQDwkwkDujIrB5b+1
QMqMi7+B5XLBe/MGQdBlPMChV2vB+Nr6QH0rM0BnrY/BO9tpQIbbk0ADrZ3BiOQNQUhM1T7eg6/B
pLSqQDjiL8BE/6rBO85eQa/IjT8ZMkvBhRdEQfh3NkDQfkHBJhBUQTQMU78842HB5HEeQW9ZKUAf
D07BfXUuQVRYg7/8lW7BFqHkQLxPCkBS46fBShd+QFzhM7+CaqPBo4b4QEDU/L9kKbDBQa38QIdY
N8AJgpXBv1QMQfxaJMCnLonBuLLCQA0NtEDgspvBjhbjQNO9qkCyDpDB1RMNQWOBxb4E4JDBMrrm
QEmbF78EFJfBY3qmQIXS5EDNIX/B1OmHQGuVAkFnqYjBji/dQFQC8kBW2YvB+kWqQEkCkEDRSIbB
KkEHQRy8osDB5lbBda3WQCuUqsCNflzBoWb+QE6av8BzaW7BFYz7P68IKsA2k5HBjklKQN11HMAY
KpzBdzc/QB1JgcBxtZXB9cSWQLkQlcCR/JjBHZLPQHtilcDUyZbBxb2rQH4cosDaAozBgBsJQa2o
0L7abWjBI0wCQRTxjT9lnFrBiVaGQHz8IUBtwKfBDLdqQCW3uz+s+5zBVWF/QKk9ur92FovBPU90
QDI7Q8DOoYTBwHQNQUhtHUDxWnnBG0QXQYQrgD+ee4PBvNHRQEhCpz8+WXjBZbJdQBb1XUC98o/B
Am61QH2SFsAePZfBpJDCQGZaV0AIopzBr9iyQH8aEEH9/pbB/WXNQLgL/0BDmp7ByrDAQCC7jcCD
oIDB006gQO1Yvj8v/ovBjPZcQO8ZuUDyQITBZmRZQK70yECfsZDBEQ5OQOnKfkD3F6LB

>  <OMEGA_E>  (13) 
cBHWPigH1T4=

>  <OMEGA_NBR>  (13) 
     37397

$$$$
50197393
     RDKit          3D

 90 93  0  0  1  0  0  0  0  0999 V2000
   12.8462    1.0954  -12.9832 C   0  0  0  0  0  0  0  0  0  0  0  0
   12.4526   -0.0219  -13.7474 C   0  0  0  0  0  0  0  0  0  0  0  0
   11.9154    2.1107  -12.6815 C   0  0  0  0  0  0  0  0  0  0  0  0
   11.1254   -0.1298  -14.2016 C   0  0  0  0  0  0  0  0  0  0  0  0
   10.5865    2.0029  -13.1326 C   0  0  0  0  0  0  0  0  0  0  0  0
    6.7715    1.1335  -21.0882 C   0  0  0  0  0  0  0  0  0  0  0  0
    4.9913   -0.5020  -20.7682 C   0  0  0  0  0  0  0  0  0  0  0  0
    7.1548   -1.2068  -21.6544 C   0  0  0  0  0  0  0  0  0  0  0  0
   10.1869    0.8706  -13.8725 C   0  0  0  0  0  0  0  0  0  0  0  0
    5.4596    0.8223  -20.6543 C   0  0  0  0  0  0  0  0  0  0  0  0
    7.6204    0.1182  -21.5671 C   0  0  0  0  0  0  0  0  0  0  0  0
    5.8339   -1.5117  -21.2780 C   0  0  0  0  0  0  0  0  0  0  0  0
    6.3095   -1.2030  -16.2489 C   0  0  0  0  0  0  0  0  0  0  0  0
    7.6763   -3.7760  -15.0027 C   0  0  0  0  0  0  0  0  0  0  0  0
    6.9705    2.0790  -17.5148 C   0  0  0  0  0  0  0  0  0  0  0  0
    7.8911   -2.2857  -17.7493 C   0  0  0  0  0  0  0  0  0  0  0  0
    6.1153    5.8028  -18.5598 C   0  0  0  0  0  0  0  0  0  0  0  0
    7.8198   -0.7907  -17.9962 C   0  0  0  0  0  0  0  0  0  0  0  0
    4.7487    7.2961  -17.3539 C   0  0  0  0  0  0  0  0  0  0  0  0
    5.4589    7.1657  -18.6921 C   0  0  1  0  0  0  0  0  0  0  0  0
    5.0835    4.9694  -17.7503 C   0  0  2  0  0  0  0  0  0  0  0  0
    6.5866   -2.5558  -16.9669 C   0  0  2  0  0  0  0  0  0  0  0  0
    7.7111   -5.0574  -14.1780 C   0  0  0  0  0  0  0  0  0  0  0  0
    2.9907   -3.0508  -18.6104 C   0  0  0  0  0  0  0  0  0  0  0  0
    5.5838   -4.4613  -18.4080 C   0  0  0  0  0  0  0  0  0  0  0  0
    8.7768    0.7597  -14.3744 C   0  0  0  0  0  0  0  0  0  0  0  0
    4.5185    1.9096  -20.1532 C   0  0  0  0  0  0  0  0  0  0  0  0
    4.0380   -2.6093  -17.5655 C   0  0  0  0  0  0  0  0  0  0  0  0
    8.6795    1.4246  -15.7487 C   0  0  0  0  0  0  0  0  0  0  0  0
    7.2882    1.1551  -16.3457 C   0  0  2  0  0  0  0  0  0  0  0  0
    4.2829    3.9495  -18.6084 C   0  0  2  0  0  0  0  0  0  0  0  0
    5.4783   -2.9512  -18.0152 C   0  0  1  0  0  0  0  0  0  0  0  0
    5.2181    2.8441  -19.1432 C   0  0  1  0  0  0  0  0  0  0  0  0
    7.1766   -0.2499  -16.7932 N   0  0  0  0  0  0  0  0  0  0  0  0
    6.4368    8.2439  -18.9416 N   0  0  0  0  0  0  0  0  0  0  0  0
    6.7126   -3.6617  -15.9961 N   0  0  0  0  0  0  0  0  0  0  0  0
    5.6826    2.0376  -18.0148 N   0  0  0  0  0  0  0  0  0  0  0  0
    4.1503    5.9592  -17.1413 N   0  0  0  0  0  0  0  0  0  0  0  0
    5.6146   -1.0459  -15.2506 O   0  0  0  0  0  0  0  0  0  0  0  0
    8.4223   -2.8496  -14.7081 O   0  0  0  0  0  0  0  0  0  0  0  0
    7.8264    2.8129  -18.0003 O   0  0  0  0  0  0  0  0  0  0  0  0
    3.6429    4.6120  -19.6981 O   0  0  0  0  0  0  0  0  0  0  0  0
    8.8783    0.4198  -21.9586 F   0  0  0  0  0  0  0  0  0  0  0  0
    5.3820   -2.7819  -21.3842 F   0  0  0  0  0  0  0  0  0  0  0  0
   13.8630    1.1739  -12.6279 H   0  0  0  0  0  0  0  0  0  0  0  0
   13.1693   -0.7944  -13.9841 H   0  0  0  0  0  0  0  0  0  0  0  0
   12.2220    2.9707  -12.1047 H   0  0  0  0  0  0  0  0  0  0  0  0
   10.8257   -0.9768  -14.8009 H   0  0  0  0  0  0  0  0  0  0  0  0
    9.8748    2.7849  -12.9127 H   0  0  0  0  0  0  0  0  0  0  0  0
    7.1219    2.1544  -21.0515 H   0  0  0  0  0  0  0  0  0  0  0  0
    3.9837   -0.7445  -20.4641 H   0  0  0  0  0  0  0  0  0  0  0  0
    7.8102   -1.9882  -22.0097 H   0  0  0  0  0  0  0  0  0  0  0  0
    7.9100   -2.8449  -18.6964 H   0  0  0  0  0  0  0  0  0  0  0  0
    8.7758   -2.5484  -17.1507 H   0  0  0  0  0  0  0  0  0  0  0  0
    6.2907    5.3548  -19.5490 H   0  0  0  0  0  0  0  0  0  0  0  0
    7.0693    5.8786  -18.0174 H   0  0  0  0  0  0  0  0  0  0  0  0
    8.8280   -0.3688  -18.1210 H   0  0  0  0  0  0  0  0  0  0  0  0
    7.2177   -0.5726  -18.8905 H   0  0  0  0  0  0  0  0  0  0  0  0
    5.4629    7.5378  -16.5529 H   0  0  0  0  0  0  0  0  0  0  0  0
    3.9700    8.0718  -17.3972 H   0  0  0  0  0  0  0  0  0  0  0  0
    4.7140    7.1373  -19.5011 H   0  0  0  0  0  0  0  0  0  0  0  0
    5.6138    4.4242  -16.9555 H   0  0  0  0  0  0  0  0  0  0  0  0
    8.4577   -4.9580  -13.3763 H   0  0  0  0  0  0  0  0  0  0  0  0
    6.7198   -5.2356  -13.7356 H   0  0  0  0  0  0  0  0  0  0  0  0
    7.9805   -5.9037  -14.8269 H   0  0  0  0  0  0  0  0  0  0  0  0
    1.9834   -2.7903  -18.2534 H   0  0  0  0  0  0  0  0  0  0  0  0
    3.1856   -2.5382  -19.5639 H   0  0  0  0  0  0  0  0  0  0  0  0
    3.0570   -4.1387  -18.7586 H   0  0  0  0  0  0  0  0  0  0  0  0
    4.7992   -4.7063  -19.1390 H   0  0  0  0  0  0  0  0  0  0  0  0
    6.5715   -4.6566  -18.8511 H   0  0  0  0  0  0  0  0  0  0  0  0
    5.4553   -5.0835  -17.5100 H   0  0  0  0  0  0  0  0  0  0  0  0
    8.4983   -0.3012  -14.4581 H   0  0  0  0  0  0  0  0  0  0  0  0
    8.0956    1.2633  -13.6727 H   0  0  0  0  0  0  0  0  0  0  0  0
    4.1724    2.5054  -21.0106 H   0  0  0  0  0  0  0  0  0  0  0  0
    3.6549    1.4364  -19.6629 H   0  0  0  0  0  0  0  0  0  0  0  0
    3.9592   -1.5218  -17.4201 H   0  0  0  0  0  0  0  0  0  0  0  0
    3.8306   -3.1223  -16.6148 H   0  0  0  0  0  0  0  0  0  0  0  0
    8.8307    2.5091  -15.6438 H   0  0  0  0  0  0  0  0  0  0  0  0
    9.4513    1.0093  -16.4133 H   0  0  0  0  0  0  0  0  0  0  0  0
    6.5418    1.3333  -15.5575 H   0  0  0  0  0  0  0  0  0  0  0  0
    3.5269    3.4785  -17.9628 H   0  0  0  0  0  0  0  0  0  0  0  0
    5.6800   -2.3685  -18.9260 H   0  0  0  0  0  0  0  0  0  0  0  0
    6.0773    3.3191  -19.6394 H   0  0  0  0  0  0  0  0  0  0  0  0
    5.9573    9.1178  -19.0208 H   0  0  0  0  0  0  0  0  0  0  0  0
    7.0857    8.2875  -18.1820 H   0  0  0  0  0  0  0  0  0  0  0  0
    6.0396   -4.3986  -16.0602 H   0  0  0  0  0  0  0  0  0  0  0  0
    5.0289    1.4190  -17.5789 H   0  0  0  0  0  0  0  0  0  0  0  0
    4.0477    5.7794  -16.1630 H   0  0  0  0  0  0  0  0  0  0  0  0
    3.2558    5.9077  -17.5853 H   0  0  0  0  0  0  0  0  0  0  0  0
    3.1579    3.9784  -20.2136 H   0  0  0  0  0  0  0  0  0  0  0  0
  1  2  2  0
  1  3  1  0
  2  4  1  0
  3  5  2  0
  4  9  2  0
  5  9  1  0
  6 10  2  0
  6 11  1  0
  7 10  1  0
  7 12  2  0
  8 11  2  0
  8 12  1  0
  9 26  1  0
 10 27  1  0
 11 43  1  0
 12 44  1  0
 13 22  1  0
 13 34  1  0
 13 39  2  0
 14 23  1  0
 14 36  1  0
 14 40  2  0
 15 30  1  0
 15 37  1  0
 15 41  2  0
 16 18  1  0
 16 22  1  0
 17 20  1  0
 17 21  1  0
 18 34  1  0
 19 20  1  0
 19 38  1  0
 20 35  1  0
 21 31  1  0
 21 38  1  0
 22 32  1  0
 22 36  1  1
 24 28  1  0
 25 32  1  0
 26 29  1  0
 27 33  1  0
 28 32  1  0
 29 30  1  0
 30 34  1  0
 31 33  1  0
 31 42  1  0
 33 37  1  0
  1 45  1  0
  2 46  1  0
  3 47  1  0
  4 48  1  0
  5 49  1  0
  6 50  1  0
  7 51  1  0
  8 52  1  0
 16 53  1  0
 16 54  1  0
 17 55  1  0
 17 56  1  0
 18 57  1  0
 18 58  1  0
 19 59  1  0
 19 60  1  0
 20 61  1  6
 21 62  1  1
 23 63  1  0
 23 64  1  0
 23 65  1  0
 24 66  1  0
 24 67  1  0
 24 68  1  0
 25 69  1  0
 25 70  1  0
 25 71  1  0
 26 72  1  0
 26 73  1  0
 27 74  1  0
 27 75  1  0
 28 76  1  0
 28 77  1  0
 29 78  1  0
 29 79  1  0
 30 80  1  1
 31 81  1  1
 32 82  1  6
 33 83  1  6
 35 84  1  0
 35 85  1  0
 36 86  1  0
 37 87  1  0
 38 88  1  0
 38 89  1  0
 42 90  1  0
M  CHG  1  38   1
M  END
>  <OMEGA_C>  (14) 
2olNQZo2jD8Vu0/Bxz1HQZCos7yC9VvBf6U+QagVB0CL50rBnQEyQbvtBL7OOWPBWmIpQW4vAED7
HlLBBbDYQMYWkT+3tKjBXbifQM9/AL8/JabBWvTkQEh3mr87PK3BrP0iQWTiXj/m9V3Bw7SuQEKB
Uj8CPKXB7NnzQDIZ8j1ZiazBAa+6QOqAwb9POarBGefJQFr9mb+3/YHBdqT1QMupccAaC3DB/w3f
QBAOBUBEHozB5IP8QHFJEsCe/o3B6rDDQCewuUBxepTBFjz6QGxrSr8g+I/BlvWXQGt56UC81IrB
A6+uQIRN5UCEiZXBMKyiQCIFn0CIAI7BDMXSQPuSI8ApvIfB/MD2QBjWocD/2GLBz2c/QHNAQ8AF
4pTB2q6yQDfDjsCDQ5PBwm0MQX15Qj9f/WXB0ZeQQGBs9D+rOaHBFjeBQAX+JsAahozBJN8KQfBX
tj+G+nvBmTjpQMTakz8HxILBTg2JQKXEfEDt3ZTB/k2vQCHhPMALH5DBvfqmQEUFNkBfJZnBbqbl
QGvmf75xWIbBgvrNQNTmA0F9iJfBTs3WQCBZasAT8H/BiNe1QFBoAkBoHpDBd8+EQCiyvkBuIYnB
jKqzQFnfhb+RAnTBz8EGQeRfNsBnVGvBFnL6QPsFNECIAJDBTyVpQDiVk0CdlZ3Bhw0OQcbp1j4k
q6/BZDmsQDgLMsDKEqvB6s5dQeRClj/RC0rBWrVSQbpfS7/Gvl/Be41DQccfPkCorEHBFDYtQakP
er+p0GzBYf8dQUs8MkBFmk7BwObjQOjhCUB5aajBePV+QDiWPr9ztqPBgO35QDZ8/r/pE7DB+R79
QMUSNsBCkpXBf2kMQW4ZI8CYNInBFU3JQNtaq0BzZJzBtjfiQLQdvECUI5DBcD8NQS3OvL7d95DB
UPfmQDWTEr+5H5fBb9CuQFk18UBwbITBEhV+QB4mAUFhLYvB/9iWQIZk5EAvApzBLqSzQDKTjUDn
pIfBn1IHQZCnnsBXBVbBnAjXQLWJp8AtxVvBVGD/QGzrvMDtOm3B4N/9P52TMsDyBpLBd+FLQFdy
IsDmgpzBOqZDQKJwhMC1EZbBVZOZQBCalsCeHJnB9UnSQAIDlcD/zpbBFJKuQAusosBtFIzB5/gH
QSI1mr5fVGfBuIcBQVK0oT9Jw1rBQYSFQBJYIECwFajBkuppQPnatz+4TZ3BS2N9QPXIwr9OXIvB
Dyh1QGjTR8Ad64TBc0oNQW+UIED+THrBuTgXQRIxgT+BToPBzFbRQCSpqj+P63jBErlhQC6gXkDe
s4/BncK1QJiVF8CMaJfBPXnCQHFrVECDHZ3B7KG+QG7iEUGwKpjBNL7iQIuZBEHDdJHBe0TBQETB
jMBYe4DBw+ygQH2itT+KoYzBCYeBQJHwuEDTTYHBtF5QQBMMvUC9rozBXxpKQKKdfkB2taHBlXhN
Qdq+lD+pr0/BY8Y9QXGnCEAcNUvBBjpIQdSw1zwr+1vBYMAoQT98+z/MxlLB5zwzQcA+Eb6RrGPB
garYQPN+jT8ex6jB0LCeQAIu/74hU6bBuLjjQB7xnr+cRq3BKWsjQWDTUD/Vtl7BI1+uQANSUT8G
aqXBEWPzQL0SmD0RiazBfTW5QJP+wr9sVarBRRjKQJuImr+O74HBak31QFFsdMA/QHDBIGXeQOTJ
BkDK74vBIdH8QDQIEsAP6Y3BfwXEQBvBuUDWy5TBllj6QHh6Sb8D+I/BuXOYQDyO6UCJH4vB07Gu
QPAx5UAv45XBdmGjQPQRn0DVMo7B7fPSQDGDI8B+uYfBBdf1QAGvo8DjbGPBHi0/QNjrQMAGwJTB
XFmyQAkmjsBDXpPBuRUNQe8YJT92D2fBFbuQQNvR9T/1d6HBuIKBQKcgJcDIe4zBIMIKQT8EtT9x
EnzBO8zoQNZFlD/Vv4LBg4iJQH+DfEDB9JTBx3OvQG+9O8AuJpDBtk2nQEO7NUBDUZnBX9fkQO7Y
db4Ve4bBJqDNQFvwA0FlC5jB5IPWQKcSa8BqDIDBSQq2QIvRAEChZZDB56CFQN25vkCQSInBkTi0
QPFCh79LwnPB08EGQUUrOsCBOGvBGnP4QLv1O0A0Eo/Bzf5oQDpVk0ChnJ3B5QQOQSMksz4Yf6/B
2CiqQMdgMsBYIqvBNI1dQaK5pD8kr0nBOuNBQVC1QECt+EHB2k5UQdXINr8Cfl/BbrocQauSLUCK
c0/BLkAvQb8tgL+/WG3BaHTkQAusB0BBdajBH4J8QNYQOb/K8aPBE034QLIzAsAuGbDBNMT9QG8v
NsAndZXBVIIMQRpJIsBHDYnBVHPJQKU5q0AlspzBEa7iQHyAvEAMh5DBpEsNQfTUt75W05DB55/n
QDxGFL+sO5fBMJCvQEid8UB9zITB5MB+QPQcAUFFcYvBoo6WQBzo40DWSJzB2a+0QBbJjUDE3ofB
79gGQZJAocBgilbBKQPWQPk/qcAucVzBNzH+QKt+vsCACW7B9yT+P1WlL8Co0pHBUltLQJtYIMC+
ZpzBP7tCQBNNg8Bf7JXBFzaZQFeSlcD3PZnBCuvRQKSjlMAN6JbB+fatQMoyosAEOIzBYecJQexm
2L7g3WnBFpkBQd6JhD/QR1vBKUyGQIKMIUDEWKjBPlFpQNMluz8XoZ3BtZh+QA7xvr+XVYvBovh1
QBO6RcA424TB4MsMQa1hH0CqDHnBbgUXQWVsiT/kuoPBzTHRQIjfqT9buXjBT1RjQClaXkBhs4/B
5wu2QCQdFsDeZpfBW+HCQNwlVECpP53BoQe+QJnZEUEDsZjBp6fiQNHRBEHYB5LBV47AQKOzjMDc
nYDBabqhQMSbqz/DWI3B8syCQO8suUC+b4HBBaVRQOrTvEAhvIzB7alJQLbzfUAtraHB

>  <OMEGA_E>  (14) 
5CrpPhxV6j4=

>  <OMEGA_NBR>  (14) 
     42093

$$$$
50197398
     RDKit          3D

 69 71  0  0  1  0  0  0  0  0999 V2000
    6.8215    1.1589  -21.1918 C   0  0  0  0  0  0  0  0  0  0  0  0
    5.0922   -0.3647  -20.3804 C   0  0  0  0  0  0  0  0  0  0  0  0
    7.2389   -1.2435  -21.1351 C   0  0  0  0  0  0  0  0  0  0  0  0
    5.5263    0.9449  -20.6752 C   0  0  0  0  0  0  0  0  0  0  0  0
    7.6761    0.0663  -21.4218 C   0  0  0  0  0  0  0  0  0  0  0  0
    5.9517   -1.4569  -20.5988 C   0  0  0  0  0  0  0  0  0  0  0  0
    8.7651    0.2456  -15.0042 C   0  0  0  0  0  0  0  0  0  0  0  0
    6.9949    1.7004  -17.9069 C   0  0  0  0  0  0  0  0  0  0  0  0
    8.3084    2.4313  -14.0612 C   0  0  0  0  0  0  0  0  0  0  0  0
    6.0458    5.8923  -18.3497 C   0  0  0  0  0  0  0  0  0  0  0  0
    7.2469    1.9970  -15.0157 C   0  0  0  0  0  0  0  0  0  0  0  0
    4.3570    7.3351  -17.4387 C   0  0  0  0  0  0  0  0  0  0  0  0
    8.9914    1.1140  -13.7390 C   0  0  2  0  0  0  0  0  0  0  0  0
    5.8535    7.2649  -17.7202 C   0  0  1  0  0  0  0  0  0  0  0  0
    4.9416    5.0190  -17.7109 C   0  0  2  0  0  0  0  0  0  0  0  0
   13.4525   -0.7910  -12.5841 C   0  0  0  0  0  0  0  0  0  0  0  0
    6.1047   -0.4247  -16.7147 C   0  0  0  0  0  0  0  0  0  0  0  0
    4.6454    2.1274  -20.3344 C   0  0  0  0  0  0  0  0  0  0  0  0
   10.4570    1.4133  -13.4277 C   0  0  0  0  0  0  0  0  0  0  0  0
   12.6588    0.5038  -12.7505 C   0  0  0  0  0  0  0  0  0  0  0  0
   11.1944    0.1541  -12.9933 C   0  0  0  0  0  0  0  0  0  0  0  0
    7.3280    0.4607  -17.0575 C   0  0  2  0  0  0  0  0  0  0  0  0
    4.2790    4.0330  -18.7005 C   0  0  2  0  0  0  0  0  0  0  0  0
    5.2803    2.9817  -19.2100 C   0  0  1  0  0  0  0  0  0  0  0  0
    7.9239    0.9799  -15.8342 N   0  0  0  0  0  0  0  0  0  0  0  0
    5.6750    2.0846  -18.1091 N   0  0  0  0  0  0  0  0  0  0  0  0
    3.9071    5.9480  -17.1872 N   0  0  0  0  0  0  0  0  0  0  0  0
    9.1739   -0.8902  -15.2214 O   0  0  0  0  0  0  0  0  0  0  0  0
    7.9080    2.4517  -18.2357 O   0  0  0  0  0  0  0  0  0  0  0  0
    6.5656    7.3581  -16.4933 O   0  0  0  0  0  0  0  0  0  0  0  0
    3.7391    4.7547  -19.8115 O   0  0  0  0  0  0  0  0  0  0  0  0
    8.9223    0.2793  -21.9010 F   0  0  0  0  0  0  0  0  0  0  0  0
    5.5561   -2.7027  -20.2492 F   0  0  0  0  0  0  0  0  0  0  0  0
    7.1567    2.1620  -21.4106 H   0  0  0  0  0  0  0  0  0  0  0  0
    4.0999   -0.5288  -19.9869 H   0  0  0  0  0  0  0  0  0  0  0  0
    7.8900   -2.0837  -21.3263 H   0  0  0  0  0  0  0  0  0  0  0  0
    9.0058    3.1396  -14.5324 H   0  0  0  0  0  0  0  0  0  0  0  0
    7.8743    2.8887  -13.1599 H   0  0  0  0  0  0  0  0  0  0  0  0
    5.9191    5.9433  -19.4412 H   0  0  0  0  0  0  0  0  0  0  0  0
    7.0432    5.4924  -18.1146 H   0  0  0  0  0  0  0  0  0  0  0  0
    6.3885    1.5649  -14.4806 H   0  0  0  0  0  0  0  0  0  0  0  0
    6.9061    2.8391  -15.6360 H   0  0  0  0  0  0  0  0  0  0  0  0
    4.1663    7.9618  -16.5551 H   0  0  0  0  0  0  0  0  0  0  0  0
    3.8271    7.7542  -18.3068 H   0  0  0  0  0  0  0  0  0  0  0  0
    8.5105    0.6391  -12.8711 H   0  0  0  0  0  0  0  0  0  0  0  0
    6.1477    8.0551  -18.4266 H   0  0  0  0  0  0  0  0  0  0  0  0
    5.3787    4.4468  -16.8793 H   0  0  0  0  0  0  0  0  0  0  0  0
   14.5118   -0.5523  -12.4081 H   0  0  0  0  0  0  0  0  0  0  0  0
   13.0568   -1.3559  -11.7271 H   0  0  0  0  0  0  0  0  0  0  0  0
   13.3602   -1.3975  -13.4971 H   0  0  0  0  0  0  0  0  0  0  0  0
    6.4309   -1.2832  -16.1092 H   0  0  0  0  0  0  0  0  0  0  0  0
    5.3715    0.1669  -16.1468 H   0  0  0  0  0  0  0  0  0  0  0  0
    5.6422   -0.7868  -17.6448 H   0  0  0  0  0  0  0  0  0  0  0  0
    4.5162    2.7509  -21.2314 H   0  0  0  0  0  0  0  0  0  0  0  0
    3.6643    1.7609  -19.9982 H   0  0  0  0  0  0  0  0  0  0  0  0
   10.9398    1.8194  -14.3288 H   0  0  0  0  0  0  0  0  0  0  0  0
   10.5076    2.1564  -12.6181 H   0  0  0  0  0  0  0  0  0  0  0  0
   12.7475    1.1118  -11.8381 H   0  0  0  0  0  0  0  0  0  0  0  0
   13.0508    1.0703  -13.6081 H   0  0  0  0  0  0  0  0  0  0  0  0
   10.7482   -0.2349  -12.0662 H   0  0  0  0  0  0  0  0  0  0  0  0
   11.1220   -0.6082  -13.7830 H   0  0  0  0  0  0  0  0  0  0  0  0
    8.0633   -0.1516  -17.5999 H   0  0  0  0  0  0  0  0  0  0  0  0
    3.4695    3.5090  -18.1712 H   0  0  0  0  0  0  0  0  0  0  0  0
    6.1668    3.4954  -19.6103 H   0  0  0  0  0  0  0  0  0  0  0  0
    4.9704    1.7415  -17.4879 H   0  0  0  0  0  0  0  0  0  0  0  0
    3.7895    5.8037  -16.2047 H   0  0  0  0  0  0  0  0  0  0  0  0
    3.0383    5.7844  -17.6546 H   0  0  0  0  0  0  0  0  0  0  0  0
    6.4344    8.2197  -16.1152 H   0  0  0  0  0  0  0  0  0  0  0  0
    3.3328    4.1464  -20.4176 H   0  0  0  0  0  0  0  0  0  0  0  0
  1  4  2  0
  1  5  1  0
  2  4  1  0
  2  6  2  0
  3  5  2  0
  3  6  1  0
  4 18  1  0
  5 32  1  0
  6 33  1  0
  7 13  1  0
  7 25  1  0
  7 28  2  0
  8 22  1  0
  8 26  1  0
  8 29  2  0
  9 11  1  0
  9 13  1  0
 10 14  1  0
 10 15  1  0
 11 25  1  0
 12 14  1  0
 12 27  1  0
 13 19  1  0
 14 30  1  0
 15 23  1  0
 15 27  1  0
 16 20  1  0
 17 22  1  0
 18 24  1  0
 19 21  1  0
 20 21  1  0
 22 25  1  0
 23 24  1  0
 23 31  1  0
 24 26  1  0
  1 34  1  0
  2 35  1  0
  3 36  1  0
  9 37  1  0
  9 38  1  0
 10 39  1  0
 10 40  1  0
 11 41  1  0
 11 42  1  0
 12 43  1  0
 12 44  1  0
 13 45  1  1
 14 46  1  6
 15 47  1  1
 16 48  1  0
 16 49  1  0
 16 50  1  0
 17 51  1  0
 17 52  1  0
 17 53  1  0
 18 54  1  0
 18 55  1  0
 19 56  1  0
 19 57  1  0
 20 58  1  0
 20 59  1  0
 21 60  1  0
 21 61  1  0
 22 62  1  6
 23 63  1  1
 24 64  1  6
 26 65  1  0
 27 66  1  0
 27 67  1  0
 30 68  1  0
 31 69  1  0
M  CHG  1  27   1
M  END
>  <OMEGA_C>  (15) 
+UnaQD5WlD/IiKnBN/OiQOK1ur4CC6PB96TnQDUrn7+yFKnBJdewQA3ocT/AZqXB2aL1QCDhhz3q
X6vBs3S+QNp8ur9oyqTBrj0MQRyLez5WEXDBSdbfQPql2T9gQY/BSu8EQVKaG0C5+mDBOXfBQKWN
vEAizJLBTebnQGqe/z9/QHDBkWyLQAu56kCMgovB0NwPQViXjj/T0lvBNVC7QMN56ED+wo3B3SGe
QL+boEDUr43BiD1XQVV/Sr9mWEnBbVnDQNl12b68t4XBZqeUQIknCEDSrKLB6E8nQQTotD+111bB
fopKQfH7AD8pAkzBUBwzQUjRHT6O5E/BuX7qQA7n6z6sdYjBT+2IQJYOgUCOmpXBD/ioQILUPkAc
rpnBt5D9QPXZej8AWX3BUZm1QMlpBUBm35DBWg56QKVVvkByf4nBVMgSQRLkY7/winPBPQ79QDnp
HECy4pHBTRnSQL5160A+8oPBNk5vQNwmmED4fZ7BisEOQWoDjz5CNa/BS8uxQK34LMBk/qHBigPl
QNJdCkDjSKvBSTKDQPlfB7895Z/Bn3r8QKRbBcApnKrBkBcQQbDvSECVhGjBbfr7QA7hOEAWj1LB
YGm9QHkvvkCBh5vB/2HhQK7Br0C26pDBUW7MQBpNyD+GsGfBmv7cQHq0NUAELXrBCFKFQAfH/kDP
cITBj+50QEoi+EBSdJLBACsIQUaaIz8W8E3B07nEQNPhAEGiaZPBeB6sQOBLjkDNCIfBWjBoQc1l
Db+5h0bBzOhQQcONrb9kojvBYMNVQezfsr9S9FfByMnNQPE+pL+g34DBlOOrQLXqKj69LIHB5Iy0
QK5tSb9+KI3B0oSQQHIOMEDa2anBEIRqQIRk4T85/J/BfgkvQU7h6D+1QmXBQR8oQfUBCkDl40nB
qvVLQcBQjj/0aD3BPtBQQZf+iD/julnBlvgrQR19cL7+DkHBmvMxQSSyG782h1zBVwMBQUBEG76h
zIzBUQxeQFqTYECRXpHBd1bFQJ+0X0DY4ZzBRw2fQGHq3j8654vBeoZyQMO3uUBAo4HBinNCQOcZ
uUCKPI3B9+bNQAaEA0H564DBxkxVQGSvhEAzV6PBcOTZQD4AkT+RrKnB8CqhQFCss74LVaPBomLk
QGJppL8e1anB/muwQPXGcj/ceaXBuNDzQGABiDxG36vBv0S7QLyeu795Z6XBUSIRQeg+Hr523XPB
viXgQDZB4z+fHY7B1LATQcCb/D/pt2HBDI/CQHt1ukBwHpLBdtH/QBIf8T8FHG/BbE2MQAA76kD5
HozB/r8ZQSWmAz8MK1/B7LO8QA4D5kAk74zBYG2dQNCpn0D7cY3Bng9OQbyCPsCtt2PBAJ7CQDx3
O75YB4PBjjSVQB0rCUB1qqLBJSIyQfIv5D5unVvBiQxHQfO5xb/e8GjBZOI5QXLWeL+mS1bBDvzq
QKIk9z6r0ofBoCWJQJ6LgECKjJXBFKCpQM9bPkDsjZnBZaUEQWPOTj/ycH7Blty1QPWvBEBltJDB
Eqt4QJahvkAiyonBnvUSQWjdqr9z5XjB0i39QETUIUDi1pDBeFfOQAQO5kDzb4LBAv1wQGoamEDE
b57BWOMNQeSZST7owa/BhlutQCoELcDew6LBs7jlQGlKCEC/MqvB222BQAew+r4aGaDBchD4QI4b
CcCXqavBBlogQRBtIkCT9WnBWlcQQVI2HEBDJFLBWQPAQIHDvEB+4JrBErbhQJODrECB94/BjOLj
QPdN0D98N2XBfdH5QMBNNUA2fHfBLJyDQFMpAEGzn4XBPNh9QKP89UAWtpPBDHoRQbZ+tD3ENVHB
XS3KQF15/0C3/ZHBJGWpQA9HjUA1kIbBGXhXQQJdWMBDHXHB++dXQW1DPsD7IFXBqtY/QVmxZsCO
J2HB3eDLQH7ei7/UT33BXuCyQFquBD9ZBHvBCmKsQCRc5b5vg4nBSL6RQEnqMUAnyqnBuvJqQOOm
5T9IE6DBijc6QdrqSD/bRmrBuF82QQh5jj9WSE7BjElVQZwga7+xg2vBOzg9QSZsxr9EinfB0edD
QZA2cL9N1kfB2/MrQaxEz78GZVPBpwD6QH9Ja761YI3BxuFdQLLtXkCKg5HBrxTGQKCIX0CaqJzB
FZaeQH3p0z85WYzBQuBuQLxPu0Bu7YHBA9JBQBV8uUDLtI3BRHnKQDu5AEGckn7BVQBYQOjfhEAa
baPBbkTZQOLbjj9DH6nBvd2gQESdBL/tvaXBVSTlQFlInr9KP63BqOavQLG1Tj+4Q6XBtvDzQIjG
vD2EAK3B4Gq7QOOUxL/AwqnBmYXTQDOGib8S/37B3gjhQMQqDEDrjIvBHZMAQWkvCcDmdIzBZSi+
QAimu0DojpTBguP9QAkXKL+YvY7BUYOOQMS550APyorBXRjaQLf8GMCZZIXBJFynQH6Y5kBMPJXB
lX2eQOjCnkAhR47BEnFKQBz6ZsB885bBbToMQYqfzT/uqnnB90ySQDy68j+BWKHBKTKyQKAaK8At
M4zB9FCMQOySkcCVMZbBQPCqQATxhcBcBY3BmEPsQJwmqD8WzoHBdBeIQFUweUDaO5XBc2+oQIqk
NUDtQJnBFKvqQMwVx70P8ITB23m4QNRDA0CGFJDBExt7QKrou0BKvInBGP66QPteZ79d8W/Binn7
QL3APUAjUI/BdGLEQFPHBEEHLpbB2CtmQHiwkEDbE57BGL8NQaAXxz6+q7DB4X2sQF/yMsDfiKrB
d2TkQKjeCED8FqnBYfCAQH7RQL98BaPBocj5QImiAcCMG7DBJWr/QPzVLsA24ZPBk3wPQV6QGMAt
MojBxCjEQNyfrkBImJzB4ancQCfAvkCWPJDBZN4OQfd8Zb4kLpDBu0XpQEBF8L7PtpXBBrSjQK2d
70CIC4TB2apoQG0z/0A+MYvB3ArgQKOfTcCne3/BWsuQQH0m5kAN/ZvBpeOvQNG5jkA2w4fBKmoh
QC0Ue8B2pZ3B88wlQBICasBQco/BxGpgQM/3JMA4TJjBPOAOQflIcD9w72vBrsUYQcvvtz8c24LB
sMwMQfbGKUCNRHTBAoGHQCtRH0CZP6jBQPhsQOgRtz8Vc53BIyOWQGoMDcA5cYjB7ci2QIJsEMAj
Q5TBo8WAQI1wssCs7ZTBjBSeQGvrj8CVx53B2ebJQLG2lcDfbI7BIzydQPBzkcB5cYXB2+fTQAYc
vz+lO3fBXYRgQCRUWEAhOpDBfjHDQBBlVkCtPp3BUtWkQO1Orz815IzBeelwQCj2tEDuB4LBfUNE
QBsTuUBFzI3BicO0QGDLEUFRk5bB4bxKQMkXd0DWU6LBh3/WQLZzgz/kyqjBP3ibQMhy976/gKTB
i1jcQAInrb9J2qzBBQ6tQJyXUD86oaTBQT3uQJCma73AzqzBfgOzQNhryL97n6jBMBjRQL51nr/j
goHBcRnaQCbhDUAbeYnBODn3QDCD1L938pHBcvjDQKQxuUCXT5TBhOcDQRJL4b5ueYzB3FKRQCUV
7EBf+43BpqveQMlCF8BbLYnBQQvBQJFM5kDx9I/BVXGgQIz9oEC1Mo7B9PvZQLUyosAHE3DBj84E
Qa64wT8q03LBk/ORQIiY/T/3FqHBYRi4QO5yR8AaAY7BFjHHQAtuqMARZoPBYZelQFXThcA+aYbB
FVXhQHzPnT/LOoDBIF2JQLutfkD0E5XBvZeoQGcrOEC0wZjBJs/kQHiboL07OIXB0Jq0QMlOBEBQ
Y4/BZiCBQAqzwUAelorBt4+3QMpnqb/QMXTBAQT3QJknPUDoeozBqDPXQAZc6UBoC4bBoMRrQCDA
k0DnGJ7B+Q0LQf1WFz55q7DBSKSiQDknNMBwF6jBkffjQCZgAUDn5KjBUcx3QMeOJb9yPaHBc0Lu
QBGWC8AkH7DBLA3iQFJasr80pZjBrs8IQYNbEsAD6JTB2PK9QOuwuEDy+pzBXJPjQDYvq0CYp5LB
kKESQb51Kb+a/ofBXQoHQTX7uj7LQpLBsuqLQGf3AUEOp4fBXTSBQLhz9kDuXJXBQ6TzQK2wRMAl
+ITBqbDMQCil/UBA3ZXB1bGuQNoRkUB6NIfB3nXxQKqVu8B/x2zBFcvpQP/OgsAfGW/BGwrAQO3D
o8CqNGTBpg0GQULXQj/AC2bB8hsTQVVSuz/wDH3BXpgDQZYCIUBBrWvB+CiKQOzrJUBAJKjBmoBo
QK7Tyz8TiZ3B6dGeQDu6GMB62Y/BonbCQBQgZ8BlbJXBaIjhQCYVp8DuOYnBbse3QBQKyMCzx4PB
442aQKL/a8AUGn7BoFWKQPiBlcCGXYrBmyvFQB3woD9t6HXBq/BgQDKFYEDhIJDByRPFQBCiVUCT
YpzBPjegQPYXrT8LFo3BV6l8QFTLwEDFnoLBnS9JQBMivEAH7o3BXCXVQCvjAkGSZIPBdUhPQAve
fUD3VqLBY7XPQNR7eT9inqnBxa6aQBIPJr++haPB63LaQAxvs79DEa3Bk92oQGXyLz95VKTBo6Do
QMeCi729363Bw2mzQLN72L8x6afBusrTQPSWh7/YjYHB6MrZQM++E0Cdm4nBN77+QF99ur/yTpHB
BGTBQDEWuUDnm5PBbmcHQaWXib6JPovBz/6PQByS6EDcnovBvO3jQHJIC8Aj+4jBKn+rQHLG40Cc
l5XBpLqeQG4tnkAN1Y3BwcbcQECdocAqBXLBU+YFQdn/6T/h5nLB8fyMQLIU6D8sOqDBETe/QDQT
PMCmdI7Bq7XLQMmopMBGmITBlDKrQAvLgMBvVofBXvLjQMjltD8X73/BLJ6HQEsRe0CyK5XBd6+l
QAfrMUC4vJjBUX/qQF1vrT0QYYTB+Gi0QN0jAkB9SI/BbVd9QKk7vUBLs4nBw0W2QA1VkL9eOnbB
rgH0QAIASEDq34zByEHJQKP/AkEwwpbB9mdtQHO5kkDIYJ7BxPoGQcx6XD621rLBCOqlQFksPsCU
EKfB6E7aQEq6/z/PZarBIrh5QNQ8X7/2iZ/Bk3jtQPXoDMCeZbDBGynrQG49k795MpjBlKwMQbuh
BcD4FZTBJNLKQNb8qUBdM5vBsMndQD0mvUBXgo7BDYoVQbdrB7+zbobBsWsLQc+XDj9Js5DBcHSj
QJw480C7yYTBX+RrQMuW/0ATAY3B2fr3QAZAOMDrbYTBhcCWQM1B4UB3rJzBNZqtQOjujEAzH4fB
F5fzQIrFu8DYFm/BxvjsQNawgsDOwW/B3OfBQDE0pMCquWbBJikIQYZrkD9Lg2XB+BcUQfQu5z9i
TX3BMaMDQSMgNkDLnGzBhMSAQOiNGEBUGqfBxvRjQFm6sD/hxJvB0x+mQHrnDcCgpJDB4MTLQM+j
WsA7vJXBu/DmQPJPosDkI4rB0d+7QE3Tw8DSn4XBMw6gQDr1Y8Cftn/BbNOPQDoHj8AGk4vBMxXI
QPgEtD8SLnXBc3daQOKKXkCBkJDBQSHBQOELTUCnFJ3BIUaiQOb2oj9gvozB0i50QKukuEDF3YHB
OsxFQAieuUANko3BDjK6QFn5D0HY+pfB+jpRQL/3fEB+0qLB

>  <OMEGA_E>  (15) 
CJWHP6jLhz/krTo/PO9cP7T8Vz8=

>  <OMEGA_NBR>  (15) 
     47859

$$$$
50197413
     RDKit          3D

 89 92  0  0  1  0  0  0  0  0999 V2000
   12.9326    0.9536  -13.0290 C   0  0  0  0  0  0  0  0  0  0  0  0
   12.4984   -0.1527  -13.7875 C   0  0  0  0  0  0  0  0  0  0  0  0
   12.0360    1.9974  -12.7219 C   0  0  0  0  0  0  0  0  0  0  0  0
   11.1644   -0.2212  -14.2294 C   0  0  0  0  0  0  0  0  0  0  0  0
   10.7004    1.9292  -13.1610 C   0  0  0  0  0  0  0  0  0  0  0  0
    6.8097    1.1289  -21.0533 C   0  0  0  0  0  0  0  0  0  0  0  0
    4.9820   -0.4608  -20.7676 C   0  0  0  0  0  0  0  0  0  0  0  0
    7.1284   -1.2152  -21.6474 C   0  0  0  0  0  0  0  0  0  0  0  0
   10.2596    0.8080  -13.8943 C   0  0  0  0  0  0  0  0  0  0  0  0
    5.4883    0.8459  -20.6345 C   0  0  0  0  0  0  0  0  0  0  0  0
    7.6318    0.0955  -21.5398 C   0  0  0  0  0  0  0  0  0  0  0  0
    5.7983   -1.4888  -21.2781 C   0  0  0  0  0  0  0  0  0  0  0  0
    6.3003   -1.1544  -16.2336 C   0  0  0  0  0  0  0  0  0  0  0  0
    7.5601   -3.7374  -14.9663 C   0  0  0  0  0  0  0  0  0  0  0  0
    7.0288    2.0987  -17.5055 C   0  0  0  0  0  0  0  0  0  0  0  0
    7.8306   -2.2820  -17.7553 C   0  0  0  0  0  0  0  0  0  0  0  0
    6.1124    5.7558  -18.4519 C   0  0  0  0  0  0  0  0  0  0  0  0
    7.8097   -0.7847  -17.9908 C   0  0  0  0  0  0  0  0  0  0  0  0
    4.5100    7.3076  -17.6248 C   0  0  0  0  0  0  0  0  0  0  0  0
    6.0028    7.1525  -17.8745 C   0  0  1  0  0  0  0  0  0  0  0  0
    5.0088    4.9661  -17.7098 C   0  0  2  0  0  0  0  0  0  0  0  0
    6.5272   -2.5125  -16.9590 C   0  0  2  0  0  0  0  0  0  0  0  0
    7.6670   -5.0754  -14.2444 C   0  0  0  0  0  0  0  0  0  0  0  0
    2.8946   -2.9118  -18.5444 C   0  0  0  0  0  0  0  0  0  0  0  0
    5.4665   -4.3729  -18.4137 C   0  0  0  0  0  0  0  0  0  0  0  0
    8.8416    0.7387  -14.3818 C   0  0  0  0  0  0  0  0  0  0  0  0
    4.5702    1.9451  -20.1415 C   0  0  0  0  0  0  0  0  0  0  0  0
    3.9652   -2.5198  -17.5031 C   0  0  0  0  0  0  0  0  0  0  0  0
    8.7461    1.4093  -15.7547 C   0  0  0  0  0  0  0  0  0  0  0  0
    7.3420    1.1731  -16.3368 C   0  0  2  0  0  0  0  0  0  0  0  0
    4.2827    3.9346  -18.5993 C   0  0  2  0  0  0  0  0  0  0  0  0
    5.3916   -2.8690  -17.9909 C   0  0  1  0  0  0  0  0  0  0  0  0
    5.2641    2.8760  -19.1259 C   0  0  1  0  0  0  0  0  0  0  0  0
    7.1937   -0.2288  -16.7806 N   0  0  0  0  0  0  0  0  0  0  0  0
    6.6336   -3.6253  -15.9951 N   0  0  0  0  0  0  0  0  0  0  0  0
    5.7350    2.0747  -17.9940 N   0  0  0  0  0  0  0  0  0  0  0  0
    4.0284    5.9686  -17.2171 N   0  0  0  0  0  0  0  0  0  0  0  0
    5.6238   -0.9787  -15.2258 O   0  0  0  0  0  0  0  0  0  0  0  0
    8.3794   -2.8583  -14.7259 O   0  0  0  0  0  0  0  0  0  0  0  0
    7.8982    2.8004  -18.0128 O   0  0  0  0  0  0  0  0  0  0  0  0
    6.6889    7.2252  -16.6307 O   0  0  0  0  0  0  0  0  0  0  0  0
    3.6548    4.5995  -19.6966 O   0  0  0  0  0  0  0  0  0  0  0  0
    8.9049    0.3627  -21.9055 F   0  0  0  0  0  0  0  0  0  0  0  0
    5.3125   -2.7460  -21.3849 F   0  0  0  0  0  0  0  0  0  0  0  0
   13.9544    1.0015  -12.6825 H   0  0  0  0  0  0  0  0  0  0  0  0
   13.1893   -0.9469  -14.0291 H   0  0  0  0  0  0  0  0  0  0  0  0
   12.3738    2.8490  -12.1499 H   0  0  0  0  0  0  0  0  0  0  0  0
   10.8337   -1.0599  -14.8240 H   0  0  0  0  0  0  0  0  0  0  0  0
   10.0151    2.7333  -12.9370 H   0  0  0  0  0  0  0  0  0  0  0  0
    7.1879    2.1391  -20.9996 H   0  0  0  0  0  0  0  0  0  0  0  0
    3.9642   -0.6758  -20.4773 H   0  0  0  0  0  0  0  0  0  0  0  0
    7.7623   -2.0095  -22.0130 H   0  0  0  0  0  0  0  0  0  0  0  0
    7.8184   -2.8344  -18.7065 H   0  0  0  0  0  0  0  0  0  0  0  0
    8.7125   -2.5802  -17.1694 H   0  0  0  0  0  0  0  0  0  0  0  0
    5.9277    5.7637  -19.5362 H   0  0  0  0  0  0  0  0  0  0  0  0
    7.1048    5.3253  -18.2521 H   0  0  0  0  0  0  0  0  0  0  0  0
    8.8312   -0.3975  -18.1197 H   0  0  0  0  0  0  0  0  0  0  0  0
    7.2099   -0.5397  -18.8797 H   0  0  0  0  0  0  0  0  0  0  0  0
    4.3295    8.0398  -16.8240 H   0  0  0  0  0  0  0  0  0  0  0  0
    4.0000    7.6350  -18.5428 H   0  0  0  0  0  0  0  0  0  0  0  0
    6.3594    7.9043  -18.5940 H   0  0  0  0  0  0  0  0  0  0  0  0
    5.4616    4.4420  -16.8552 H   0  0  0  0  0  0  0  0  0  0  0  0
    8.5288   -5.0562  -13.5612 H   0  0  0  0  0  0  0  0  0  0  0  0
    6.7470   -5.2560  -13.6691 H   0  0  0  0  0  0  0  0  0  0  0  0
    7.8020   -5.8801  -14.9822 H   0  0  0  0  0  0  0  0  0  0  0  0
    1.8972   -2.6486  -18.1625 H   0  0  0  0  0  0  0  0  0  0  0  0
    3.0817   -2.3711  -19.4839 H   0  0  0  0  0  0  0  0  0  0  0  0
    2.9423   -3.9951  -18.7291 H   0  0  0  0  0  0  0  0  0  0  0  0
    4.6636   -4.5926  -19.1328 H   0  0  0  0  0  0  0  0  0  0  0  0
    6.4419   -4.5743  -18.8806 H   0  0  0  0  0  0  0  0  0  0  0  0
    5.3469   -5.0100  -17.5250 H   0  0  0  0  0  0  0  0  0  0  0  0
    8.5323   -0.3137  -14.4644 H   0  0  0  0  0  0  0  0  0  0  0  0
    8.1828    1.2598  -13.6715 H   0  0  0  0  0  0  0  0  0  0  0  0
    4.2413    2.5443  -21.0033 H   0  0  0  0  0  0  0  0  0  0  0  0
    3.6950    1.4852  -19.6593 H   0  0  0  0  0  0  0  0  0  0  0  0
    3.9058   -1.4366  -17.3210 H   0  0  0  0  0  0  0  0  0  0  0  0
    3.7663   -3.0607  -16.5662 H   0  0  0  0  0  0  0  0  0  0  0  0
    8.9237    2.4897  -15.6495 H   0  0  0  0  0  0  0  0  0  0  0  0
    9.5009    0.9775  -16.4283 H   0  0  0  0  0  0  0  0  0  0  0  0
    6.6089    1.3692  -15.5405 H   0  0  0  0  0  0  0  0  0  0  0  0
    3.5223    3.4272  -17.9875 H   0  0  0  0  0  0  0  0  0  0  0  0
    5.5818   -2.2710  -18.8943 H   0  0  0  0  0  0  0  0  0  0  0  0
    6.1113    3.3782  -19.6158 H   0  0  0  0  0  0  0  0  0  0  0  0
    5.9745   -4.3711  -16.0921 H   0  0  0  0  0  0  0  0  0  0  0  0
    5.0774    1.4700  -17.5446 H   0  0  0  0  0  0  0  0  0  0  0  0
    3.9626    5.9192  -16.2205 H   0  0  0  0  0  0  0  0  0  0  0  0
    3.1301    5.7927  -17.6196 H   0  0  0  0  0  0  0  0  0  0  0  0
    6.6138    8.1041  -16.2780 H   0  0  0  0  0  0  0  0  0  0  0  0
    3.2093    3.9612  -20.2413 H   0  0  0  0  0  0  0  0  0  0  0  0
  1  2  2  0
  1  3  1  0
  2  4  1  0
  3  5  2  0
  4  9  2  0
  5  9  1  0
  6 10  2  0
  6 11  1  0
  7 10  1  0
  7 12  2  0
  8 11  2  0
  8 12  1  0
  9 26  1  0
 10 27  1  0
 11 43  1  0
 12 44  1  0
 13 22  1  0
 13 34  1  0
 13 38  2  0
 14 23  1  0
 14 35  1  0
 14 39  2  0
 15 30  1  0
 15 36  1  0
 15 40  2  0
 16 18  1  0
 16 22  1  0
 17 20  1  0
 17 21  1  0
 18 34  1  0
 19 20  1  0
 19 37  1  0
 20 41  1  0
 21 31  1  0
 21 37  1  0
 22 32  1  0
 22 35  1  1
 24 28  1  0
 25 32  1  0
 26 29  1  0
 27 33  1  0
 28 32  1  0
 29 30  1  0
 30 34  1  0
 31 33  1  0
 31 42  1  0
 33 36  1  0
  1 45  1  0
  2 46  1  0
  3 47  1  0
  4 48  1  0
  5 49  1  0
  6 50  1  0
  7 51  1  0
  8 52  1  0
 16 53  1  0
 16 54  1  0
 17 55  1  0
 17 56  1  0
 18 57  1  0
 18 58  1  0
 19 59  1  0
 19 60  1  0
 20 61  1  6
 21 62  1  1
 23 63  1  0
 23 64  1  0
 23 65  1  0
 24 66  1  0
 24 67  1  0
 24 68  1  0
 25 69  1  0
 25 70  1  0
 25 71  1  0
 26 72  1  0
 26 73  1  0
 27 74  1  0
 27 75  1  0
 28 76  1  0
 28 77  1  0
 29 78  1  0
 29 79  1  0
 30 80  1  1
 31 81  1  1
 32 82  1  6
 33 83  1  6
 35 84  1  0
 36 85  1  0
 37 86  1  0
 37 87  1  0
 41 88  1  0
 42 89  1  0
M  CHG  1  37   1
M  END
>  <OMEGA_C>  (16) 
/etOQTccdD/jdlDBpPlHQShRHL6JmVzBSZNAQfGq/z/WjEvBYaEyQWJ4Yr6uq2PB5TQrQUjw9j9n
k1LByOjZQDyBkD8mbajBemyfQKTv674MJKbBnhvkQF2Km7/oLa3BgickQdTaTj/rTl7BW6CvQJ2O
WD9qE6XBlTf0QKORwz12UazBRIu5QNSPvr+SOarB+JvJQJHEk79g3oHBh+zxQAsxb8DpdW/Bu+vg
QNlQBkAyC4zB/5P6QM4MEsDXCo7BA5nDQD0vuEBnnZPBXen5QMDjSL897Y/B21GQQPHX6UCX/4zB
kBbAQHHh5EDs/o7BKkigQIbqnkCdrY3BLN/QQNvMIMAgrIfB9lf1QO1posA46WPBI0E5QNpaOsD/
WpTBVO2uQB7vi8BRT5PBJ3cNQXkbPT/FG2bB1z6SQHf5+D/RIaHBQcZ9QCtEIcBvBozB2+8LQTtj
tD9fE3zBDfLqQBkplj+zsYLB5QuJQHrQe0Boy5TBDIisQOScN8BW7Y/BJXOoQCMROEDxAZnB+jLm
QKI9ar6ZPobBLkbUQE8FaMDb63/BzIS3QHbHBEDK84/BsuiAQIr+vkCkvInBT/azQCyJer/qnHPB
6BEGQYfuNsBZnWvB5738QBA5M0BIGpDBawvWQPI050CuC4XBtedpQCovk0C0kp3Bh3oOQaGyuT5+
Pq/Bmf+pQBa/L8A3FKvBHUVfQVUygD9d60rBRAdTQeFlcr88d2DB7PpFQWZVNkAWZkLB+FYtQQKs
h78NL23Bpj0gQcftLkDr/U7B/QLmQJbnCEA//6fBdrV9QCsBLb980aPBoWT4QEObAMCGGrDBaDD6
QApnNcDWppXBb2YLQY8hJcDmWonBqK+9QBtwuEAlSpzBgFrjQNdoqkBRBJLByUwNQVmLy74z9ZDB
KrfmQAonCr+lCZfBlYuKQC+jAEGOl4bBDACAQE9S9ECgV5TBfIDLQM/v/EBpwJTBdcWuQPMkjkB4
14bBDXYIQaDMocB/+ljBkefXQDgxqMCEtFrBxKn5QAgqvMDvtm/BxdbyPyKDKcC+TJHBAztFQN2/
F8AL35vBJk48QDiwf8BA1ZXBDDyVQH72ksAOEJnBECTOQLVgksCBC5fBrRmrQIVRoMAdM4zBW4QI
QfeboL4XbmfBz+wCQX9BoT+UvlrBariHQEXWIkDbBqjBt3psQOgbvj8sRp3BWPh5QL3it79TkYrB
fAtxQLnhQ8CIh4TBc8cOQcZXH0CEZHrBswMYQYo6ej85bYPBZnzTQKNBrz+4pXjBn21hQOtWW0Bg
5o/B6J2yQGZXEcCgJ5fBDZDDQGQ0WEAs7ZzBuC6/QOTfi8CpvIDBOnqiQB8pvD9LW4zBlZp9QG9q
vUCVw4HB3VJIQINduUAE9YzBcKTTQHiqAUFfOYLBqmRNQMmEfUAg7qHB4TVPQeP2cD9eAlHBLcJA
QRIl+z8TPUvB009IQXZICr7W1l3Bf1MrQY4g8z/bFFLBVeMyQVLbTL4lrGTBsmLaQAgLkz/KUajB
UTigQDLW5r7u9aXBhtPkQJq1mL9CIK3BGE4kQfrMTT+Lb17B7DiwQIblWz+Y6qTBubr0QNNP9j3m
SazBkma6QOKtvL/jGKrBtevJQHGCl7+Nw4HBDCPzQIXocMDkXm/BTM7gQLqnBEAz/YvBmlb7QD3Y
EsAl7Y3By3jEQADhtkDXfpLBIyv6QLgyTL+azI/BI+eQQBxM6kDESo3B5vjAQGeW40CV4I3ByZqe
QCXknkDFQI3Be6vRQB+AIsAWlIfBDfj2QEBpo8Bq+mPBOJE7QGApPcBzaZTBR26wQLD2jMDITJPB
FYANQZH6Oz/t6GXBIKSSQORE+j/nAKHBM3R/QOWdJMAR+4vB57ELQaROtD/0z3vBo5fqQNfLkz+b
k4LBBJSIQC1efEDGtJTBbIatQD7VOcDp3Y/BvWWoQObHOECEzpjBHlrmQFzRf772GYbBAGHVQLvX
acBoyX/BxB63QKalBUCis4/B31F+QL5OwEBqCYrBsq6zQBZtgb9jmHPBan8GQSwjOMCYYWvBpjP9
QLgzLkDzWZDBhfDRQJmj5EAYToPB6IBrQM/xk0AQlJ3B95gOQSb5yj4BZa/BqvqqQBbgLsA2/qrB
jJpfQWroez94lkvB0CFGQRytMkALkkHBCXZTQUiwaL8ga2LBWEogQRAILEAw4k3BrJ0tQTQpgr8g
rG7BvGDmQHY/CkBE36fBPIN/QA7xK7/OlKPBnSr5QGrq/b/eFrDBgTH7QLwmNsAhipXBC9ALQYdb
JcBaOonBqTLBQJdst0CaQZvBwizjQP8DqEDuUpDBBFwNQd+zzL7d15DBxdXmQEvLDr/15ZbBXwWJ
QLl7AUEDVYfBwDiEQEnc80AyJZXBXw7QQPJL+0BPLZPBIEuqQM8TjkBqGIbBvDsJQaKmosBB/1jB
ionZQF2qqcAv2FrB2aj7QLrtvMBa32/B5+f2PwUvLcAHYJHBDKlHQP6GGcBq2ZvBEzg/QFYjgcDD
BZbBA9yWQE4mlMAKE5nBUb3PQAMIk8BUBpfBHL+sQNKBocC2NozBMosIQezWor4dNmfBUhwDQQFj
oD9eYVrBFk6IQDKQI0DB6KfBPRZtQAbmvj/dN53BuhN7QJ8Hv7/cY4rBwaJyQH5DSMA1kITBvUEO
QahxH0BvC3rB7twXQbUkfj/4UoPBG+zSQBLKrD+6gXjBNBJfQJZfW0AcGZDB7nezQNcxE8BGEpfB
xqHDQIIiWUDtpJzB02nAQCbljMAVrIDB6qKhQEYqwj/R7IvBtqx1QKCfv0CoHILBs2BGQPo6u0Ct
tY3B943PQLZmAEG1gYDBBnhQQDKDf0B8JaLBCOtNQbeDjz9ZbVDB6ARIQajTurwSN1zBOrs+QUNO
CEBbNUzBA+AyQYO4KL5on2PBkZApQQVz/j+yjlPBMPfSQOOJjz8eganBy6uaQNJb575Bm6TBQCDc
QNnJoL/jGa3BfI4jQYl9VD9h917Bc7aqQDgTXT/Xx6TBa7rrQGDifz3+iq3BrWGzQNw+wb97xKjB
AO3JQBk0lr/lD4HBANDzQICgdcCCh3DBXALgQCbABkA/jIzB0bb1QO+wE8BrS47BlneQQPHv00BQ
aJDBx0f1QNWDT79yNpDBf+2tQBAGw0COSX/Bb9KnQKur6EDQMYfB84OoQJ9TqUBympHB0izOQB7B
IcDAFYfBjsTzQFeJo8BPGWPBo6kpQLk5OMAFJpDB/qmoQIglicDdE5PBfxENQf3WLz9gK2fBgwiP
QNgEAECX0qDBqN11QAGAKcA+hIjBPEgLQW9yrz+mDH3BaS/pQFw+lj8SFYPBPlSMQEfJhUDBU5bB
pUymQC6PNcDlV47BpDioQMIGPkD5hJnBQvLiQIsoar4jdYbB+BjTQF1jasDISX/BGe+1QONyDUB6
ApDBAlW3QLYRnkA7qYbBAKC4QDMIgL+zunDBzDwHQX/tPcBN8WzBaO78QNLELkB265DBh5PQQATm
90AduIrBT/puQFGYlkBbkZ/B8xoJQUlLoj5ZBbLB5QWkQIRdMcBhlqjBMRteQUDUnD+cnUrBkLdT
QXAsSr8fj1/BPFZDQeiyQEBfV0PBH2IuQUdKhL+O2mzBw/IdQcHhMEDmd1DBMLreQOyiCEAHA6rB
G9J2QLB8Jr81SKHB2mLvQIeYBMAKFbDBi5fyQK4PN8D53JXBap8JQfmFJ8B+MorBxRFdQF2ozkCU
eY7B+fOSQMVc50BGuJfBaf0KQTO/374ngpHBWlvhQPzXEL+yMpfBx8nIQEEFyUCRUHTBh5+QQKA/
vUBr+XXBgVyUQD/2AEHzdoPBbVjEQJo2rkDq2ZbB+tQGQRbzocBSNFfBatfUQGmopsDy1lrBr8H4
QI1lv8AIkG3BOqXaPy4rL8BEwovBLPwsQP83CsDly5bBLFssQEDLecCqVZPBvGOMQAYVj8DUGpjB
Qs3FQE5jjMCs8pfBrXipQKqHoMDDgIzB3RsJQQKhwr4XymjBouMBQZ15lD/V4FvBOc+CQBHSI0CS
wafBMAZoQDinyj+bRpzBwXlyQC7iz79sVoXBwdhxQFiEV8Aw4IHB3YMOQUSNHEDxQHvBywkXQYb3
bT+fCoTBSCDSQDPvsz8yZXnBuIhpQIE6d0DmTZDByBynQJ6HCMDQGpXBTnfEQIVFVUDc5J3BT6y8
QJf9i8CW5H/BzWWfQH+K3j+Mw4vBnMzWQIpCmEDpuYbBxcinQDcjhECNCoTBqiffQDl1AkHm5YTB
15tLQJomgUBFpaLB

>  <OMEGA_E>  (16) 
uOvkPhyh4z5aZR8/

>  <OMEGA_NBR>  (16) 
     52276

$$$$
50197429
     RDKit          3D

 82 85  0  0  1  0  0  0  0  0999 V2000
   12.7694    1.3985  -12.8884 C   0  0  0  0  0  0  0  0  0  0  0  0
   12.5885    0.2533  -13.6907 C   0  0  0  0  0  0  0  0  0  0  0  0
   11.6810    2.2517  -12.6158 C   0  0  0  0  0  0  0  0  0  0  0  0
   11.3167   -0.0445  -14.2142 C   0  0  0  0  0  0  0  0  0  0  0  0
   10.4081    1.9533  -13.1347 C   0  0  0  0  0  0  0  0  0  0  0  0
    6.7562    1.1030  -21.1584 C   0  0  0  0  0  0  0  0  0  0  0  0
    4.9811   -0.4817  -20.6066 C   0  0  0  0  0  0  0  0  0  0  0  0
    7.0629   -1.2751  -21.6001 C   0  0  0  0  0  0  0  0  0  0  0  0
   10.2231    0.7959  -13.9196 C   0  0  0  0  0  0  0  0  0  0  0  0
    5.4684    0.8398  -20.6405 C   0  0  0  0  0  0  0  0  0  0  0  0
    7.5573    0.0445  -21.6230 C   0  0  0  0  0  0  0  0  0  0  0  0
    5.7706   -1.5352  -21.0986 C   0  0  0  0  0  0  0  0  0  0  0  0
    7.7682   -0.8177  -17.9266 C   0  0  0  0  0  0  0  0  0  0  0  0
    7.0264    2.0681  -17.5477 C   0  0  0  0  0  0  0  0  0  0  0  0
    6.2719   -2.4501  -16.9116 C   0  0  0  0  0  0  0  0  0  0  0  0
    6.1572    5.7133  -18.2915 C   0  0  0  0  0  0  0  0  0  0  0  0
    5.9140   -1.0250  -16.5494 C   0  0  0  0  0  0  0  0  0  0  0  0
    4.5341    7.2621  -17.5138 C   0  0  0  0  0  0  0  0  0  0  0  0
    7.2872   -2.2610  -18.0340 C   0  0  2  0  0  0  0  0  0  0  0  0
    6.0378    7.0808  -17.6474 C   0  0  1  0  0  0  0  0  0  0  0  0
    4.9909    4.9176  -17.6627 C   0  0  2  0  0  0  0  0  0  0  0  0
    8.9854   -6.8706  -18.9956 C   0  0  0  0  0  0  0  0  0  0  0  0
    8.8775    0.5117  -14.5191 C   0  0  0  0  0  0  0  0  0  0  0  0
    4.5762    1.9719  -20.1853 C   0  0  0  0  0  0  0  0  0  0  0  0
    8.4795   -3.2067  -17.9138 C   0  0  0  0  0  0  0  0  0  0  0  0
    9.3222   -5.5026  -18.3894 C   0  0  0  0  0  0  0  0  0  0  0  0
    8.7226    1.3496  -15.7932 C   0  0  0  0  0  0  0  0  0  0  0  0
    8.0557   -4.6412  -18.2448 C   0  0  0  0  0  0  0  0  0  0  0  0
    7.3187    1.1313  -16.3788 C   0  0  2  0  0  0  0  0  0  0  0  0
    4.2998    3.9453  -18.6408 C   0  0  2  0  0  0  0  0  0  0  0  0
    5.2806    2.8874  -19.1650 C   0  0  1  0  0  0  0  0  0  0  0  0
    7.1415   -0.2647  -16.8103 N   0  0  0  0  0  0  0  0  0  0  0  0
    5.7323    2.0785  -18.0324 N   0  0  0  0  0  0  0  0  0  0  0  0
    4.0010    5.9203  -17.1889 N   0  0  0  0  0  0  0  0  0  0  0  0
    8.6736   -0.3256  -18.5918 O   0  0  0  0  0  0  0  0  0  0  0  0
    7.9214    2.7157  -18.0826 O   0  0  0  0  0  0  0  0  0  0  0  0
    6.6182    7.0693  -16.3473 O   0  0  0  0  0  0  0  0  0  0  0  0
    3.7457    4.6690  -19.7400 O   0  0  0  0  0  0  0  0  0  0  0  0
    8.8032    0.2959  -22.0840 F   0  0  0  0  0  0  0  0  0  0  0  0
    5.3117   -2.8058  -21.0253 F   0  0  0  0  0  0  0  0  0  0  0  0
   13.7444    1.6226  -12.4817 H   0  0  0  0  0  0  0  0  0  0  0  0
   13.4256   -0.3950  -13.9034 H   0  0  0  0  0  0  0  0  0  0  0  0
   11.8242    3.1336  -12.0091 H   0  0  0  0  0  0  0  0  0  0  0  0
   11.1785   -0.9141  -14.8397 H   0  0  0  0  0  0  0  0  0  0  0  0
    9.5741    2.6090  -12.9326 H   0  0  0  0  0  0  0  0  0  0  0  0
    7.1255    2.1171  -21.1976 H   0  0  0  0  0  0  0  0  0  0  0  0
    4.0005   -0.6853  -20.2024 H   0  0  0  0  0  0  0  0  0  0  0  0
    7.6735   -2.0870  -21.9665 H   0  0  0  0  0  0  0  0  0  0  0  0
    6.7190   -2.9773  -16.0559 H   0  0  0  0  0  0  0  0  0  0  0  0
    5.3893   -3.0044  -17.2633 H   0  0  0  0  0  0  0  0  0  0  0  0
    6.0435    5.7814  -19.3835 H   0  0  0  0  0  0  0  0  0  0  0  0
    7.1249    5.2485  -18.0519 H   0  0  0  0  0  0  0  0  0  0  0  0
    5.0883   -0.6591  -17.1774 H   0  0  0  0  0  0  0  0  0  0  0  0
    5.6286   -0.9523  -15.4896 H   0  0  0  0  0  0  0  0  0  0  0  0
    4.3029    7.9732  -16.7070 H   0  0  0  0  0  0  0  0  0  0  0  0
    4.1056    7.6275  -18.4587 H   0  0  0  0  0  0  0  0  0  0  0  0
    6.7941   -2.4131  -19.0055 H   0  0  0  0  0  0  0  0  0  0  0  0
    6.4711    7.8590  -18.2929 H   0  0  0  0  0  0  0  0  0  0  0  0
    5.3744    4.3453  -16.8052 H   0  0  0  0  0  0  0  0  0  0  0  0
    9.9047   -7.4673  -19.0890 H   0  0  0  0  0  0  0  0  0  0  0  0
    8.2726   -7.3955  -18.3426 H   0  0  0  0  0  0  0  0  0  0  0  0
    8.5368   -6.7304  -19.9901 H   0  0  0  0  0  0  0  0  0  0  0  0
    8.8006   -0.5572  -14.7670 H   0  0  0  0  0  0  0  0  0  0  0  0
    8.0881    0.7794  -13.8013 H   0  0  0  0  0  0  0  0  0  0  0  0
    4.2885    2.5717  -21.0614 H   0  0  0  0  0  0  0  0  0  0  0  0
    3.6745    1.5481  -19.7191 H   0  0  0  0  0  0  0  0  0  0  0  0
    9.2661   -2.8899  -18.6145 H   0  0  0  0  0  0  0  0  0  0  0  0
    8.8685   -3.1713  -16.8855 H   0  0  0  0  0  0  0  0  0  0  0  0
    9.7736   -5.6494  -17.3970 H   0  0  0  0  0  0  0  0  0  0  0  0
   10.0378   -4.9843  -19.0446 H   0  0  0  0  0  0  0  0  0  0  0  0
    8.8581    2.4141  -15.5514 H   0  0  0  0  0  0  0  0  0  0  0  0
    9.4795    1.0417  -16.5295 H   0  0  0  0  0  0  0  0  0  0  0  0
    7.4269   -5.0387  -17.4345 H   0  0  0  0  0  0  0  0  0  0  0  0
    7.4893   -4.6527  -19.1877 H   0  0  0  0  0  0  0  0  0  0  0  0
    6.5884    1.3463  -15.5848 H   0  0  0  0  0  0  0  0  0  0  0  0
    3.4956    3.4281  -18.0969 H   0  0  0  0  0  0  0  0  0  0  0  0
    6.1343    3.3850  -19.6481 H   0  0  0  0  0  0  0  0  0  0  0  0
    5.0594    1.4942  -17.5786 H   0  0  0  0  0  0  0  0  0  0  0  0
    3.8739    5.8337  -16.2008 H   0  0  0  0  0  0  0  0  0  0  0  0
    3.1254    5.7800  -17.6511 H   0  0  0  0  0  0  0  0  0  0  0  0
    6.5365    7.9311  -15.9559 H   0  0  0  0  0  0  0  0  0  0  0  0
    3.3223    4.0635  -20.3371 H   0  0  0  0  0  0  0  0  0  0  0  0
  1  2  2  0
  1  3  1  0
  2  4  1  0
  3  5  2  0
  4  9  2  0
  5  9  1  0
  6 10  2  0
  6 11  1  0
  7 10  1  0
  7 12  2  0
  8 11  2  0
  8 12  1  0
  9 23  1  0
 10 24  1  0
 11 39  1  0
 12 40  1  0
 13 19  1  0
 13 32  1  0
 13 35  2  0
 14 29  1  0
 14 33  1  0
 14 36  2  0
 15 17  1  0
 15 19  1  0
 16 20  1  0
 16 21  1  0
 17 32  1  0
 18 20  1  0
 18 34  1  0
 19 25  1  0
 20 37  1  0
 21 30  1  0
 21 34  1  0
 22 26  1  0
 23 27  1  0
 24 31  1  0
 25 28  1  0
 26 28  1  0
 27 29  1  0
 29 32  1  0
 30 31  1  0
 30 38  1  0
 31 33  1  0
  1 41  1  0
  2 42  1  0
  3 43  1  0
  4 44  1  0
  5 45  1  0
  6 46  1  0
  7 47  1  0
  8 48  1  0
 15 49  1  0
 15 50  1  0
 16 51  1  0
 16 52  1  0
 17 53  1  0
 17 54  1  0
 18 55  1  0
 18 56  1  0
 19 57  1  6
 20 58  1  6
 21 59  1  1
 22 60  1  0
 22 61  1  0
 22 62  1  0
 23 63  1  0
 23 64  1  0
 24 65  1  0
 24 66  1  0
 25 67  1  0
 25 68  1  0
 26 69  1  0
 26 70  1  0
 27 71  1  0
 27 72  1  0
 28 73  1  0
 28 74  1  0
 29 75  1  1
 30 76  1  1
 31 77  1  6
 33 78  1  0
 34 79  1  0
 34 80  1  0
 37 81  1  0
 38 82  1  0
M  CHG  1  34   1
M  END
>  <OMEGA_C>  (17) 
a09MQfAAsz8ON07BcWpJQQa2gT4nDVvBReU6QRIbEEBQ2knBSBE1QeBtNr1jbWPBfocmQWgF+j/T
J1LBjjLYQFQvjT9tRKnBWWWfQCim9r5h2qTBPAPiQNo2o78HzazBzpEjQVHASz/Utl7BH/2uQDcA
Vz+qH6XBP9XxQDAzNj3Y+6zBt6i4QLyBxL8EyqjBCZX4QJJTUb+6aY/BkdjgQPdaBEC4YYzBubPI
QDfOHMD+SofBiAfFQE7TtkAMVZLBkD+9QPgxg79BZYTBZheRQONi6EAzHIzBsDDpQOq0EMCvRZDB
nzXBQDSW4kDdLY3BdLWfQEldnUAyTY3BDMQPQSzc28D+9pfBTQoOQRP/Aj9KTmjBAHCSQGBn/D+H
e6HBDqwHQUI6TcB6T4/ByycVQWcVsMBwHZPBuY8LQYjArD8GsXzB+uMAQV2ElMBF9ZHBsTLqQEzP
kD/cB4PBqpeJQDOAfEBbIJXBT/qoQFnKOEDvUZnBjofkQAyCh756e4bBsW63QDMGBUBJQpDBCwiA
QApzvUDqgonBHMcKQSC4pr4BvJTB5nv9QF/OLUAWqZDB5cfTQLM34kAux4LB4bhvQEholUCB653B
x9kMQWp+lz4IrLDBh/mpQKmRM8DjM6jBROlbQSawzz8MtUfBa89WQdo7yr5odF7BDjA9QUSMSEAs
JUDBPNsyQdoBar81b23BVy8ZQen5JkD+607BEgTkQCx/B0DBlKnBNgSAQDBvL7+WnqHBoo31QC6S
BcB8u6/BbQLXQJ6LPsCVcoDBNXWsQD1IQMBCG4rBF2TBQNgAuUBxEZvBjf/jQBj0p0BMapDBgNOi
QIm5KL9ea4nBiR20QIDLc79j1XfBI7GJQEQk/0D1p4XBrWCDQIMU9EBRq5PBAmnZQOZvGsA2C5jB
FhPPQFJ9+0DRV5LBfPurQI8Mi0ALcYbB1XkeQRP07sBKtpjBaVwEQYun7MCNvZLBrJYIQWFf18DQ
65/BVM8MQQ2nDr+qRWzB3GgBQSeERz9U0lzBvjuJQKCWJEC/fajBQitrQBknxj+swJ3Bx0EUQXrz
OMB66pTBcOUNQZX2SsCAFYfBe2AcQbfHtMAcLYvBvpogQY5/n8BfW5jBzboNQeWAGkBl0njBO6wX
QepUhT9+PITBAKntQDI9ocDIeYvBKajvQKfilMBagJnBN9TSQH5TrD9lW3nBlbhfQChmW0BbxpDB
ZUzEQHGkWEBSL53BAuehQAVBvz8HoYzBSu53QOutukBEm4HBVQZIQN/1uECONY3B4SrRQFDL/UA8
S3/Bxp9UQPYHgkB3sqLBvVFOQaVylT+uvE7BYM1KQWAQcD04N1zBDFU9QeqrAkAVy0nBr0I2QSB5
PL5bnmTBZMAoQYXq5T8gFFLBKjPYQGTukT826anBdRyiQE9WAL9CwaTB9w3kQAZrnb8xbq3BfR8l
QV6dKz/NOl/BZDGwQOQbVj8JQaXBeUHyQPCw2j1P5q3BCuC7QIAOxL945KjBQKD0QLqUNb+MOpDB
GJnfQO4MCkD+JovBElC/QM1IEcA4torB4tfCQDRauUAoRZTBYwrFQJqHmr93GILB0NuXQP+L50AT
tYjBIHzpQIqmDMCPs5DBSPe/QFqq5kBovY/Bb0KhQEhzn0AV/o3BHWFBQRo9acCEXJPBYCQPQfTs
1D6YT2jBHU6TQL3Z+D/7UaHBmFAGQUB7QcDZGovBC8MsQSAac8DhvozB79sLQeMEpj8YGHzBHH0b
QQgZOMC9SpHBdsDpQJmZkT/lZ4LBRGyKQOZzekBt0JTB4t+pQBAFN0BOG5nBGwziQIqtVL4s34bB
xC64QIamAkC+G5DBYzCBQPvpvkDdcorBRaIGQZAV7L37MpbBYon6QGSXPUCrOo7ByvDjQFj270CN
NInBoABqQLeOkUC+ip3BkZMMQVDFyz6rBbLBA66uQChENMDFIajB2QxeQZ16rD/qMEjBjt5XQbvo
Gr8kGWDBWRlAQceMOUCNqD/BnqAzQc/1gr+3LG/BAb8bQZL+HUCXYE7B5sziQNShCkAxaarBLYaD
QFolPL+LMaHBHPD3QH10AcCki7DBKHS6QFr3UMCLKYfBQzikQITnAcCg/Y/Bulm7QP1GuUBS3pzB
awnjQLcIrECeA5PBhBqmQDSzP7+jDYDBf2TTQFmG0r+PuXXB8u2gQHyp6kCCPYDBW0WDQA9LAUHR
/4rBWoflQN6uIcCDCpnBabW8QG/n/UCYTJbBEI6wQAAYkEAAD4fBUdZNQQ7PicDiG5DBACc+QTeV
esBzvJvBEeNGQZByJsCT+JLBkLENQUOfJL+Y2WzBR/YCQRXMKD/sN1zBDD6JQOllI0AWNKjBOfdt
QIdrvz/MhZ3B8nUIQQwXKsDe34LBdZQBQZaigsAZ7IrBhj0nQQPwmsCgIo3Bl/kvQV+9YcDBXoTB
848OQfBXFkCvuXfB71cXQTgTgD+NR4TBBr8YQXSJSMDyvJnBbv4gQazI6r8UtpDBdW3TQPjdpj9d
d3fBErplQKPCWUDWtY/B9y/FQGcZV0AH8pzB/QOkQHJtrD8gVI3B+QpnQIEntUCWo4PBfXFVQJWW
wkAbEpDBR4ThQHAdBkG+eYbBYs5NQEcfeUBXwqHBcVpNQXMkuD89sU7BnWNKQZZZlT7reFvBqv87
QfIsE0DPekrBvQg2QQB9ALsT52PBg50nQX5bAEDl2VLBltPWQHDEjj8a4anBTLihQKHJB79ZTaTB
OYfkQIyUob/qgqzBVI4kQUjJVz+bUF/Bmw6vQHS1Tz/HIaXBqXHxQAA3pj2Kkq3Bv6e8QJu3yL/C
2qfBSxP0QEJ8gb8SOo7Baw3iQDKXBEBhwYzBz52wQFPaAsD754rBCrrEQLGOtkB5B5LBMAG2QMGT
VL9uoIPBg+6QQN/n5kBJJYvB4GDeQM7rGMCou43BBgrBQBol4UDZSYzB9nSfQGExnEBCS43B3ssv
Qbnrk8BFa3vBqOgOQbxADD+W0mjBc++RQFUy9j+0XqHBiXvwQLIFUMAWjYTBEAcYQa2yicApb3jB
L70MQZ0SpT/2M37BLC0QQXDzXsCnyYXBfVjrQOFXkz+AWYPB97+JQITEe0AkY5XBRA6pQIzQN0AU
hZnBD+bfQIAibb7aZYbBCVG4QDauBUCNbZDB5gF/QMGAu0CyRYnBtHQJQa4iNb/yypPBnDv+QNA/
MECr3ZDBxY7TQAt83kDT5oHBNphyQI6ylUB9OZ7ByqcLQSqUwz4rM7LBnlywQKzcNsA+tKbB0/Fc
QTc11D+dHkjB5rxXQe9Iub4CzF7BMFU+Qe3GS0Ah10DBbs4zQW6EX7/N3m3BK1UaQW/JKkByvk/B
wtXgQK87CUBcrarBTseCQAd0Q79d76DBMy35QEOmA8D+Q6/BvPOgQOv1N8DQqIbBcAOeQGss5b9F
GJLBJO7AQFSZukAluJrBh7PjQJ8+p0CAWZDBqh2cQIXf2b3RCoXB2q+1QPEAkr9nXnbBEp+JQBzy
+0DeVITBc12DQD6s9EATgJLBSobgQM18OsAhc5XBVwLPQAcV+0DPGpHBzbOrQAYTiUC1kYbBkos1
QWTFpsBRtm3BqP0xQdtrpsB+HYXBe+84QZDSa8D8dnzBtk4NQeDbCL/9gmvBklECQW/UYj9Yx13B
tSOHQKodIEAHWqjBWh9sQH6vvT/TUZ3BUpvqQNgdL8Cx0nnB+QngQFcih8AAiITBk9wOQTWtp8Dy
ZnfBZs4VQUNVbsDyomnBEnsQQfGrFkC31XvBMfQXQYG3Wz+i8ITBpUwTQZYZgcBSPo3B+ZMYQcgd
IcB2A4bBAufVQCf+uT/PmnnBv7BeQP7XWkDiRZHBbPDDQI0qV0DboZ3B3PaiQG7Fwj+mkIzBpi11
QC75tkDdcoHBHMFHQDj4t0AoNo3B5APRQJRb+UDQz3zBXAlYQAK9gkDBJqPBkNhNQclUwT8p0k/B
/c9KQUBfwT6q51zBJXU8QabOFkA2A0vBwlc2QeC1qD1DBWXBdPonQWT6A0DQGVPBqRDUQPeejj8J
b6rBXgahQIK7Fr96raTB8dTiQLDdnr8d063B9tokQf6faT9V0V/BUw6tQBChRD/1b6XBNw3vQBBo
5D1vg67BOq+7QP9+y78p+qjBxNDzQAPoRL9LE4/BGnLeQAScB0BSLIzBRdPHQP/JGMDZioXBnhvD
QMZOtkAXHpLBgJi8QDuhdL/33oLB7oiRQBzz5EDf54nBLynlQDhRD8CtMo/BStuuQAsd4kBYlpPB
u4aeQKbjmkA7To3BOqsuQRBhjMAog6PBsQcPQfLwGz+1rWjBCkiPQMEU7T9MW6HB1bYFQQBrTMAy
Uo7BXOkjQVTHiMChfpjBlY0LQR8Ttz8jHX3BMDsRQd5wUsBJKJnBIkvpQOmumj8luILBYx+IQJYE
ekARgpXBn3umQOBhM0C2ipnB4OfiQNAzS77g0YXBvqu1QE5MAUAuapDBXgN9QHPFuUBeCInBD6kG
QfDSd76qOZXBzYT5QIDcNkDHI5DB6cDNQAfOAUHZxpPBdiByQBUSlUB6c57BYkQKQeDd5j7uLLPB
ZCqwQBj+OMA8NajBj4ZdQaN+3T/0d0nBLDFYQZPQhr4vs2DBn9k+QUexTkAgIUHBGwg0QRcmR79G
NW/BJawaQTLFLUC1lE/BRi/dQM7ACUAfH6vBA2KDQDcgXL/0zKDBWnT3QGyyAMCdArHBT5DYQLLU
N8Dzr33BwQerQNHYPcAElYfBSLzNQFQnqUDi1ZnBh3jeQB3/t0ASmYzB68agQEDHHr9LjIfBZrG1
QAO/WL9lknTBgeOjQGzc7EBuqYLBeBNxQLM2/UDDKovB40XTQFOBHMB0mJbBgIGbQP5A4kAs8JrB
SHWrQJ9bh0CuvIbBeBk8QWMNo8BwDKPBhPEiQf7hl8BKaanBeKk0QZCLWcCD96XBluANQfAa7b4+
b2zB/sMCQRTGXz/kyVzBWlKDQDrQG0B6MqjB4GBoQEbNsD9LMJ3BXeoQQf05NMCDPojBaQQAQVYo
hsAY+IvBtukdQe5gqMDHCZbBqqEvQW6JesABmJLB3OkNQRrYH0BYkXnBuRgXQWtSjj8nsYTBadkF
QTJ3aMBnR5/Bc14XQXzfEsAAXpvB8RLTQMNDuT+cVXjBIt9ZQOgdW0C5d5HB+bHBQNI+UUAmsZ3B
yVWhQDLnrz87CI3BhhxwQG4Rs0DTYIHBpxVHQF0+uEDYUo3BCbG/QN4mD0EBtZTBzehWQI9qgkD1
ZKPBfeZNQahujj+dMk7BRKlIQYBpo7sW51rB9Ec+QbvCBUC3q0nBg8ozQdTLGL70BWPBIVwpQerj
+D9Dt1HBE+/bQN5OjT/0a6jB8SChQGYH8r4iA6bBN7bmQHsCor8WJazByQskQbxGUD/iJ17BFk6x
QNKlVj+/SKXBk432QMCwWD3a0qvByvK7QKZ2w79BPKnBKIv2QPLgY7/T7o7B4/riQEagCEAEhYzB
m9exQO+V7L91FIzBqy7DQM3duEC5E5TBD3K6QKT3VL+Ja4PBVu6OQL6X6EDq94zBtgDfQCfKDsCn
o4/Bcmu+QPik5UADlY/B32+hQMlfnkDb5o3BtVAAQUv3msDLHWbBo+sNQaSbKj8zUmfBef2TQMom
+j/3m6HBck/2QOKnTMCG84fBY+XVQAM3k8Bm7XHBtfoMQVHWrT83OH3B6r/cQH9Nj8ATKoXBPojs
QKt9mj9SN4PBqB+KQB6ZekAp/JTBPvqpQAHiOECbdZnBLIPiQDbaK74ToobB37G5QHTZBUBDgZDB
HOqBQPc9vUAXf4nBiBoMQe9OHr+IeZPBSYf+QBt7N0CRU5DBanTWQFLT6UBk+4XBjkBpQFZdkkAe
lJ3BwrwPQT+bnj5Fqq7B5f2sQOP0MsCuJ6nBHehdQb1BnD+J60fB+alUQYAgQL8lZ17BgVtCQWjI
PEAKCkDB9tUvQQQqf78M+mzBz2gdQTCNLECYYE7BfxDoQGtaB0CcNKjBkQaAQGc8K7/RFqTB/1L7
QMTVBMBtnq7BmHugQM8ELsCE54jBKoSfQJD3s78ttZLBQoe8QMp9uEDHt5zBwJXjQGVrrECLnZLB
RSOgQDva073r8oLB01C+QIP3qb8OQHfBJ4WJQNHb/0A4gYbBzmp5QMtJ8kC8GJTBTRffQHCxJ8DJ
3pfB92LHQLrE/UDmlZXBU2yxQJVzjUAUTYfBYqH6QNKXncDj0lTBzJ4HQRbKuMBX82vBzToLQf8I
gMA7K2nBtx8KQTVtzb5JM2nBFD0CQRPgkD8od1zBPkSKQLP8IkBPnajB3f1uQJBuwT+92Z3BE1AK
QS4LYMDEtYvBcQz9QLEoKsCod4DBtTXAQFMxrsBZum7Btm3HQHrgasA88mvByNAQQX06G0DxX3vB
a5kYQaYCZD9BD4TBRma9QP4AjsAdJ4nBY5DuQNZvq8A7BIjBLivWQEkavD+kgXnBPWtlQNJ8WEBF
/I/BzZPEQMySWkDrZJ3BABGlQGGyuz+v+4zBJcOBQM+eu0C/gYHBXV1JQNeJtkBTSYzBvTvTQBb/
AkExPYPBX8tMQP5+e0Bv4qHB

>  <OMEGA_E>  (17) 
DBRMP6wlSz/w1Ug/SvBDP44oPD8=

>  <OMEGA_NBR>  (17) 
     61420

$$$$
50197410
     RDKit          3D

 82 85  0  0  1  0  0  0  0  0999 V2000
   12.8665    0.8777  -13.0069 C   0  0  0  0  0  0  0  0  0  0  0  0
   12.4430   -0.2037  -13.8058 C   0  0  0  0  0  0  0  0  0  0  0  0
   11.9666    1.9127  -12.6789 C   0  0  0  0  0  0  0  0  0  0  0  0
   11.1157   -0.2563  -14.2672 C   0  0  0  0  0  0  0  0  0  0  0  0
   10.6374    1.8599  -13.1364 C   0  0  0  0  0  0  0  0  0  0  0  0
    6.7223    1.1660  -21.0897 C   0  0  0  0  0  0  0  0  0  0  0  0
    4.9227   -0.4420  -20.7257 C   0  0  0  0  0  0  0  0  0  0  0  0
    7.0506   -1.1797  -21.6665 C   0  0  0  0  0  0  0  0  0  0  0  0
   10.2087    0.7640  -13.9109 C   0  0  0  0  0  0  0  0  0  0  0  0
    5.4160    0.8754  -20.6314 C   0  0  0  0  0  0  0  0  0  0  0  0
    7.5402    0.1375  -21.5922 C   0  0  0  0  0  0  0  0  0  0  0  0
    5.7371   -1.4647  -21.2505 C   0  0  0  0  0  0  0  0  0  0  0  0
    6.5382   -1.1812  -15.9288 C   0  0  0  0  0  0  0  0  0  0  0  0
    6.9657    2.1164  -17.5149 C   0  0  0  0  0  0  0  0  0  0  0  0
    7.9658   -2.2285  -17.5998 C   0  0  0  0  0  0  0  0  0  0  0  0
    6.1287    5.7463  -18.2841 C   0  0  0  0  0  0  0  0  0  0  0  0
    7.6939   -0.7749  -17.9451 C   0  0  0  0  0  0  0  0  0  0  0  0
    4.8037    7.1828  -16.8571 C   0  0  0  0  0  0  0  0  0  0  0  0
    6.9778   -2.5438  -16.4693 C   0  0  2  0  0  0  0  0  0  0  0  0
    5.9435    7.2137  -17.8747 C   0  0  2  0  0  0  0  0  0  0  0  0
    4.9218    4.9940  -17.6676 C   0  0  2  0  0  0  0  0  0  0  0  0
    4.0950   -4.7867  -18.9972 C   0  0  0  0  0  0  0  0  0  0  0  0
    8.7954    0.6977  -14.3971 C   0  0  0  0  0  0  0  0  0  0  0  0
    4.5014    1.9803  -20.1394 C   0  0  0  0  0  0  0  0  0  0  0  0
    5.7514   -3.3518  -16.9318 C   0  0  0  0  0  0  0  0  0  0  0  0
    3.6964   -3.4009  -18.4573 C   0  0  0  0  0  0  0  0  0  0  0  0
    8.6757    1.4269  -15.7446 C   0  0  0  0  0  0  0  0  0  0  0  0
    4.9200   -2.6001  -17.9960 C   0  0  0  0  0  0  0  0  0  0  0  0
    7.2652    1.2131  -16.3231 C   0  0  2  0  0  0  0  0  0  0  0  0
    4.2265    3.9936  -18.6207 C   0  0  2  0  0  0  0  0  0  0  0  0
    5.2031    2.9164  -19.1304 C   0  0  1  0  0  0  0  0  0  0  0  0
    7.1023   -0.1901  -16.7330 N   0  0  0  0  0  0  0  0  0  0  0  0
    5.6660    2.1177  -17.9925 N   0  0  0  0  0  0  0  0  0  0  0  0
    3.9691    6.0436  -17.2609 N   0  0  0  0  0  0  0  0  0  0  0  0
    5.7918   -1.0042  -14.9732 O   0  0  0  0  0  0  0  0  0  0  0  0
    7.8495    2.7827  -18.0443 O   0  0  0  0  0  0  0  0  0  0  0  0
    5.5667    8.0058  -19.0036 O   0  0  0  0  0  0  0  0  0  0  0  0
    3.6689    4.6942  -19.7322 O   0  0  0  0  0  0  0  0  0  0  0  0
    8.7885    0.4197  -22.0262 F   0  0  0  0  0  0  0  0  0  0  0  0
    5.2607   -2.7252  -21.3467 F   0  0  0  0  0  0  0  0  0  0  0  0
   13.8834    0.9137  -12.6448 H   0  0  0  0  0  0  0  0  0  0  0  0
   13.1367   -0.9905  -14.0631 H   0  0  0  0  0  0  0  0  0  0  0  0
   12.2978    2.7457  -12.0766 H   0  0  0  0  0  0  0  0  0  0  0  0
   10.7916   -1.0751  -14.8924 H   0  0  0  0  0  0  0  0  0  0  0  0
    9.9487    2.6560  -12.8950 H   0  0  0  0  0  0  0  0  0  0  0  0
    7.0926    2.1799  -21.0539 H   0  0  0  0  0  0  0  0  0  0  0  0
    3.9195   -0.6673  -20.3953 H   0  0  0  0  0  0  0  0  0  0  0  0
    7.6824   -1.9709  -22.0424 H   0  0  0  0  0  0  0  0  0  0  0  0
    7.7816   -2.8761  -18.4696 H   0  0  0  0  0  0  0  0  0  0  0  0
    9.0031   -2.3598  -17.2580 H   0  0  0  0  0  0  0  0  0  0  0  0
    6.1246    5.6485  -19.3798 H   0  0  0  0  0  0  0  0  0  0  0  0
    7.0741    5.3511  -17.8842 H   0  0  0  0  0  0  0  0  0  0  0  0
    8.6304   -0.2591  -18.2038 H   0  0  0  0  0  0  0  0  0  0  0  0
    6.9915   -0.7046  -18.7887 H   0  0  0  0  0  0  0  0  0  0  0  0
    5.1962    7.0342  -15.8403 H   0  0  0  0  0  0  0  0  0  0  0  0
    4.2261    8.1183  -16.8940 H   0  0  0  0  0  0  0  0  0  0  0  0
    7.4990   -3.0994  -15.6757 H   0  0  0  0  0  0  0  0  0  0  0  0
    6.8622    7.5924  -17.4029 H   0  0  0  0  0  0  0  0  0  0  0  0
    5.2681    4.4473  -16.7780 H   0  0  0  0  0  0  0  0  0  0  0  0
    3.1933   -5.3294  -19.3173 H   0  0  0  0  0  0  0  0  0  0  0  0
    4.7731   -4.6648  -19.8547 H   0  0  0  0  0  0  0  0  0  0  0  0
    4.6038   -5.3561  -18.2055 H   0  0  0  0  0  0  0  0  0  0  0  0
    8.5014   -0.3547  -14.5237 H   0  0  0  0  0  0  0  0  0  0  0  0
    8.1329    1.1775  -13.6617 H   0  0  0  0  0  0  0  0  0  0  0  0
    4.1696    2.5757  -21.0028 H   0  0  0  0  0  0  0  0  0  0  0  0
    3.6275    1.5247  -19.6506 H   0  0  0  0  0  0  0  0  0  0  0  0
    6.0966   -4.3041  -17.3607 H   0  0  0  0  0  0  0  0  0  0  0  0
    5.1112   -3.5529  -16.0602 H   0  0  0  0  0  0  0  0  0  0  0  0
    3.1837   -2.8417  -19.2538 H   0  0  0  0  0  0  0  0  0  0  0  0
    3.0143   -3.5330  -17.6045 H   0  0  0  0  0  0  0  0  0  0  0  0
    8.8513    2.5026  -15.5957 H   0  0  0  0  0  0  0  0  0  0  0  0
    9.4234    1.0269  -16.4452 H   0  0  0  0  0  0  0  0  0  0  0  0
    4.5768   -1.6470  -17.5673 H   0  0  0  0  0  0  0  0  0  0  0  0
    5.5603   -2.4005  -18.8679 H   0  0  0  0  0  0  0  0  0  0  0  0
    6.5359    1.4385  -15.5310 H   0  0  0  0  0  0  0  0  0  0  0  0
    3.4242    3.4908  -18.0609 H   0  0  0  0  0  0  0  0  0  0  0  0
    6.0558    3.4053  -19.6243 H   0  0  0  0  0  0  0  0  0  0  0  0
    4.9984    1.5344  -17.5298 H   0  0  0  0  0  0  0  0  0  0  0  0
    3.4079    5.7305  -16.4947 H   0  0  0  0  0  0  0  0  0  0  0  0
    3.3771    6.2960  -18.0264 H   0  0  0  0  0  0  0  0  0  0  0  0
    5.4562    8.9099  -18.7339 H   0  0  0  0  0  0  0  0  0  0  0  0
    3.2429    4.0766  -20.3150 H   0  0  0  0  0  0  0  0  0  0  0  0
  1  2  2  0
  1  3  1  0
  2  4  1  0
  3  5  2  0
  4  9  2  0
  5  9  1  0
  6 10  2  0
  6 11  1  0
  7 10  1  0
  7 12  2  0
  8 11  2  0
  8 12  1  0
  9 23  1  0
 10 24  1  0
 11 39  1  0
 12 40  1  0
 13 19  1  0
 13 32  1  0
 13 35  2  0
 14 29  1  0
 14 33  1  0
 14 36  2  0
 15 17  1  0
 15 19  1  0
 16 20  1  0
 16 21  1  0
 17 32  1  0
 18 20  1  0
 18 34  1  0
 19 25  1  0
 20 37  1  0
 21 30  1  0
 21 34  1  0
 22 26  1  0
 23 27  1  0
 24 31  1  0
 25 28  1  0
 26 28  1  0
 27 29  1  0
 29 32  1  0
 30 31  1  0
 30 38  1  0
 31 33  1  0
  1 41  1  0
  2 42  1  0
  3 43  1  0
  4 44  1  0
  5 45  1  0
  6 46  1  0
  7 47  1  0
  8 48  1  0
 15 49  1  0
 15 50  1  0
 16 51  1  0
 16 52  1  0
 17 53  1  0
 17 54  1  0
 18 55  1  0
 18 56  1  0
 19 57  1  1
 20 58  1  1
 21 59  1  1
 22 60  1  0
 22 61  1  0
 22 62  1  0
 23 63  1  0
 23 64  1  0
 24 65  1  0
 24 66  1  0
 25 67  1  0
 25 68  1  0
 26 69  1  0
 26 70  1  0
 27 71  1  0
 27 72  1  0
 28 73  1  0
 28 74  1  0
 29 75  1  1
 30 76  1  1
 31 77  1  6
 33 78  1  0
 34 79  1  0
 34 80  1  0
 37 81  1  0
 38 82  1  0
M  CHG  1  34   1
M  END
>  <OMEGA_C>  (18) 
M91NQaivYD8SHFDBihZHQaygUL6J5FzBK3c/QTbS9D+u3ErB19kxQXE2g75lRmTBxjIqQXwR7j+d
LlLBvBzXQPBAlT+/t6jBFoedQEVP4r4yzqXB2Z7hQBcAl7/1VK3Bq1YjQdCSQz/tkl7BLFCtQEQd
YD8KDaXBR0nxQP7YDD7YvKzBqpa3QGB8u7/4AKrBtjjRQEEwl7+E3H7B1ObeQMxyB0B4HozBE+j+
QAOfDsBQzIzBBR7EQG/ht0DpRZLBwjT2QOBhRr+Yj4/BkbeZQMfZ5UBL24bBUErfQDnOIsAMwYPB
FzG+QLfW5kBi/47BwH+dQIbOn0AwV43BfgqDQKwsmcBb+pfB0LkMQZSZMj+eWmbBIQuQQHJ5/T9u
HaHBOAu4QD+EVsBadIfBiJJsQFuoWcCXqJPBj88KQT+ltj+v6XvBeHCdQHlnJsDp94/BLXzoQFFI
mz/GlYLBTT+HQPSXf0BK95TB7H+mQH2mOkAYC5nBLEbjQPKcQr4n3YXB5E+1QMSIB0Co8I/BggV+
QPJkwUBaForBpla5QMeKgL8ykm/Bdi/7QPMXMkC9WpDBjyKyQJoXAEFuB5jBnM9qQP42lkCQ253B
uZ0MQSfl1j6jNbDB81eoQDJpLsAIxqrBSSJeQcLlaT8TUUrB7y9SQRKRfb9dAmHB1sNEQR+5L0CS
OUHBT6osQeScib88R27Bty0fQfz7KUDVUU7BqPbiQOODC0BPbqjBadl6QG/XKr+DKaPBUdb1QLlF
/L/EVrDB1gL5QKYSOMCuwZPBtQwQQZ0GF8BVEIrBAP3DQOLAtEDKCZvBUF/iQBQ8q0DtEo/BOBYK
QaqnhL5WoZHBjbrfQBFjNL9MT5bBOEemQMcX4UDrcX3BVjyHQIbkAUHpJofB6PfvQMpcRsDIz3rB
F5fbQB318kAzOYvBDpSoQI9QjkBcOYbBDV9MQBaKqsDBiZrBj72YQEFGlcCH1p7Bh1KTQDVlq8DL
pJHBmAUIQa6gtb4eYWjBVyACQcq4lj9CllrBim2FQKLXJECsBajBQiloQAEqwz93NJ3BKRfDQIa7
icCn4orBvo6jQFliY8BEe4DBDMFLQLbeNcDDB5rB++pAQJ0cYsAI1ozB1Z4NQd4pIEDZh3nBNcYW
Qflvgz+2j4PBP3WSQLLP0r/RiYzBPe6xQHqhGcBz8ZbBaibRQBEguD//fnjBuCVbQGJpX0CofJDB
BsnBQPXwWUCJ/pzBNfOfQPpnxD/8PIzBbBtaQEVgt0Al9YPBHCNYQKl4yUD4NZDBHZmuQCePDkEe
35XBfYxPQMtzgkAehaLBBN1NQXpYvj+rVk/B0L1KQaCcrz7xJFzB3I48QTYzFkDh3ErBIkU2QQDM
Rz13SGTBgBEoQdJ7A0CA/1LBforWQIpfkT9H2qnBaZ2iQF1vDL86T6TBLo/lQDJznb9YuqzBKdck
QQ5OZD8vbV/ByQ6vQEZcTT/IEaXBoazxQCCR+T3hrq3BMAW+QJtRyL+iBajB2zr1QLqGeL/orY7B
DTnhQGZXBECzoIzBUb2zQA6mBsBJEIvB3VXEQIa9s0C5J5HB7AG4QPx5ZL/EtIPBICiXQKED4UAF
HobBFbDhQLkdGMDYMo7ByLq+QA704UCbVI3B+aicQDNlm0C+9ozBtx40QVKGj8B6AYDBkQwPQfx/
Fz88mGjBbzORQAwI8j9pNKHBCWP2QEnMTcALPIXBYmccQfnFhsA5q3vB8KoMQczMpz/GJH7BCx4T
Qaw2WcDLFIfBnETrQFwykj//T4PBj/iHQLaqeUB7MpXBVbunQHUhNkBqTJnBYAjhQGCad74HjYbB
s2C3QERTBEC7OpDB6Qd7QHmZvEAm4YnBmr0JQSquHr/IRJTBdA/9QD5jMEBp0pDBhMK3QL2J/UA7
Q5bBh1pwQBqylEB1F57BGJ4LQeg75j4lWrLBOXqyQNMuN8DZ+6bB54hdQV9B2j/N8kjBFg9YQWC5
nb5/tl/BUAI/QcCqTkACNEHBHOozQZ9aUr+QPG7BH9YaQUr7LUCuvE/BO+3fQK/1CkBYkqrB1vyD
QD8LTr8f36DBgpD6QO+RAMDEma/BBMWlQLKIPcDwzIbBqRGgQLAi778ZHZLBlZnFQFt7skCh8ZnB
KtLhQMbcpUAm1I3BxDSdQOSASr4v/oTBjnS4QH00m78+k3bBz4qgQDNm3EDqbXvBKPaEQN78/kDl
44bBUNvjQMzEOMDW+ZXBpuXaQCjo60AsrYjBNv6lQDrHiECE3oXBn+E6QcxVosC6wnLBycM1QYON
ocDlhIfBWsA8QT/vYcAqroDBglkNQc1o/L5A92rBMp0CQebmcT+vfl3B5/CFQBMTHkAXI6jBhFpr
QFSKtj/rK53B52vxQCM7LcB0EHvB7RPnQGOVhsAmBIXB4L8TQXhOpcBcVHrBcbwaQShxacDmpmzB
lyIQQTdmGEARB3zBE/4XQdFTYT8m3ITByMsVQdIje8C9rI7Bme8aQcgwGsBVZIfBupbVQNkNtT8j
dnnBIaxaQC48WEAgPpHBRnPCQEA6VkBgY53BiFKiQMQPvz+vVozBBvRUQIbqsUDJB4TBt2tXQNwf
xUAELZDBPVG0QFsPDUEu0pPBtgRXQBO+gUCWHqPBI2xOQZ5Uij9t707BArFJQaBX6rxvBlzBvlE+
QWgSAUAw6EnBGNk0QQzSUr7lCGTBLXApQUBy6z+Y4FHBJbPbQFimjT/NXqjBG/6hQDY6/b5+aKXB
uHzmQHxRoL94hazBR6UkQaNXNz9Zs17BAcWxQD+fUj9fy6TBaP31QOiWjz24M6zB6F68QMorxL8D
KanB+In2QPMTZ7+SfY/BPCjjQNXAB0AvI4zBtJyzQDio+79P3IvBcs/EQOwYt0CF85HBYJC8QIC/
b78JS4PBf22YQGLS40BEuobB0kfgQPi7EMCrPpDBAc+8QJ3l5UD44Y7BlOKeQKe3nUDwFo3B87H7
QNXMm8BJ5mfBopoOQZ3tCj9R5WfBlk2UQLZG9z8wEKHBMKP6QOJbUMAwhYnBvLLUQPt0lcCFwXbB
ZG8NQVREoj/7en3BSpriQGNtksBRN4fBVyXtQJZ1kj/zMYPBMLiJQNWOekBuyJTB3RyqQLOPOEB3
AZnBBs3iQMoBWr7X/4bBla65QNQtBkAh/o/BHmZ+QFwkvkBY0YnBmOELQSkJGr8AHZTBiYT+QLPR
N0CUy4/BI7+vQLPv/UAbDJjB4GVtQBM2k0CClp3BxQgPQVYWsj6ynK/BBKKtQL6BM8AzNKnBLGpe
QZlemz/3vkjBNBFWQewGPr9t51/BG/9BQRmeN0Bq8z/BBUQxQXoPhr/cQW7BQB4dQY7kI0DrME7B
VJLnQJi3B0AvKajBl4aBQHQ9Nb8T/aLBQ9r6QO1AA8CqVq/BAPCkQNmrN8CJcIjB856eQAlVx789
H5LBGmXFQAZ5s0AItJrBtVXjQK3gq0CAlY7BqlGhQPnsfb4LdILBGNbCQNqotr/0JXfBBDalQKwE
4EDfKn3BK7yEQHN6AEFnHYfBbXfeQEQrJsBenZjBHqLZQFmV80DYKovBh2aqQPdijEDh/YXBgs3w
QEnWncDFMVfBhTAGQTKKucDmQ2zBpdcIQX6KgMCvqWnB4koLQcwjB78/N2rBMbUCQUVIeD8x31zB
Tg2KQDMAIUBKEajBrEpwQKp8vT/pNZ3B/yEMQWx1X8B14Y3BrlMBQW/dMcCU2IHBm8y+QCjAsMCQ
2XTB2xrEQOqAb8BZP3LBPXcRQQsYFUA2R3vBE9AYQQR2Tz+rXoTBhfzFQJv9k8BWU4zBVtP3QPCB
rcA0E4nB+T7XQMsXsD9ZHnnBhq9hQC7wV0CQTpDBprnEQPD8WUBj+JzBA82kQMcpvz+IUozBFN9b
QFuVs0DenoPBTlxXQLA2xUDX54/BLeWqQChtDUFDCpbBio9TQGwZfkAsRaLBvFhPQSK/HD/psVDB
IqVIQcxEyr7K+l7Bp+JAQSsVzj+x/EnB2mgzQaQX0746ZmbB9qkrQSN3zD83dFHB3fXaQNetpz9F
pKnB1fmmQKg96r4dDqbBTKPrQMsIf794Uq7BXeMkQWLwEj+vYF/BjeayQK5EZz8Ef6XBOlX3QHCA
uD5L8K3BnlnDQC+Is79ggqrBgPjKQNwHer+9u3/BfZHiQMiMC0AOCYzBkQHqQP5JDcBzgI7BbOLE
QBU0t0BxbpHBEYD1QNc5Pr/8dI/By/uVQHNr5UBciIfB7kfFQBqgDsCnYobB2NC4QGdH5kDyFpDB
0HCeQGRlnUA55YzBpBuRQAVZu8Bh+JTBm3AOQXI8ED81jWfB06WTQPEW9z+vI6HB9f2XQCHXCsCD
bIvBXU+dQC1flsDRqY3BlxQNQYOasT9IWHzBEOuNQGTXV8D9mZLBkoHsQCHzoz8QkYLBb06JQIJA
fEB38JTB31KpQAwWOUCUF5nBberjQGCmyr3Py4XBTzO5QIZQB0DIBpDB1758QBtavUD0aInBC6y3
QOthOb+nJ2/BAiL+QGAbOUDwEpDBX3eoQDsr90Bu6JnBH0dwQCNmlUAkxZ3BqbUOQSCpQT9y9LHB
AMi3QA+zLMBiZ6vBRZ1fQceuHj9l3krBLs1TQTd5k7/XNmTBQBtGQWeNGEBKHj/BwjwuQZvGlr88
b3HB0pwgQT+YF0BriUzBrsjjQPGoFkBTganBsCiIQCEiRr8JE6PBdMwAQZX63L+ji7HB9X3fQHED
J8CSQpbBrrYCQbmkMsDXj4vBl9fJQL+Wr0Dk7pnBiDTiQC3mr0Dt6ozBfTkMQcghHr/6w4/BlRHn
QBionr5YspbBvESkQBKA5UDU+n7BEp2AQCOXAEEnY4jBG/HHQASHR8AlP4HBK5PUQEKq+EAMPI3B
CIWpQIz6ikAh7YXBFB+cQGmj2cDGbpHBSUFcQDw5vMBC7ZXB9j6gQNrptsBR1pzBP4UJQWEq8r4B
zmrBO8EDQXdPgD9HdVvBo8KGQEUnIUA22KfBfKxyQCvesz8bE53Blj6AQAqkCMAe74TBQ5aVQDl2
oL8GQ5DBMiyOQGHSmsABzIXBhErAQP+ClcAPtYzBJ+YQQUstHEB29XjBz3sYQUvBfT8SFITBGDJW
QM5HW8AQ0ZPBveOdQBnQTsClXJrBUWjWQJb2xT9EHHjByb1eQAJjWkAuwpDBNP3DQMT8WUBUGp3B
UsOkQEaXvj9ecIzBTzVgQK+vs0BZq4LBEahQQGyYwUBtHI/BsBuhQGU1CkFC9JjBEHtWQOwOgkDV
qqLBOI5LQS8cxj9FeE7Bn0pJQdrLyT5KPVvB+LQ5QaKQF0DIQkrB+yI1QYA4Xj02r2PBGYglQWq6
AUCinFLBUVXXQCWPjT93o6nB0sOfQFnJ+751laTBpEXiQEPYo7+QnqzBNjEjQQocXD8fE1/BDn2u
QD5NVj8JS6XBuF3xQBAHPT0WLq3BXGG5QBvzxb//WajBUkf5QB6mUb/Iy4/BD0PfQFx2A0B/f4zB
3AzQQMbXIsAbv4bBtvvCQHfqtkA6uJLBRoHAQPjQkr9tKYTBDqGUQEJJ6EAPwonBK2LtQNgTFMCo
UZDBC7zDQJcI4EApTYzBcjCeQLGpnUDlkI3Bvos1QZv4hMDWAaXBSc0NQfztBj9GomjBvp6RQBnp
+z8RwaHBKacKQXxeTcCrvo/BsSAqQaRThMDAGZrBG8MKQRlArz8j4XzB4jEWQbZaT8AaqZrBSfTo
QOq1jT+wNoPBBgiIQOKze0BJPZXBfqOnQHhEOEDAd5nBqxflQEAolr4iyIbBHfG1QJ7gA0DWbZDB
ZMJ9QDIbvkBL44nBhPoJQaRaeb7FUJXBwsP7QJzDLUCptJDBforVQN02AUFFU5LByPdqQMFqlECe
Bp7Bpn0MQdhBmj5sBbHB1D2rQCqGNMDHf6fBDQFbQeLV5j+I5UfB2gRXQZcKar44il7B0YQ7QZCB
UEBdokDBMWozQQEfUr9Mqm3By9oXQSYVKkDofE/BD5PiQFr2B0AHPqrBzcWAQJctM79rJKHBaAX2
QIvmBcBHda/BicbhQNWIPsBl9H/BvDK1QHsWTcCX3YjB+m68QBJXvUAqN5vBeHfhQHuSpUBC+JHB
+oykQH9gYr9TFInBxCO4QNqnh7/uSHfB44ORQPQh90Aw0YHBioWGQNB9/UAU1Y/BbOHbQO4QIcCC
x5fBaY7VQD8H20AI0YTBqKyqQMDfi0DCpIbBdclDQQGQmcAPhaTB+5cqQWWKkcAjI6vBkmo6Qf6G
SMDKKafBBToNQZy7Cr87vmzB9QwBQRX1QT/LE13Bh+mIQM6HJEBHyajBIARpQA15xT/LKZ7BXqEV
QV4ONMAgo4nBps8FQTFhh8Ckj43BN0wlQXQSpcAx9ZfBzh41QRuXb8DY+5PBPkMMQYTdG0Bm0njB
vxQXQRKejD8YV4TBUjULQRyYaMDMxKDBiQwbQaX3DcDF1pzB4yPRQEMRpT+vzHnBFoxdQLxSWkDj
v5DBVAvDQFqZWEA+O53B9mqgQPD6uz+O4IzBkFhpQErJtkClh4LBn99LQGL+vkD+5I7BCZXVQMHZ
DUH3GY7B1ttPQGargEDAtKLBOA9MQRaJoT/LFE3BODhJQYDaGz6Is1rBZrM6QcFTB0DYdUjBPfk0
QcDe5L32lmPBhHAmQUjl7D+GTFHBkJjZQBLSjj8iKKnBdW2gQMzW5r7+oKTBTdHiQL5lor8wiazB
KoYjQYTmOT+qmV7Bo0uwQKwQXj9mAKXBhP7yQCCTPT1Cy6zB1me5QKzWwb/xgKjBcAf6QA2XYr/b
L4/Beb/iQBHHAkDPrIzBph3EQHSWGcA5+YfB/r3FQAYXuUAz0JHBMmK7QOgpdL85R4XBDimYQLTm
5EDzvobBcjboQFsvE8AfJZDBflS6QGDX50Dsc4/BULGgQN5HnkDJ/IzBuMYJQcwp4MCGuZbB6xYO
QdDs8D6JjGjBsfOTQCurAEALa6HBXaYFQf/aVMCYE47BLBgQQdTBtsDy75DBIysMQYLGpz/O+HzB
9l36QO9el8DwpJDB6I7rQMBLjj9mSIPBz/GKQOeofkA185TBAnGqQPgoO0BmOZnBs8rkQMzOkL4y
oYbBZui4QHo6B0CsM5DB1JSAQLpFvUAHEonBdl0MQQx+5r7RNpTBHL//QEbtKUAJI5HBXEqpQO4g
/EBNyJjBDEZyQPa+lkAprZ3B7HENQeC5kD7Th7DBRnKqQMEBMsCLz6fB8JNbQdzSuj8pK0bBiJNW
QUhd/b4cT17BDfU8QSEJPkCpJD7Bds0yQb0OdL8GM27BSiYZQel9IECa6E3BgKvlQBUaCECBiqnB
WwmBQP3gJL+iXKHB/yD2QFKnBcDnbK/BvVrOQJt+PcCi2YDBYq+nQNROOMB6dovBjQPIQHO+s0Ad
fprBhVLkQCySsEDPAo7B7WijQIrAB79bworBPAawQHhnW79W+HnBjhOnQDg640Bzkn3BUKKCQJBb
AEEnGofBESfbQLGjHMAhO5jBUJfWQDbp+EDBZozBqUCtQFOdi0A3OIbBsYAXQU8w9sAD2pbB8qn4
QJxS78C/fpLBF/UEQYir2MCA+p7BtJQMQZq7GL+PimzB+l0BQSP8QD+JQ13BQh6LQCUTJ0BydKjB
g8BtQDcwzD8XvJ3B5oUTQb2+RsBGMpPByH8KQUD1UcD6n4XBnfEUQapsvsCtsojBu5EdQZbFp8Bu
LpXBHZAOQdjiF0D+F3nB71kYQbFPfT8wS4TBkYDjQAFYocB+b4rB6EnqQLYRl8DmeJjBOivUQPB4
rD8j93nB8HJiQDv5XEApqpDBE7TFQGtVW0C/Ep3BkACjQPD7yD8PT4zBMgdlQE07skCob4LBzMJU
QHyPwkCfrY7BEWeiQHmEDEHKLZfB2K9XQFN9g0A4h6LB

>  <OMEGA_E>  (18) 
yBzsPrQlMj+4HiM/4BgMP1YCSD/m5jk/

>  <OMEGA_NBR>  (18) 
     69254

$$$$
50197431
     RDKit          3D

 83 86  0  0  1  0  0  0  0  0999 V2000
   13.0531    0.8315  -13.1619 C   0  0  0  0  0  0  0  0  0  0  0  0
   12.5962   -0.2737  -13.9082 C   0  0  0  0  0  0  0  0  0  0  0  0
   12.1749    1.8910  -12.8550 C   0  0  0  0  0  0  0  0  0  0  0  0
   11.2572   -0.3253  -14.3371 C   0  0  0  0  0  0  0  0  0  0  0  0
   10.8338    1.8380  -13.2773 C   0  0  0  0  0  0  0  0  0  0  0  0
    6.7425    1.3008  -21.2735 C   0  0  0  0  0  0  0  0  0  0  0  0
    5.2012   -0.4868  -20.6503 C   0  0  0  0  0  0  0  0  0  0  0  0
    7.3061   -1.0154  -21.7651 C   0  0  0  0  0  0  0  0  0  0  0  0
   10.3707    0.7201  -13.9999 C   0  0  0  0  0  0  0  0  0  0  0  0
    5.5353    0.8805  -20.6753 C   0  0  0  0  0  0  0  0  0  0  0  0
    7.6344    0.3534  -21.7986 C   0  0  0  0  0  0  0  0  0  0  0  0
    6.0809   -1.4323  -21.2083 C   0  0  0  0  0  0  0  0  0  0  0  0
    6.4135   -1.0114  -15.8827 C   0  0  0  0  0  0  0  0  0  0  0  0
    7.0294    2.1607  -17.5009 C   0  0  0  0  0  0  0  0  0  0  0  0
    7.2807   -2.1062  -17.8746 C   0  0  0  0  0  0  0  0  0  0  0  0
    6.0819    5.6793  -18.1557 C   0  0  0  0  0  0  0  0  0  0  0  0
    7.9761   -0.8042  -17.6004 C   0  0  0  0  0  0  0  0  0  0  0  0
    4.4276    7.2012  -17.4035 C   0  0  0  0  0  0  0  0  0  0  0  0
    6.4306   -2.3547  -16.6264 C   0  0  2  0  0  0  0  0  0  0  0  0
    5.9332    6.9926  -17.4153 C   0  0  1  0  0  0  0  0  0  0  0  0
    4.8680    4.8667  -17.6562 C   0  0  2  0  0  0  0  0  0  0  0  0
    2.7134   -3.2885  -18.8680 C   0  0  0  0  0  0  0  0  0  0  0  0
    8.9402    0.6586  -14.4476 C   0  0  0  0  0  0  0  0  0  0  0  0
    4.5651    1.8971  -20.1362 C   0  0  0  0  0  0  0  0  0  0  0  0
    3.5394   -4.4447  -18.2656 C   0  0  0  0  0  0  0  0  0  0  0  0
    8.7573    1.4901  -15.7296 C   0  0  0  0  0  0  0  0  0  0  0  0
    4.9767   -4.0201  -17.9069 C   0  0  0  0  0  0  0  0  0  0  0  0
    7.3268    1.3048  -16.2783 C   0  0  2  0  0  0  0  0  0  0  0  0
    4.9959   -2.7478  -17.0268 C   0  0  1  0  0  0  0  0  0  0  0  0
    4.2541    3.9240  -18.7044 C   0  0  2  0  0  0  0  0  0  0  0  0
    5.2587    2.8678  -19.1586 C   0  0  1  0  0  0  0  0  0  0  0  0
    7.0891   -0.0881  -16.6769 N   0  0  0  0  0  0  0  0  0  0  0  0
    5.7322    2.1191  -17.9907 N   0  0  0  0  0  0  0  0  0  0  0  0
    3.8392    5.8534  -17.2496 N   0  0  0  0  0  0  0  0  0  0  0  0
    5.7860   -0.7610  -14.8593 O   0  0  0  0  0  0  0  0  0  0  0  0
    7.9233    2.7667  -18.0827 O   0  0  0  0  0  0  0  0  0  0  0  0
    6.3869    6.8618  -16.0709 O   0  0  0  0  0  0  0  0  0  0  0  0
    4.2106   -2.9884  -15.8615 O   0  0  0  0  0  0  0  0  0  0  0  0
    3.8141    4.6729  -19.8395 O   0  0  0  0  0  0  0  0  0  0  0  0
    8.7989    0.7629  -22.3484 F   0  0  0  0  0  0  0  0  0  0  0  0
    5.7613   -2.7445  -21.1848 F   0  0  0  0  0  0  0  0  0  0  0  0
   14.0783    0.8667  -12.8243 H   0  0  0  0  0  0  0  0  0  0  0  0
   13.2731   -1.0796  -14.1506 H   0  0  0  0  0  0  0  0  0  0  0  0
   12.5316    2.7433  -12.2957 H   0  0  0  0  0  0  0  0  0  0  0  0
   10.9084   -1.1630  -14.9228 H   0  0  0  0  0  0  0  0  0  0  0  0
   10.1613    2.6515  -13.0485 H   0  0  0  0  0  0  0  0  0  0  0  0
    6.9801    2.3529  -21.3272 H   0  0  0  0  0  0  0  0  0  0  0  0
    4.2720   -0.8091  -20.2040 H   0  0  0  0  0  0  0  0  0  0  0  0
    7.9933   -1.7456  -22.1662 H   0  0  0  0  0  0  0  0  0  0  0  0
    6.6451   -2.0270  -18.7689 H   0  0  0  0  0  0  0  0  0  0  0  0
    8.0119   -2.9159  -18.0150 H   0  0  0  0  0  0  0  0  0  0  0  0
    6.0368    5.8307  -19.2443 H   0  0  0  0  0  0  0  0  0  0  0  0
    7.0272    5.1814  -17.8937 H   0  0  0  0  0  0  0  0  0  0  0  0
    8.9575   -0.9802  -17.1357 H   0  0  0  0  0  0  0  0  0  0  0  0
    8.1083   -0.2328  -18.5310 H   0  0  0  0  0  0  0  0  0  0  0  0
    4.1360    7.8457  -16.5610 H   0  0  0  0  0  0  0  0  0  0  0  0
    4.0962    7.6591  -18.3472 H   0  0  0  0  0  0  0  0  0  0  0  0
    6.8829   -3.1371  -15.9994 H   0  0  0  0  0  0  0  0  0  0  0  0
    6.4395    7.8084  -17.9520 H   0  0  0  0  0  0  0  0  0  0  0  0
    5.1751    4.2737  -16.7822 H   0  0  0  0  0  0  0  0  0  0  0  0
    1.7002   -3.6454  -19.1046 H   0  0  0  0  0  0  0  0  0  0  0  0
    2.6516   -2.4648  -18.1415 H   0  0  0  0  0  0  0  0  0  0  0  0
    3.2000   -2.9307  -19.7874 H   0  0  0  0  0  0  0  0  0  0  0  0
    8.6654   -0.3874  -14.6487 H   0  0  0  0  0  0  0  0  0  0  0  0
    8.2923    1.0621  -13.6554 H   0  0  0  0  0  0  0  0  0  0  0  0
    4.1452    2.4719  -20.9748 H   0  0  0  0  0  0  0  0  0  0  0  0
    3.7544    1.3742  -19.6077 H   0  0  0  0  0  0  0  0  0  0  0  0
    3.0378   -4.7979  -17.3525 H   0  0  0  0  0  0  0  0  0  0  0  0
    3.5862   -5.2637  -18.9984 H   0  0  0  0  0  0  0  0  0  0  0  0
    8.9253    2.5530  -15.5016 H   0  0  0  0  0  0  0  0  0  0  0  0
    9.4836    1.1580  -16.4860 H   0  0  0  0  0  0  0  0  0  0  0  0
    5.4641   -4.8399  -17.3588 H   0  0  0  0  0  0  0  0  0  0  0  0
    5.5311   -3.8194  -18.8355 H   0  0  0  0  0  0  0  0  0  0  0  0
    6.6174    1.5774  -15.4831 H   0  0  0  0  0  0  0  0  0  0  0  0
    4.5600   -1.9211  -17.6070 H   0  0  0  0  0  0  0  0  0  0  0  0
    3.3964    3.4110  -18.2449 H   0  0  0  0  0  0  0  0  0  0  0  0
    6.1020    3.3570  -19.6680 H   0  0  0  0  0  0  0  0  0  0  0  0
    5.0737    1.5373  -17.5134 H   0  0  0  0  0  0  0  0  0  0  0  0
    3.5792    5.7016  -16.2960 H   0  0  0  0  0  0  0  0  0  0  0  0
    3.0322    5.7649  -17.8334 H   0  0  0  0  0  0  0  0  0  0  0  0
    6.2873    7.6923  -15.6204 H   0  0  0  0  0  0  0  0  0  0  0  0
    4.4537   -2.3705  -15.1821 H   0  0  0  0  0  0  0  0  0  0  0  0
    3.4366    4.0831  -20.4815 H   0  0  0  0  0  0  0  0  0  0  0  0
  1  2  2  0
  1  3  1  0
  2  4  1  0
  3  5  2  0
  4  9  2  0
  5  9  1  0
  6 10  2  0
  6 11  1  0
  7 10  1  0
  7 12  2  0
  8 11  2  0
  8 12  1  0
  9 23  1  0
 10 24  1  0
 11 40  1  0
 12 41  1  0
 13 19  1  0
 13 32  1  0
 13 35  2  0
 14 28  1  0
 14 33  1  0
 14 36  2  0
 15 17  1  0
 15 19  1  0
 16 20  1  0
 16 21  1  0
 17 32  1  0
 18 20  1  0
 18 34  1  0
 19 29  1  0
 20 37  1  0
 21 30  1  0
 21 34  1  0
 22 25  1  0
 23 26  1  0
 24 31  1  0
 25 27  1  0
 26 28  1  0
 27 29  1  0
 28 32  1  0
 29 38  1  0
 30 31  1  0
 30 39  1  0
 31 33  1  0
  1 42  1  0
  2 43  1  0
  3 44  1  0
  4 45  1  0
  5 46  1  0
  6 47  1  0
  7 48  1  0
  8 49  1  0
 15 50  1  0
 15 51  1  0
 16 52  1  0
 16 53  1  0
 17 54  1  0
 17 55  1  0
 18 56  1  0
 18 57  1  0
 19 58  1  1
 20 59  1  6
 21 60  1  1
 22 61  1  0
 22 62  1  0
 22 63  1  0
 23 64  1  0
 23 65  1  0
 24 66  1  0
 24 67  1  0
 25 68  1  0
 25 69  1  0
 26 70  1  0
 26 71  1  0
 27 72  1  0
 27 73  1  0
 28 74  1  1
 29 75  1  6
 30 76  1  1
 31 77  1  6
 33 78  1  0
 34 79  1  0
 34 80  1  0
 37 81  1  0
 38 82  1  0
 39 83  1  0
M  CHG  1  34   1
M  END
>  <OMEGA_C>  (19) 
XdlQQRzcVD8xl1LBLIpJQdYcjL4viF7BccxCQdwM8j8Qrk3BVR00QU6Tpr6yZGXBXVctQbJD6z8G
cFTBo8LXQH5/pj8dMKrB82+mQGZA+b7AM6XBZsvpQPj3gb/dHq7BdO4lQdZaOD+9/1/BMiGxQEhm
YT/qZqXBGU30QBLytD58Y67B15bCQORVt7+BqqnByjvNQPx1gb9zH37B3vDgQLNJCkDOAYzBfPvo
QFrLBsAx/47BOZ/CQBO9tUDzPpHBkjz/QGPeTb+RzYzBh66NQIlw5kBSOovBG8fNQBezFsDMAoXB
ady9QFXD30B+UovBfsabQPO7m0D6P43BJqktQF12UsC08ZbBAQsPQeqaKD81KWfBhBWSQPPU8j8C
F6HBP4ViQBA7jsDoH5LB5R0MQb67vj9qrHvB2UCfQNmkgMBgQY/BbXXqQDEEpz/6OYLBCN6fQN/b
L8DaNojBtSGIQDMje0CqopXB4UaoQLaJN0DRRJnBydniQNhjtL1SaoXBEW63QFCfB0AG7Y/BObZ1
QDBPu0Az/4nBlya5QDHQQr+hv23BW4v9QEYRMUBIqZDBamHMQA6U20BMkYDB6ryGQBlCP8C7yH3B
ixp0QAuIlUA5t57BZ8gMQWVOQz96ybLBQly4QMGlL8CMeqnB6EBhQTrgXT90ME3BvV5UQXEvir+s
aGLBnoFIQe2RL0BGu0TBooguQUrclL/1w27B4ZQiQV2yKUCkxlDB11zfQJyWFkASnqrBK7SIQB4g
T7+6oaHBXMn/QKBv379MVLHBl6TUQJS6AcCuJpbBwDAAQcWdOsChHpDBJC3BQHiVukBj9JnBb97g
QEHOpUBRJo/B6FEPQXXwer/aFYnBursBQVtbbr5xP5TBaFqEQJUP+0D0fITB+BODQKsX9UD3xpLB
AkHcQAnHSMCC/X/BkxDOQBHe+UDMnY/BbZqlQNbBiEDkQYbBUaDZP/VNacAl1pjBjrQpQNK/HcDX
IZHBgcxMQLOQO8CgTJ7BpKUKQWVTxr4jYWrBQa0EQcPxhz+mfFrBaaWEQCM0HkB2zKfBaUhwQBLm
rz+j3JzB1mtCQB6ImcDo0YrByYNlQI5wqMCw/JfBKM4OQcZkI0C2BnjB77wXQfo6lD9h44PBjtmu
QGbgmsDX3orBqP6wQJxwdMAsr5bBvMHTQBjnyT+eunfBRuuRQCXo9b8m24zBNV9ZQMxNWkB+9ZHB
iUPDQALZVkD6V53BcFuiQP7ExD+FG4zBFxFlQNpztkBCXoLBBQ9CQAl6uEDCqo7BvjHJQAwn9kBZ
7XnBvISOQLC2F8Db6XLBo/BbQAypgkAQ2qPBzj9OQagycD9iR1DB3WtHQQY7KL6Wj1zBldk/QV5g
/T/ZXEvBfSQyQR7KbL6jyWPBz4cqQa619D9Fg1LBNM7YQM4SlD/AmKjB3AKfQHVg5b4T2qXBRlbj
QLY5mL8PMq3BeJ8jQRB4Sz8GaF7B6dquQNL6XT8YC6XB1hDzQJQPAj7HjazBlC25QNqivL9496nB
65vRQON5mr8pLn/BbGLfQPFNB0C09YvB03r/QGJbDcDLMI3BYwLEQI/Jt0Bi75LBOq30QBDSRL8p
04/BA5GQQIr56kB6jI3BzWfhQHT6I8B/44PBUp7AQHJa5EA+PY7BR2OeQLCjn0Bkno3BfowtQObr
PcDzvZjBX/oMQUjVNj9nHWbB/muRQGoX/D+jMaHBAulvQL4jbcDf9ZHB2CELQS5ztD/d6XvB38ud
QAksMsDBZI/BBQHpQKhcmT+1gILBcTa7QPtYXcCBHYfBfgiIQKgvfkAtCpXB14GnQDjFOUAvD5nB
G8TjQNyjUL5g3IXBRQS2QGKzBkCH6o/BMxJ+QP3rwEBBSIrBKW25QOJhhb80+G/BDJb7QBv/MkDv
DpDBVOTRQDgX5UAMsoPBv8jKQOIYlsDCYovB7y1rQOHolECy9J3BYpQNQXdA0D6P7a/Bp+ipQGbt
LsA/3arBxI5eQQ5XfD/unUrBVoRSQTjYdL8iamDBHi9FQVEINUDSHELBTu4sQXB0iL/Fbm3BpoEf
QfuVLUAx507BTLLkQG/iCkCRRajB9IB9QD2aK78sUKPBxp/3QKWM/b94KrDBKnP5QEcZN8BbHZTB
7pIQQfVRE8C+u4rBFFrAQHKIuEB7r5vB3dPiQNnrqECQ3pDBs8EIQVvfZb4MYJLBg3HcQCT6OL9X
MpbB0taIQPnIAUGdjofBapmDQM+W9EBqXpXBGOPzQLt9RMASMnvByoXPQLc6/EAdhpPBMGiqQEG0
jkBsg4bBW4HvP9cSacCIgprBGPIVQH3SBcC1UZTB4zVLQHvfKMDPRqDBLUcIQbSfrr4TumfB6V8C
QR0dmz+6ilrBdSGHQAc3JEBPIKjB/o1qQHi4wT+rXp3By/RRQE0bgcDscYrBS5yDQMyhksAHZ5bB
fSYOQUYlH0Ck+HnBYfsWQU3Mez+if4PBRAKwQIx/JcBuwZbB972RQJ/i6r8XHozBENPRQIl8tT8+
PHjBfjOoQLovasAwxX/B6HddQLr+XUAwbpDBX+bCQC5PWUCt7pzB7p2gQGXdwT9STIzBQCV2QGUc
wECuWILBidFFQGXZu0B04Y3BqJXPQKCVAEEU14DBMU2zQP+zp8DEXY3BurhPQDDNgECrgaLBiNBO
QXlRiT8sZVDB85NIQeF8gb0pM1zBWs8/QbZyBUD1wUvBGVMzQWyOQb7HU2PBHYQqQdmy+j/6zlLB
zc/ZQIINjD+TZ6jBzm6hQBOsCL8su6TBHmrlQBvBob+fW6zBwDokQfsoUD9RYF7BSVewQMEJTD/U
jKTBs2j0QMd+gD21LqzBGdG7QN97x79Qv6jBarPRQM/qkr8WgIDBSwzgQKxpDEBit4vBi0b1QCwn
DMBCT4/BeyvBQIcnukDGlJTBdAQBQZ72Or+7m47BKDqZQEYI5kAGFYjBDMTmQHGpHcA724PBTh26
QEaJ6ECeF5HBgGSfQF0BoED7VY7B2nRQQHUjWMC3RpXBkLMNQdZ+Lz99cGbBBHeSQNs69D9aD6HB
h8GJQNhhPMAtC43BREMLQSukvz+eJ3vBl+GqQD1AgsB/OIvBI/vpQEoYoD/NhYLBa0vKQBlFbsDq
/oHBNWqIQJbne0CQJpXB90aoQKRIOEDVLpnB71jlQCbnCr44dobBSXS3QESxBkAmCZDBnieAQNl6
v0AKYYrBKhi5QPMffb8r8HHBScL6QHsbP0DvHY/BvLDgQLn9+kB8PY3Bl9LlQDGymsDNEYDBC25n
QN75kUCXBJ7BiQ8OQQTXsj4FzK/BOxKtQIbENMAsWanBfh9fQYiDlT/L40rB6BpUQfsVVr/KxF/B
oadEQcJHPUD0y0LB+pEuQf+Yhr+Ek2zBLgcfQSkeL0DzXk/B9RPlQKNeB0BtcqjBO82BQPNNRL+G
yqHBt9T5QAqSA8CLQ6/BawrbQOHPFcAZDZXBuEwIQcTBNMCxjJHBTEC8QOfItkAGQZ3BF67hQNqI
r0DRf5LB0NQRQdUMI78OHozBy479QF8scL45YpbB20CpQM4740BFR4DBgZSEQDhFAUHOGYjBS9kB
Qb+2JcBe5H3BvOusQLMa+0AmzZfBKyavQGsfkEC9iofBZfUhQJ0lJMDzd5bBhDlwQAO0ZsBV6pzB
JwQvQM7DiMA+XJLBHCAKQdy7vr51qWnBX4kCQdvsiD9JTVrBKiSIQL4fHkDpKqjBxb1sQEIzuz+T
Ip3ByFOaQETkAsBk+4/BMnJzQNy3LcBNbYXBlBQNQZ5VJEAHinfB9q0XQbc5mD+PToPBttGZQLb0
n8BdMonBEUu9QAD/hsBeoJLB5ATSQBC3tT9ycHjBUvq2QAdJYsAzlnXBSQZhQOfEW0BmF5DBYDHD
QItAWEAANZ3BBPuiQAk8uz9Kp4zBq8VjQM/DtEACvYPB+AhUQAuHxUBa9I/BVYXbQGvdC0E8IIvB
qBnVQGuos8AU033B+StLQH3HeUBPM6LB6x9MQX2GuD+DWk7BoXBJQZEflT4HHlvB1oc6QWbnEUAP
90nBOB81QeCM4bwuYWPBIDImQe/z+j89KFLB9WbYQJpDij/mSKnBkAyfQHIH8b6wjKTBeOvgQHeL
p7/ck6zB428jQWTuSz+vnV7BdCKvQFbyVz+OEqXB5l7xQABHHzsy9azByr+3QOiSxb/sWqjBMTT4
QJYpWL8vho/B/jLgQBLgAkDFMozBcWvJQCR1IcCJfofBfUTFQNAht0DwQZLBtZi9QIztjL/ucoTB
02mRQH776ECnJozBENvqQLT2FMBpSZDBrojBQI/c4kBrE43BhrWfQPnUnUBXS43BObM1QahRhMA5
jKPB5+QNQV2f+T7OC2jBDwuTQNM7/z87laHBp0YoQUMDicBWQ5nBrxcLQfcIqT9UaXzBC/UXQfjJ
SMB1mZjBGmDpQLXaij9h7oLBsZUIQSRDUsCY6o7B6daJQNYhfUBTIJXBt02pQNgvOUCTRJnBvW7k
QHp+or5zeIbBEwK3QDNjBECyNJDBReZ/QLEcvkBmoYnBABkJQet3iL7dOpXBmez8QKBsLUCMRpDB
Y4vTQBQ54kDXnILBZXETQZ9RQMBvFIXBsEpwQMiglUAv8Z3BNKMMQc7aZj63vbDBCpGoQHSWM8Cz
hKfB77JbQeEw1z9k7EfBufhWQXK4sL62jV7Bjqg8QQGhSkDHUkDB0xMzQWKZZr/4Vm3BBrgYQW+/
JkA56k7Ba8fkQHSWBUCZr6nBlWZ/QNpYJ79OOKHBZdjzQGKZCMAxha/BpgzXQFUMRMD9oIDBuWit
QMN4RMD+iIrB9tXBQA5suUA2/5rBCh7kQC4VqEC2TpDBT/iiQLHOPL+PaonB9om0QHzMhb/16XfB
ZdmJQEG5/0CrtIXB2iWEQBzX9EB1vpPBUO3bQFp1IMAjIJjBBNfPQNG7+0BjLJLBrKirQKSpi0Dk
X4bBxWFBQSiVnsA4AqTBmBYrQW+ChcDaj6rBaDQ+QSsDS8BAaaPB4+sMQbY7Fb8l+mvBAUUBQYFJ
Pj90fFzBn/SKQMN5JkAKo6jBXRZrQKtVyz8QC57BUMcfQVHVp8D8ZpnBH+UyQXjUh8BiQJLBWv4M
QenCGECNh3jBDkYXQW85gz/9GYTB1qggQermC8Aj1pfBQmwOQd4vSMD4/p/BNdDRQGFTpD8zLnnB
cXsCQS8lisBQ0o7BSB5gQN8RXEC4yZDBbPzEQEXqWEAd/JzB4iKhQNMXvj9VsozBU692QBVZu0B5
voHBM1BIQCDJuUDzcY3BcvvQQGnI/UCB8H7B/TUfQZJHZsBgSoTBLnxVQP8ugkBIuqLBvTJNQbQu
uT/0ME7Bon5KQQYrlD6jyVrBmro7QTeXE0CgZErB6UY2QUCHhbzUcWPB+X8nQYAXAEBbBVPBEGjW
QJh/jz+iXqnBg/qhQIjBDb+256PBgwzkQDQWn79otqzBU68kQVcHVD+sRl/BIvyuQJssSz/ehaTB
du3wQIh91j2Aaq3BTH+8QC4Vyb+Y+KfBXvb0QPoOZL+fw4/BbxbiQOEiBEDzlozBETi4QPx+CcD8
bYrBJZHFQOAHskANT5DB3e6/QEhfh7+CQoLBth2VQIeW50Cfw4rB9cHkQJv6FMD1M4/BPCjEQHyv
20CbJIrBoB+cQJGjm0AtqozBJ28AQf+Sv8CZrGfBYycPQT2OBT8D8GjBolCRQPBi8T8gp6DBtnwK
QRZFncDk9HXBpOQMQRbxoz9rJn7BbVnyQNmriMA2+4HB7NLrQFTdkD/NX4PBS64CQeF/RMCRBojB
1RaIQOxOe0AcGZXBRvenQLxiN0Ce+ZjBOdbhQNwQaL7WEYfBoa63QPcXCECHto/BEiZ7QI9/vkDo
8YnB4AkKQdMMBL+N7pTB/9f+QF6AJkBktpHB8AXPQOWw1EA3Z37BYtYTQTXQXsDNyY7BTXpzQOzS
lUCVFp7BskkLQQp72j7jEbLBNiSwQDNJN8CHM6fB7q1cQQhu1j/pcEfBF+9XQWPNub5IzF3BTtw9
QcujTEBa30DB/T00QfZeZb++Qm3BcCQaQUqJKkCgRFDBdzXgQDTbCUBl+KnB/5yDQMNFTr88TqDB
enj4QO2EAcDpza/B6+esQHa6RMAbm4bB/QKhQJYz6r8JiZDB3GLFQK/Jt0B8/ZjBZvfhQDYZn0Az
KI7BprKiQJcf776j9IDBdqrKQMUpvr+DOHXBLWOMQB3y/EBDHoTBlASOQFJz90C7apLBHizjQHgh
MsAHNJfBDk/YQMM29ED48Y3BxxqjQPDbiEDobYXBSOYMQTJFzsC5p13BEW/oQDbVsMDIXl3BFOfx
QGhJ2MCBunHBv9INQQ9AD7+H4mvBtnACQbuFVj9q3l3Bn3KFQD2jHEANnafBJlxsQDo9tj9scJzB
OvkRQX+VhMB442vBO7UWQbEJrMCYH4DBFGgQQTEmFkAOhnvBrDsYQVF/Xj+t8YTBgGfmQGRWoMBK
xYfBUcvXQJN1e8CMyXnB7d/VQEjhsD+BlXnB3rQIQdmqFsBjEILBJotZQFlQWkB0YpHBV5bCQEXE
VkB0MJ3Buz+iQBh70D/yTYvBQDtlQEWGukCgfoLBrgZKQD9OvkCeEo/BpQDOQE4V70CJ4HbBgj8e
QXxlfMCXqorB4+9aQLwZg0DrOqPB

>  <OMEGA_E>  (19) 
DEcrPzaQIj8ccBc/ytBYP+AlTz8=

>  <OMEGA_NBR>  (19) 
     75923

$$$$
50197266
     RDKit          3D

 75 78  0  0  1  0  0  0  0  0999 V2000
    7.5330    9.1746  -17.5374 C   0  0  0  0  0  0  0  0  0  0  0  0
    6.8799    9.4770  -16.3265 C   0  0  0  0  0  0  0  0  0  0  0  0
    7.2373    7.9787  -18.2192 C   0  0  0  0  0  0  0  0  0  0  0  0
    5.9205    8.5910  -15.8022 C   0  0  0  0  0  0  0  0  0  0  0  0
    6.7134    1.3038  -21.3337 C   0  0  0  0  0  0  0  0  0  0  0  0
    4.9546   -0.3648  -21.0533 C   0  0  0  0  0  0  0  0  0  0  0  0
    7.0483   -0.9664  -22.1473 C   0  0  0  0  0  0  0  0  0  0  0  0
    6.2884    7.0787  -17.6913 C   0  0  0  0  0  0  0  0  0  0  0  0
    5.6070    7.4029  -16.4886 C   0  0  0  0  0  0  0  0  0  0  0  0
    5.4398    0.9390  -20.8462 C   0  0  0  0  0  0  0  0  0  0  0  0
    7.5211    0.3484  -21.9689 C   0  0  0  0  0  0  0  0  0  0  0  0
    5.7616   -1.3196  -21.6947 C   0  0  0  0  0  0  0  0  0  0  0  0
    6.4648   -1.2150  -15.7242 C   0  0  0  0  0  0  0  0  0  0  0  0
    7.0394    1.9645  -17.4603 C   0  0  0  0  0  0  0  0  0  0  0  0
    5.9371    5.8317  -18.4830 C   0  0  0  0  0  0  0  0  0  0  0  0
    4.5965    6.4560  -15.8806 C   0  0  0  0  0  0  0  0  0  0  0  0
    7.7750   -2.4460  -17.2889 C   0  0  0  0  0  0  0  0  0  0  0  0
    7.8696   -0.9692  -17.6222 C   0  0  0  0  0  0  0  0  0  0  0  0
    6.4705   -2.5191  -16.4980 C   0  0  2  0  0  0  0  0  0  0  0  0
    5.0476    4.8491  -17.6633 C   0  0  2  0  0  0  0  0  0  0  0  0
    3.4940   -4.6205  -19.9732 C   0  0  0  0  0  0  0  0  0  0  0  0
    8.6579    1.3742  -15.5096 C   0  0  0  0  0  0  0  0  0  0  0  0
    4.5471    1.9596  -20.1999 C   0  0  0  0  0  0  0  0  0  0  0  0
    5.1976   -2.4547  -17.3582 C   0  0  0  0  0  0  0  0  0  0  0  0
    3.7212   -3.4536  -19.0258 C   0  0  0  0  0  0  0  0  0  0  0  0
    5.0541   -3.6332  -18.3015 C   0  0  0  0  0  0  0  0  0  0  0  0
    7.2937    1.1275  -16.1838 C   0  0  2  0  0  0  0  0  0  0  0  0
    4.3127    3.8275  -18.5457 C   0  0  2  0  0  0  0  0  0  0  0  0
    5.2922    2.7970  -19.1337 C   0  0  1  0  0  0  0  0  0  0  0  0
    7.1879   -0.2977  -16.4929 N   0  0  0  0  0  0  0  0  0  0  0  0
    5.7723    1.9082  -18.0463 N   0  0  0  0  0  0  0  0  0  0  0  0
    4.0197    5.5913  -16.9158 N   0  0  0  0  0  0  0  0  0  0  0  0
    5.6856   -0.9404  -14.8187 O   0  0  0  0  0  0  0  0  0  0  0  0
    7.9192    2.6854  -17.9185 O   0  0  0  0  0  0  0  0  0  0  0  0
    3.5984    4.5118  -19.5823 O   0  0  0  0  0  0  0  0  0  0  0  0
    8.7494    0.6981  -22.4102 F   0  0  0  0  0  0  0  0  0  0  0  0
    5.2984   -2.5730  -21.8843 F   0  0  0  0  0  0  0  0  0  0  0  0
    8.2615    9.8608  -17.9433 H   0  0  0  0  0  0  0  0  0  0  0  0
    7.1158   10.3899  -15.7999 H   0  0  0  0  0  0  0  0  0  0  0  0
    7.7382    7.7501  -19.1484 H   0  0  0  0  0  0  0  0  0  0  0  0
    5.4240    8.8230  -14.8716 H   0  0  0  0  0  0  0  0  0  0  0  0
    7.0660    2.3180  -21.2177 H   0  0  0  0  0  0  0  0  0  0  0  0
    3.9627   -0.6317  -20.7197 H   0  0  0  0  0  0  0  0  0  0  0  0
    7.6720   -1.7037  -22.6308 H   0  0  0  0  0  0  0  0  0  0  0  0
    5.3926    6.1297  -19.3912 H   0  0  0  0  0  0  0  0  0  0  0  0
    6.8672    5.3169  -18.7655 H   0  0  0  0  0  0  0  0  0  0  0  0
    5.0940    5.8324  -15.1231 H   0  0  0  0  0  0  0  0  0  0  0  0
    3.7934    7.0387  -15.4059 H   0  0  0  0  0  0  0  0  0  0  0  0
    7.7222   -3.0576  -18.2017 H   0  0  0  0  0  0  0  0  0  0  0  0
    8.6299   -2.7719  -16.6782 H   0  0  0  0  0  0  0  0  0  0  0  0
    8.9204   -0.6508  -17.6885 H   0  0  0  0  0  0  0  0  0  0  0  0
    7.3594   -0.7502  -18.5717 H   0  0  0  0  0  0  0  0  0  0  0  0
    6.4554   -3.3897  -15.8257 H   0  0  0  0  0  0  0  0  0  0  0  0
    5.6924    4.3044  -16.9579 H   0  0  0  0  0  0  0  0  0  0  0  0
    2.5339   -4.4893  -20.4937 H   0  0  0  0  0  0  0  0  0  0  0  0
    4.3089   -4.6575  -20.7112 H   0  0  0  0  0  0  0  0  0  0  0  0
    3.4752   -5.5594  -19.4004 H   0  0  0  0  0  0  0  0  0  0  0  0
    8.7464    0.7384  -14.6163 H   0  0  0  0  0  0  0  0  0  0  0  0
    9.4652    1.1290  -16.2154 H   0  0  0  0  0  0  0  0  0  0  0  0
    8.7359    2.4314  -15.2161 H   0  0  0  0  0  0  0  0  0  0  0  0
    4.1628    2.6367  -20.9770 H   0  0  0  0  0  0  0  0  0  0  0  0
    3.7060    1.4399  -19.7178 H   0  0  0  0  0  0  0  0  0  0  0  0
    4.3244   -2.4338  -16.6895 H   0  0  0  0  0  0  0  0  0  0  0  0
    5.2249   -1.5308  -17.9545 H   0  0  0  0  0  0  0  0  0  0  0  0
    3.7397   -2.5150  -19.5990 H   0  0  0  0  0  0  0  0  0  0  0  0
    2.9060   -3.4169  -18.2882 H   0  0  0  0  0  0  0  0  0  0  0  0
    5.8816   -3.6420  -19.0263 H   0  0  0  0  0  0  0  0  0  0  0  0
    5.0537   -4.5756  -17.7341 H   0  0  0  0  0  0  0  0  0  0  0  0
    6.5111    1.3875  -15.4558 H   0  0  0  0  0  0  0  0  0  0  0  0
    3.5966    3.2865  -17.9098 H   0  0  0  0  0  0  0  0  0  0  0  0
    6.1391    3.3190  -19.6030 H   0  0  0  0  0  0  0  0  0  0  0  0
    5.1384    1.2137  -17.7060 H   0  0  0  0  0  0  0  0  0  0  0  0
    3.4033    4.9356  -16.4797 H   0  0  0  0  0  0  0  0  0  0  0  0
    3.5032    6.1588  -17.5570 H   0  0  0  0  0  0  0  0  0  0  0  0
    3.1451    3.8786  -20.1263 H   0  0  0  0  0  0  0  0  0  0  0  0
  1  2  2  0
  1  3  1  0
  2  4  1  0
  3  8  2  0
  4  9  2  0
  5 10  2  0
  5 11  1  0
  6 10  1  0
  6 12  2  0
  7 11  2  0
  7 12  1  0
  8  9  1  0
  8 15  1  0
  9 16  1  0
 10 23  1  0
 11 36  1  0
 12 37  1  0
 13 19  1  0
 13 30  1  0
 13 33  2  0
 14 27  1  0
 14 31  1  0
 14 34  2  0
 15 20  1  0
 16 32  1  0
 17 18  1  0
 17 19  1  0
 18 30  1  0
 19 24  1  0
 20 28  1  0
 20 32  1  0
 21 25  1  0
 22 27  1  0
 23 29  1  0
 24 26  1  0
 25 26  1  0
 27 30  1  0
 28 29  1  0
 28 35  1  0
 29 31  1  0
  1 38  1  0
  2 39  1  0
  3 40  1  0
  4 41  1  0
  5 42  1  0
  6 43  1  0
  7 44  1  0
 15 45  1  0
 15 46  1  0
 16 47  1  0
 16 48  1  0
 17 49  1  0
 17 50  1  0
 18 51  1  0
 18 52  1  0
 19 53  1  1
 20 54  1  1
 21 55  1  0
 21 56  1  0
 21 57  1  0
 22 58  1  0
 22 59  1  0
 22 60  1  0
 23 61  1  0
 23 62  1  0
 24 63  1  0
 24 64  1  0
 25 65  1  0
 25 66  1  0
 26 67  1  0
 26 68  1  0
 27 69  1  1
 28 70  1  1
 29 71  1  6
 31 72  1  0
 32 73  1  0
 32 74  1  0
 35 75  1  0
M  CHG  1  32   1
M  END
>  <OMEGA_C>  (20) 
fA7xQADLEkGkTIzBTyjcQMuhF0G8nILBHpjnQIVR/0D0wJHB4nS9QKF0CUH41XzBQNTWQG7jpj9g
q6rBBoyeQLXAur4wbajBwovhQOpld7+SLbHBtjrJQGWE4kDMh43BhGyzQMvk7EC86IPBrhKuQCBi
cD8QxabBGq3wQB1csj5kwK/BYF+4QE7pqL+2jq3Bxt/OQPODm79qlnvB4ULhQNB0+z+arovBiPy9
QImdukBC3ZPBwhaTQDuXzkDeFn7BNM34QM+KHMC4T4rBgNP7QHAgeL8q+ozBpw7PQH45IcDW+4PB
pYWhQH8rm0BiTo3BCJ5fQEzbk8AmyZ/B4YYKQW7lrz9DJ3jB0oGRQBzV+j90maHBg1KmQB0aHcCS
3YrBzChuQHIIXcDENJjBc7uhQJiGaMCQaZLB0GXpQFZTkD9yeIHBAQKKQM/1dECSXZTBolmpQNIC
M0C8EZnBnwPmQEFnmL6O8YPB97a4QKI/9D/EXpDBE6GAQELsskB6U4fBkPC1QOrAcL9gGW3BvGn9
QHzdK0AQWY/B+ExmQN1gkEB2qJzBkf0LQdC5Mj8qSLPBTIypQJOsJMD2Eq/BAy8EQQHGHUH0i4/B
ULTjQCQ9JkFfzHzB+573QBQB+EDZL5nBWZGtQBYrDUE68m3BpxziQJNaFEDSvanB+5x9QJ64Ib/7
waXB7ID1QPYR2r/zC7XBb5CsQKUmxEA0IZvBZ8DbQCokqkCtH5bBzgGjQAyjukBc+HHBRcZyQOQ8
4UB9fnbB+hv3QIGvQ8ANnZHBBhQKQd9mMcDmbIXB2bkOQX6bJr8kgo3B0n/rQEMMQL/lkpTB3pLO
QKLwWMArNn3BKCi2QKS9iUDPqYfBmyoiQJqoj8AF86PBdeKJQDsKlcCIsKXBZGleQObmscAWNJvB
EPELQUsFPT993GnBqXEXQV6EkD8WuYHBasYLQcucG0A1dXPBmjWFQHfAKEDf0KfBTy9tQAZOuD8T
vp3Bc2GKQHTDG8AghIXBtjKnQETxw7/ioo/B91ZvQFv1IMCyypzBcfs5QLCuWsBATpLB1zW8QEYW
acDbNZjB57ehQBNrksB8343BvFrQQBGYsT8DS3fBKC5mQHRVUkA/R4/Bp3PEQDtqVED80pzB5W2k
QAVamz/UpY3Bls9ZQHzwnUCH1oPBuDNgQLEUxUDRdIzB5UlJQD46eECnAqHBOgP2QBgDEEEV0IrB
pvDgQImLFEGZHIHBulvrQMcI+0AXqJDBhOTAQJ+zBkF4kXrBmHXMQBqkQD9oNarBNIKVQIJZJr8v
+6HBfSLQQGGX1r9q36vB3prLQGvu3kC00IzByq+1QDas6EBKKYPBwS6mQLp5ID+DVaTBX1bhQPcq
zL6SA67BvIuqQDeb5r8MsaXBJmTQQG8Tmr82kYPB4r3ZQOmIC0C0HIrBjc++QPPtuEAFpJPBYsST
QMUJy0Amb33BM1gFQTaH6r9uLo7BSqQFQRcNrb5mBo3B0v7yQBtxD8AyGITBBqigQDECmkB5go3B
Kv4fQY3FuMDtJpDB1AMDQXfLxT9WiXLBybuNQIuV7T8fA6HBlbjiQBhra8DaCoTBgjQKQcs0osDg
zI/BBrEEQcdMlMBGQoTBhwHgQA9xnT/yzYDBXvGIQMuodUAL9pTBHC2nQLVmMEAtQJnBUD3mQHjl
Kb1oC4bBHQC1QJfZ+j8zGJDBMHeAQGbtsUAlY4fBKLqpQHHzrb8UcoLBKij3QDw+OEAeb43BlARq
QG8bkUDamZ3BRfcCQc2rjL6rsrPBOuqaQIN4QcD6JaPBdzAHQbG+GkEfxY3BiWTpQAOrIkE8NXnB
24n7QBks9ECRGJjBo+GwQJQtCkGGp2vBrbjZQPJ23T+kyKvBZxlxQCsNPr8CU53Bs7/fQO3FI8B7
967B2ziuQAGexEDK1JrBK9XbQDtrp0CrA5bBbHiiQC03tUCBvnHBgZR1QMMd3kBkgnXBjVL5QNEm
CcC9a5XB9aIVQbHbD8ALXI7BGKMUQWDJWbuXRonBtc0DQQxpGT7R25TB8UIEQfLLBsDWbnrBGEm0
QHcWh0CA8YfBJJcjQWFgwsDBbJjBxnksQQvMosA1RY3B/YkfQehS1cCoAovBIrIDQesTSz+qtWXB
XAcSQe3zwj+utnvB6NMAQW/MIkBhe2vB+u+FQIkbHEAcN6jBmvBfQMk+xT87DJ3B38fPQJ3UdsDY
hnnBM53OQJ+GdsB1IYvBYLsKQXHAhcBW+ZTBLZf7QE5HuMDJtpLBPp4SQTPxg8ANw4DBpOMAQSbm
sMDO/H7BE33CQMk5mj9fB3jBHzNgQACFVUCiMZDBP4jCQHPATUAgZp3BMm+iQOFjmD/e843BxjZX
QK00nUDHOoTBTy1iQCHNxUA0V4zBLTRNQONyekD+FKLBSev4QPPOD0EPL43Bf1njQDRtFkGW24PB
V77tQK7T+ECALJLBKnTCQCi2CUHsD3/B7gTTQNtZoD+YWarBry2fQAa2/r5wHqbBzujgQLgfhr9P
sq/BWBfNQNQF30CK0o3BL822QHfZ7EBYjoTB+/WrQDQrWj8kqqXBqaPtQJD9mj7iP6/BJZe5QHkJ
ub8HKqvBP7rRQFLprb+fcIDBcJPWQJxcBEDg94jBXC3AQMmqtkACtJPBLgWUQBKx0UCiLH/By4AD
QVrx8L8SK47Bd4cGQddRA7+8aInBlU3jQF8SIMCXaIfBBj6gQG3QmkAGIo3BhamQQIIovcDnDY/B
f/r/QPYpwD9QGW/BKZeOQM+h8D/uz6DBqYDBQKggRMBsFY/B9NJ+QOJvj8BDNZDBXiiZQBBvYcA/
MYnB/frbQAJLjz8e9H7BwceHQMpLdUD8K5TBQROmQEh7L0D9YpjB6GLkQLkZQ76QIITBPsWyQF8V
8D+Yao/ByH+AQHfztUCrtofB8Oe1QI2PuL8cF3PBx8jyQI5yN0BPW4vB3M5mQD2qkECR0pzBk5MJ
QTarMT+KobPBoi2tQDhLL8Bqn6vBRQcJQeagGUHsgZDBLxLsQG5IJUF5BYDBRzT+QEHQ7kC5WJnB
biKyQEXDDkEksXDBIW3cQECrEkDaKarBOSuBQFCsTb/tmaLBM0X1QGKs47/tgrPB+fCwQOqvv0AR
T5vBPxDdQEyko0AFVpXBJ/ShQHPBvUCpc3LBGaF2QHCr5kDMTnjBJFn9QKXx57+gnJbBo0kSQZFV
HsBLio3BeKsTQS6yBb8yjoPBwQwKQbusYj5guI/BQjPwQHFnU8B2UoLBmpOyQJvViEA0HYfBJ8R7
QOLo0sDyIpTBc2qyQAMFvsCqipHBvxGOQF5Wx8C/p4bBuqEAQbzdQj8KGGLBXmsPQXM/wj+Kj3fB
RHD5QKzNH0B5XmjBOXOCQLBJIkAtMafBuTVnQMXBrj9G8ZzB4q24QB8UEsCy3ZTB3kDPQNAfe8Bq
XpPBlf2BQP9hhcDknZjBwkk7QFqzjsD6uo3BCmGiQJIbgcDwwIHBDlyFQIBOKcCJQ4fBX529QJkh
iz8qEXbB7qVeQEk3VkDhLI/BtVvCQFZlTUBGDpzBozSgQG78ij8J043Bza5VQNQjo0AeK4TBrQZk
QJJOyEDDLI3BaLVIQBVgeUBwJKHB

>  <OMEGA_E>  (20) 
6q8bP2AsWD9gbTQ/

>  <OMEGA_NBR>  (20) 
      3849

$$$$
50197265
     RDKit          3D

 88 92  0  0  1  0  0  0  0  0999 V2000
   12.7286    1.3480  -12.9565 C   0  0  0  0  0  0  0  0  0  0  0  0
    7.5407    9.1620  -17.4988 C   0  0  0  0  0  0  0  0  0  0  0  0
    6.9133    9.4515  -16.2711 C   0  0  0  0  0  0  0  0  0  0  0  0
   12.5781    0.1695  -13.7164 C   0  0  0  0  0  0  0  0  0  0  0  0
   11.6179    2.1793  -12.7083 C   0  0  0  0  0  0  0  0  0  0  0  0
    7.2445    7.9640  -18.1779 C   0  0  0  0  0  0  0  0  0  0  0  0
    5.9802    8.5493  -15.7270 C   0  0  0  0  0  0  0  0  0  0  0  0
   11.3145   -0.1824  -14.2246 C   0  0  0  0  0  0  0  0  0  0  0  0
   10.3525    1.8231  -13.2044 C   0  0  0  0  0  0  0  0  0  0  0  0
    5.1495   -0.5144  -20.7887 C   0  0  0  0  0  0  0  0  0  0  0  0
    6.7776    1.2639  -21.1753 C   0  0  0  0  0  0  0  0  0  0  0  0
    7.2872   -1.0163  -21.8578 C   0  0  0  0  0  0  0  0  0  0  0  0
    6.3198    7.0486  -17.6320 C   0  0  0  0  0  0  0  0  0  0  0  0
    5.6667    7.3587  -16.4108 C   0  0  0  0  0  0  0  0  0  0  0  0
   10.1994    0.6342  -13.9469 C   0  0  0  0  0  0  0  0  0  0  0  0
    5.5231    0.8410  -20.6777 C   0  0  0  0  0  0  0  0  0  0  0  0
    6.0287   -1.4396  -21.3837 C   0  0  0  0  0  0  0  0  0  0  0  0
    7.6639    0.3355  -21.7436 C   0  0  0  0  0  0  0  0  0  0  0  0
    7.6678   -1.0875  -17.7891 C   0  0  0  0  0  0  0  0  0  0  0  0
    6.9925    1.8768  -17.5260 C   0  0  0  0  0  0  0  0  0  0  0  0
    5.9626    5.7987  -18.4233 C   0  0  0  0  0  0  0  0  0  0  0  0
    4.6824    6.3957  -15.7876 C   0  0  0  0  0  0  0  0  0  0  0  0
    6.3680   -2.6796  -16.4749 C   0  0  0  0  0  0  0  0  0  0  0  0
    5.9060   -1.2467  -16.2977 C   0  0  0  0  0  0  0  0  0  0  0  0
    7.3605   -2.5876  -17.6360 C   0  0  2  0  0  0  0  0  0  0  0  0
    5.0507    4.8201  -17.6186 C   0  0  2  0  0  0  0  0  0  0  0  0
   11.3606   -4.6798  -19.7743 C   0  0  0  0  0  0  0  0  0  0  0  0
    8.8633    0.3014  -14.5301 C   0  0  0  0  0  0  0  0  0  0  0  0
    4.5468    1.8493  -20.1051 C   0  0  0  0  0  0  0  0  0  0  0  0
    8.6423   -3.3882  -17.3117 C   0  0  0  0  0  0  0  0  0  0  0  0
   10.6248   -4.5316  -18.4292 C   0  0  0  0  0  0  0  0  0  0  0  0
    8.6802    1.1555  -15.7876 C   0  0  0  0  0  0  0  0  0  0  0  0
    9.5281   -3.4703  -18.5695 C   0  0  0  0  0  0  0  0  0  0  0  0
    7.2662    0.9586  -16.3395 C   0  0  2  0  0  0  0  0  0  0  0  0
    4.2790    3.8242  -18.5192 C   0  0  2  0  0  0  0  0  0  0  0  0
    5.2374    2.7746  -19.0808 C   0  0  1  0  0  0  0  0  0  0  0  0
    7.0591   -0.4497  -16.7143 N   0  0  0  0  0  0  0  0  0  0  0  0
    5.6886    1.9515  -17.9619 N   0  0  0  0  0  0  0  0  0  0  0  0
    4.0596    5.5647  -16.8267 N   0  0  0  0  0  0  0  0  0  0  0  0
    8.4398   -0.5780  -18.5935 O   0  0  0  0  0  0  0  0  0  0  0  0
    7.8979    2.4834  -18.0919 O   0  0  0  0  0  0  0  0  0  0  0  0
    3.6172    4.5065  -19.5840 O   0  0  0  0  0  0  0  0  0  0  0  0
    5.6645   -2.7361  -21.4976 F   0  0  0  0  0  0  0  0  0  0  0  0
    8.8739    0.7474  -22.1843 F   0  0  0  0  0  0  0  0  0  0  0  0
   13.6986    1.6145  -12.5635 H   0  0  0  0  0  0  0  0  0  0  0  0
    8.2496    9.8596  -17.9198 H   0  0  0  0  0  0  0  0  0  0  0  0
    7.1486   10.3662  -15.7472 H   0  0  0  0  0  0  0  0  0  0  0  0
   13.4326   -0.4626  -13.9080 H   0  0  0  0  0  0  0  0  0  0  0  0
   11.7392    3.0883  -12.1378 H   0  0  0  0  0  0  0  0  0  0  0  0
    7.7267    7.7455  -19.1193 H   0  0  0  0  0  0  0  0  0  0  0  0
    5.5036    8.7704  -14.7834 H   0  0  0  0  0  0  0  0  0  0  0  0
   11.1993   -1.0732  -14.8242 H   0  0  0  0  0  0  0  0  0  0  0  0
    9.4993    2.4584  -13.0176 H   0  0  0  0  0  0  0  0  0  0  0  0
    4.1898   -0.8425  -20.4177 H   0  0  0  0  0  0  0  0  0  0  0  0
    7.0550    2.3061  -21.1178 H   0  0  0  0  0  0  0  0  0  0  0  0
    7.9621   -1.7288  -22.3086 H   0  0  0  0  0  0  0  0  0  0  0  0
    5.4337    6.1006  -19.3393 H   0  0  0  0  0  0  0  0  0  0  0  0
    6.8914    5.2743  -18.6922 H   0  0  0  0  0  0  0  0  0  0  0  0
    5.2106    5.7481  -15.0724 H   0  0  0  0  0  0  0  0  0  0  0  0
    3.9019    6.9641  -15.2605 H   0  0  0  0  0  0  0  0  0  0  0  0
    6.8604   -3.0505  -15.5639 H   0  0  0  0  0  0  0  0  0  0  0  0
    5.5238   -3.3373  -16.7292 H   0  0  0  0  0  0  0  0  0  0  0  0
    5.0340   -1.0354  -16.9340 H   0  0  0  0  0  0  0  0  0  0  0  0
    5.6505   -1.0454  -15.2469 H   0  0  0  0  0  0  0  0  0  0  0  0
    6.9010   -2.9735  -18.5579 H   0  0  0  0  0  0  0  0  0  0  0  0
    5.6922    4.2401  -16.9390 H   0  0  0  0  0  0  0  0  0  0  0  0
   12.1493   -5.4406  -19.6796 H   0  0  0  0  0  0  0  0  0  0  0  0
   10.6454   -4.9880  -20.5512 H   0  0  0  0  0  0  0  0  0  0  0  0
   11.8122   -3.7163  -20.0531 H   0  0  0  0  0  0  0  0  0  0  0  0
    8.8243   -0.7660  -14.7930 H   0  0  0  0  0  0  0  0  0  0  0  0
    8.0697    0.5293  -13.8033 H   0  0  0  0  0  0  0  0  0  0  0  0
    4.1406    2.4607  -20.9244 H   0  0  0  0  0  0  0  0  0  0  0  0
    3.7264    1.3117  -19.6072 H   0  0  0  0  0  0  0  0  0  0  0  0
    9.1956   -2.8840  -16.5057 H   0  0  0  0  0  0  0  0  0  0  0  0
    8.3686   -4.4036  -16.9889 H   0  0  0  0  0  0  0  0  0  0  0  0
   10.1718   -5.4942  -18.1495 H   0  0  0  0  0  0  0  0  0  0  0  0
   11.3387   -4.2226  -17.6514 H   0  0  0  0  0  0  0  0  0  0  0  0
    8.8306    2.2156  -15.5354 H   0  0  0  0  0  0  0  0  0  0  0  0
    9.4155    0.8515  -16.5471 H   0  0  0  0  0  0  0  0  0  0  0  0
    8.8961   -3.7243  -19.4333 H   0  0  0  0  0  0  0  0  0  0  0  0
   10.0004   -2.4909  -18.7360 H   0  0  0  0  0  0  0  0  0  0  0  0
    6.5544    1.2166  -15.5415 H   0  0  0  0  0  0  0  0  0  0  0  0
    3.5345    3.3094  -17.8941 H   0  0  0  0  0  0  0  0  0  0  0  0
    6.0918    3.2751  -19.5598 H   0  0  0  0  0  0  0  0  0  0  0  0
    5.0039    1.4051  -17.4796 H   0  0  0  0  0  0  0  0  0  0  0  0
    3.4425    4.9113  -16.3883 H   0  0  0  0  0  0  0  0  0  0  0  0
    3.5371    6.1564  -17.4406 H   0  0  0  0  0  0  0  0  0  0  0  0
    3.1513    3.8777  -20.1225 H   0  0  0  0  0  0  0  0  0  0  0  0
  1  4  2  0
  1  5  1  0
  2  3  2  0
  2  6  1  0
  3  7  1  0
  4  8  1  0
  5  9  2  0
  6 13  2  0
  7 14  2  0
  8 15  2  0
  9 15  1  0
 10 16  2  0
 10 17  1  0
 11 16  1  0
 11 18  2  0
 12 17  2  0
 12 18  1  0
 13 14  1  0
 13 21  1  0
 14 22  1  0
 15 28  1  0
 16 29  1  0
 17 43  1  0
 18 44  1  0
 19 25  1  0
 19 37  1  0
 19 40  2  0
 20 34  1  0
 20 38  1  0
 20 41  2  0
 21 26  1  0
 22 39  1  0
 23 24  1  0
 23 25  1  0
 24 37  1  0
 25 30  1  0
 26 35  1  0
 26 39  1  0
 27 31  1  0
 28 32  1  0
 29 36  1  0
 30 33  1  0
 31 33  1  0
 32 34  1  0
 34 37  1  0
 35 36  1  0
 35 42  1  0
 36 38  1  0
  1 45  1  0
  2 46  1  0
  3 47  1  0
  4 48  1  0
  5 49  1  0
  6 50  1  0
  7 51  1  0
  8 52  1  0
  9 53  1  0
 10 54  1  0
 11 55  1  0
 12 56  1  0
 21 57  1  0
 21 58  1  0
 22 59  1  0
 22 60  1  0
 23 61  1  0
 23 62  1  0
 24 63  1  0
 24 64  1  0
 25 65  1  6
 26 66  1  1
 27 67  1  0
 27 68  1  0
 27 69  1  0
 28 70  1  0
 28 71  1  0
 29 72  1  0
 29 73  1  0
 30 74  1  0
 30 75  1  0
 31 76  1  0
 31 77  1  0
 32 78  1  0
 32 79  1  0
 33 80  1  0
 33 81  1  0
 34 82  1  1
 35 83  1  1
 36 84  1  6
 38 85  1  0
 39 86  1  0
 39 87  1  0
 42 88  1  0
M  CHG  1  39   1
M  END
>  <OMEGA_C>  (21) 
gahLQSGLrD8FTk/BIU3xQLGXEkF5/YvBHzrdQGE5F0FMK4LB1j9JQQiHLT5DdlvB9uI5QXN6C0AC
VUvBPtPnQDDZ/kBYbJHBZl2/QNLJCEHtoXvBMAg1QUTIOr4AmGPBA6QlQcBb6T9jRVPBA8mkQCmt
A79PT6bBSeLYQMzHoT8CZ6nBYjDpQE0Vgr/X3K7B2TvKQNKN4UBsDo3BrFW1QM5660A6SYPBjDAj
QUZYIj+wJl/BfL2wQNhNVz/ea6XBLevAQE1DuL/DEavBCj/1QELJqz778q3BPl71QLc0i78rUI7B
7cLfQFY88D86NYzBoM2+QNyOuUD2YpPB5NWVQPepzEASmnzB0sbLQMp9K8CizIPB9v28QA+Vn7+Z
YYLBPInrQKKaJcCTFo3B856hQKs+mkD68ozB1cQ1QcLAlcDTMZ7BOtANQURVmj5te2jBZ3+RQPy1
7D9J16DB00YKQdjYWMBGforBXv8pQeMCkcD8bpPBE+IKQcPnkz/VmXzBEnMYQVQZXsBHjpTBdITo
QGpkdT9Bt4LBeO2IQAjAdEBkJ5TBxZinQAWTMUBtpZjB+uPhQOA75r75toXBpgi2QDzM+T8Lso/B
feiBQGQSskAqnYbBWAkHQSb5E7+Mv5TBfrv8QM3wHkBGvJDBtYBnQG41kEAJrJzB/kO1QOscL8Aa
+6vBVvsNQWhTPz9kebHBnC1bQcKmzj8EBEnBWP4DQcTAHUHCW4/BI8HkQM/bJUG09HvBzOtWQXnf
7L7+hl7BmtM7QUmnRUBXNELBR0H3QN/a90A69JjBZx2wQJFTDEHriGzBUTAzQZNfib8ZMG3BUv0X
QdtVHUAVSFDB4hKGQFCtV798V6PBp8LhQAWXE0Ar8ajBIMn+QIJK3b/4d7LBzOCtQDE4w0D6tprB
j4bcQNvGqECLiZXBBL2mQKLwt0BuKHHBW7h5QNrZ3kAWK3TBw4jbQCo7Q8DMBXnBD8OwQNGWVcBS
1YXBYxahQAuJhL/VeIfBE9G0QCXOhb8h83PBX9XcQB9OPsCrdpTBgia2QNWuh0AEg4fBjWNCQaoZ
rsDKb53BnlMqQWqdn8DyaKTB9f48QU7YbcDTbKDBfjANQasXRL8fsGzBqB0BQbl/Bz9S2lzBoX+E
QIN8HUAVZafBKn1uQCHmpz+Q25zBJyETQdmSOMCtC4TB7+UFQUfqjMBW6YfB378iQWbQr8A4MpHB
Nms1QSMfh8AZNo3B80kNQVzMDUDRkHjBvaUWQdP4WT99YITBoVYOQVtabsBWd5vBzAEgQYdrH8Bt
45XB4r3RQPi5mz/QqXjBsjViQLnNU0AnJ4/B6u/CQNybUUCBepzBJCCgQOPYsz9D1ovBlVJcQKUp
nUAvG4PBxl9iQF4BxUByhovBZK9JQLoreEDh+qDBSDVLQQzZrz/NME7BjvjwQNW8EkH7xYvBq3Pc
QAJTF0FLAYLB+2JJQdg7TD7QjVrBGiE5QYK9C0Bpe0rB99XnQJ8j/0BTPpHBcn6+QOzWCEEoenvB
MXE1QXBgLr7MJmPBwColQX+z5z9S51LBAA7UQPNmnz88k6rBezelQBRrEb9Ru6TBZsnlQICuh78V
Aq/BCjPKQM214UD/9IzBGN+0QOyJ60AgPIPBNUsjQRoqID8f/l7BxNOuQKAVTz/MOKXB5KDvQAjW
oD5oX6/BEpjAQLgPwL/2rKnByvf3QBjth7/1TI7Bn0DgQFPV8T9vMIzB4h6/QDS4uUADVpPBjWSV
QCiOzEDHoHzBbqrMQGKXKsC2YYTBN2m9QHRdnr/lDIPBzQntQCbHI8Dngo3BUv2hQHU8mkCE84zB
/SU2QT13lcC81Z7BMzAOQe7TjT7hwmjByVOQQDGj6T9Nh6DBFq8KQdpaWcDeC4vBC4MqQXLHkMDF
CJTBixALQVMMlj8uaHzBtEwYQYzHYMCSRpXBSBTpQEZ7dz9RuoLBWHaJQDrbdEDhL5TBFL6nQJbU
MEA/qpjBnfniQIVB4L7s3IXBoIq2QEXZ+T/esI/B9O2BQK3asUBeqobBWyQJQVCOC78YSZTB1x79
QFYZIEBitZDBNu9oQPpdkEDFt5zBTbIJQVbVPj9oYbTBQze3QIJuNMArRKnBCoRaQTSr0z9ZikfB
Fd8DQV/vHUHwEo/BvrbjQID2JUGbk3vBBUxXQRjd1L6Ha13Bqp46QUKyRUA6L0HB6pD3QMFA+EDT
vZjBaduuQNFaDEEveWzB1Qo0QYh/h78+4WzBckgXQV14G0DCH1DBbFnbQI0vE0Ap+6rBZeyIQEYN
aL/kkqDBz7f6QCxS47+rz7LBNEuuQP1dw0DvrZrB7vjcQAsdqUCkdZXB0jemQGPwt0BxG3HBHlR4
QHyZ3kCOTnTBX/zbQFARQsB1C3rBrASyQIk0VcDXi4bBQZGiQPHNgr/XeYjBJYWzQGPEhb/3fXXB
83feQC+9OcB/CZXBHHW2QH+1h0D1fYfBtkVDQXixrMCZBZ7BQcoqQeLGoMDu7qTBtLA8QY2IbMDN
Q6HBQRsOQQ/RR79smm3B0kQBQWPL6D4AJ13BYHSCQNkqG0DoCqfBHTptQFAypj+6PpzBDxAUQdHL
OcAOu4TBI+wFQUvNjMB5WYjBSu8jQS/vr8DPl5HBvdU1QZNshcCu7I3BMxwNQcxtDkANwnfBovkW
QXUMaT+KVYTBe+4NQZU5dcBY6ZvBSDEfQVayIcBxHZfBzgHSQCfpmj9Xv3jBFtViQCVRVEAZNo/B
59TCQOHHT0CJvZzBus2gQHRxsz/4zYvBCHFcQILNnEChMoPBiXRiQIqvxEDzmovBFUFLQD2ZeECG
DqHBfm9NQe0D7z9gVUrBWCgFQa6kBkHnYIrB5zD2QAeNDUGe5oDBzKBMQcm4Zz+gz1rBrls6QbTQ
G0BCakLBjd74QFYQ60DlRpDBqZHQQJBgA0Glo3rBILw4QfwmAT+gTGPBYHUmQRw/AkAj4krBMA6Y
QMBHI7+xdajB5kDQQOqMhj/hhanBLx7aQGpMjb8jPrLBKF3TQMNT1kDcr4zB0ay+QBK75EA+PYPB
ZpMlQWpIhz9UKlvBWKenQAW0JD/TqqXB0zmxQFL6wL9Vv67B5ZLpQBh5ND7amq/BQSjMQCTulr85
3oDBvELcQEicBUAbKorBXke/QO/Cs0DAlJPBUNyWQNFXzkCx9n3BxYDxQPwlAcAqS5DBxEUDQY74
Pb/oaozByEHZQJvxHsCtXYbBT+ifQB91l0Af9ozBLYHpQP2j28A9143BVDUQQdnrJj8zm2TBSK6K
QGiWzj/poJ/B/X2yQM3pWMCFF4nBWyTfQCNcscDQKIjBVMAKQUZ+xz+k3XfBuua/QIEJlsDr8o7B
JhnpQIy/mT+KsYDBqXKGQFp8bkD6/JPB3qOjQLPfJUD7JpjBHBvoQPS7P75mjYTBMiq1QP+C6T+Q
Go/BMbKBQFvfs0BxSYfBeTevQDChhb8LqnTBS3v0QKFlPUANe43BQrxnQLKFjUDF2ZzBZA+iQNGL
LsCOgLHBjEgIQWFsFD9TBbPBQKxcQc3dCkCvxkPBXo4TQWN3DkHsHo3Bis0BQXWnGkFEwHjBT0Bb
QV5I8z7P7WDBwf46Qb06S0CW2zXBSRwEQYmm4EAckZfBfWHBQPqfCEEICGzB/yI4QdR3Zr7FBnDB
890XQdaNHkCc6kTBwpBxQDegc7+9xaXBGdLbQN7eAkCXw6fB5pHtQAhc47/F8LbBQZCtQCj1wkAb
K5rBTcHYQKdgn0Ar4pbBVyGgQFuSuUAfiHDBThqAQNmy5kD1TnjBHILbQKPp6L99+pbBqsEEQemi
MMBBx5LBY8ISQcOldb+vnYjBtK0FQWbaJ71OF5PBFjnvQGhvQsC6HIHBPauyQLk0hUDWE4fBKa7/
QB5+7sBN5IjB287LQKDg7cB7FI/BuXL4QNnc1MBLoJXBJwkRQZj2yb4J92nB/K4DQbbqQD89WVjB
V1dxQPlYDUB0gaXBE3ZoQKvegz9Vt5rBlByiQIVFasBxnIHBWGecQATvNMDNQo7BQE/QQMRSuMD7
XoDBHvP8QP1On8DK6obBtZIKQXXbJkBDjXLBHAoXQeTJtj9SJYLBUBSjQI4TqcA+pJDBGKzPQMJz
jcCPhJbBpATRQD5gqT//snTBPDZaQKjbUUDxCY/B/wC+QJKHQkDUwJzBSc2jQJrBhz8/TozBxopW
QKDboUAWyIPBjd5nQCxUx0A5oIzB7I9IQLffc0DnKaHBjAxKQQh8CECiDknBL0ABQa0bC0FE6IjB
VWLsQF12EUFTOn/BnN1KQXTgjT9bjFjB1DM2Qc8cLECpEkPBwabzQCM080DT9Y7BnS7HQKhtBkEv
1XjB+9I3QeGAIj8T+WHBQycjQQLjDUC/ekzB1BeTQI4uKr9YXaXB6SLTQDvXOj/rQqXBWQ7YQCBg
zb9ysKrBvMDOQFKK3EAPuYvB1s+3QMQX6kCZhILBGOQjQR6glj/JwFvBtr+mQKAFFT9oUaPBDKqr
QNdr4L/YFKnBp+DrQOjvu77al6jBKAvRQPBYqr9RAYLBVlvfQOB8+T+ZNIzBHHm+QC3+t0BgqpLB
rFyQQJ8F0kDrZX3BfBn9QJw0EcC+64/B0jYHQdeNa7/qf4zBj9LgQNoLK8Bfh4bBri2dQB6+m0DD
rYzBqKe3QNf548CgMpfBfnMPQXE/MT+EM2bB9k6LQGcj4j/Lwp/BAm67QD8tZsCC8InBPcamQNGP
usATDpLBkwYLQUbywD+GtXrBbkTMQLQMncCv847BoxrrQOWdij9iiYLBJmyFQNBKeEAtQZTBSnuj
QKV3MEAfS5jB0ebrQNIcp756B4bBWFW0QH0aAUDgAI/BN9V6QP6+t0DoW4fBhAayQN1mlr+MQXjB
Cj/7QCq+H0AXkZHB/uxnQNLbkkAsMJ3Bu66YQPVdPMCiE6vByFgLQV2gab6Hw6nBF6JYQR9oH0DY
xUHB6WsPQWeoE0FGZIvBdfD3QFXLHkH233XB6BRaQffTLz9cMV3Bk5k1QXaSXkBiRzfBXEcCQbmm
6UCFG5bBCF+2QM1KC0EsimrByHg4QWoBEr6G823Be/kTQU2nKUB3AUjB4kRiQIrlSL8RFKTBZBri
QK3N2D93LKTBr9nqQBsSHMCYhq3Bf1WvQEp3xUBV3JnB28PZQJLco0DhBZXB2XiZQFHrvECGEXDB
WMVwQL1G6UAH2HfBk0rqQL64C8DiU5fBG5YLQRGJP8AZHJHBwtUVQXlChb+MsofBFrMKQZEalr5n
hJPBHk30QLbqS8B6dYDBizSuQMHriEDOlIbBbIucQD2v+MC4XZnBshPKQHcK3MDhbZ7Bfm3MQLjR
9MDUeZHBRhwRQQE5vr6MWmrBGgkCQUqeUT95/VrBk7iAQJQUFEAI7KbBUXJeQF2dsD/hc5vBLwOo
QHS6dcCR3ILBjoCnQB+ARMDf2I/BQfaRQGjaqcDgypfBDVCUQKihwsDU1orBBkoKQWbgJEDmnHbB
bBQYQaomqz/4GIPBXwPfQLlplcC+JpbBGszgQC+ZrcBgH4nBadPRQOoGmj9O+njBGrlWQBhCWkDp
ro/BCgS+QAuRTUDayZzBylqfQKzUwz+HY4rBA8FMQBtnpUC9OoTBVHthQBtSy0BQ1ozB9QxLQMzA
fkCZxaHB

>  <OMEGA_E>  (21) 
OLMdP/xlHz/Mnyw/PjI7Pw==

>  <OMEGA_NBR>  (21) 
      9527

$$$$
50197271
     RDKit          3D

 96100  0  0  1  0  0  0  0  0999 V2000
   12.7779    2.2192  -12.7424 C   0  0  0  0  0  0  0  0  0  0  0  0
   12.7400    1.1112  -13.6140 C   0  0  0  0  0  0  0  0  0  0  0  0
   11.5842    2.8832  -12.3919 C   0  0  0  0  0  0  0  0  0  0  0  0
    5.2875    9.4684  -15.6707 C   0  0  0  0  0  0  0  0  0  0  0  0
    4.5177    8.4007  -16.1688 C   0  0  0  0  0  0  0  0  0  0  0  0
   11.5077    0.6625  -14.1306 C   0  0  0  0  0  0  0  0  0  0  0  0
   10.3513    2.4360  -12.9077 C   0  0  0  0  0  0  0  0  0  0  0  0
    6.6851    9.4693  -15.8421 C   0  0  0  0  0  0  0  0  0  0  0  0
    4.5951   -0.6013  -20.8562 C   0  0  0  0  0  0  0  0  0  0  0  0
    6.3981    1.0261  -21.0800 C   0  0  0  0  0  0  0  0  0  0  0  0
    6.6508   -1.1924  -22.0408 C   0  0  0  0  0  0  0  0  0  0  0  0
    5.1406    7.3237  -16.8347 C   0  0  0  0  0  0  0  0  0  0  0  0
    6.5470    7.3401  -17.0419 C   0  0  0  0  0  0  0  0  0  0  0  0
   10.3089    1.3151  -13.7662 C   0  0  0  0  0  0  0  0  0  0  0  0
    5.1192    0.6807  -20.5714 C   0  0  0  0  0  0  0  0  0  0  0  0
    7.3169    8.4079  -16.5224 C   0  0  0  0  0  0  0  0  0  0  0  0
    5.3574   -1.5289  -21.5999 C   0  0  0  0  0  0  0  0  0  0  0  0
    7.1690    0.0871  -21.7801 C   0  0  0  0  0  0  0  0  0  0  0  0
    6.3505   -1.1453  -15.9614 C   0  0  0  0  0  0  0  0  0  0  0  0
    7.2898   -3.7033  -14.4702 C   0  0  0  0  0  0  0  0  0  0  0  0
    6.9517    1.9332  -17.5217 C   0  0  0  0  0  0  0  0  0  0  0  0
    4.2701    6.2181  -17.4117 C   0  0  0  0  0  0  0  0  0  0  0  0
    7.2447    6.1792  -17.7397 C   0  0  0  0  0  0  0  0  0  0  0  0
    7.9551   -2.4003  -17.2750 C   0  0  0  0  0  0  0  0  0  0  0  0
    8.0341   -0.9244  -17.6044 C   0  0  0  0  0  0  0  0  0  0  0  0
    5.0944    4.9609  -17.7825 C   0  0  1  0  0  0  0  0  0  0  0  0
    6.5556   -2.5280  -16.6264 C   0  0  2  0  0  0  0  0  0  0  0  0
    7.0383   -4.8627  -13.5080 C   0  0  0  0  0  0  0  0  0  0  0  0
    4.4489   -4.5130  -19.3685 C   0  0  0  0  0  0  0  0  0  0  0  0
    4.0012   -2.7228  -17.0667 C   0  0  0  0  0  0  0  0  0  0  0  0
    8.9898    0.8553  -14.3466 C   0  0  0  0  0  0  0  0  0  0  0  0
    4.2424    1.7114  -19.8614 C   0  0  0  0  0  0  0  0  0  0  0  0
    5.6511   -4.0925  -18.5027 C   0  0  0  0  0  0  0  0  0  0  0  0
    8.7132    1.5838  -15.6815 C   0  0  0  0  0  0  0  0  0  0  0  0
    7.3297    1.1789  -16.2413 C   0  0  2  0  0  0  0  0  0  0  0  0
    4.2297    3.9603  -18.6036 C   0  0  2  0  0  0  0  0  0  0  0  0
    5.4234   -2.7539  -17.7122 C   0  0  2  0  0  0  0  0  0  0  0  0
    5.0647    2.7268  -19.0137 C   0  0  1  0  0  0  0  0  0  0  0  0
    7.2844   -0.2656  -16.5191 N   0  0  0  0  0  0  0  0  0  0  0  0
    6.5052   -3.6173  -15.6226 N   0  0  0  0  0  0  0  0  0  0  0  0
    5.5974    2.0484  -17.8203 N   0  0  0  0  0  0  0  0  0  0  0  0
    6.2954    5.3850  -18.5498 N   0  0  0  0  0  0  0  0  0  0  0  0
    5.5725   -0.8862  -15.0483 O   0  0  0  0  0  0  0  0  0  0  0  0
    8.1004   -2.8348  -14.1622 O   0  0  0  0  0  0  0  0  0  0  0  0
    7.8194    2.3404  -18.2893 O   0  0  0  0  0  0  0  0  0  0  0  0
    8.6706    8.4227  -16.6733 O   0  0  0  0  0  0  0  0  0  0  0  0
    3.7537    4.6048  -19.7906 O   0  0  0  0  0  0  0  0  0  0  0  0
    4.8408   -2.7332  -21.9267 F   0  0  0  0  0  0  0  0  0  0  0  0
    8.3983    0.4312  -22.2268 F   0  0  0  0  0  0  0  0  0  0  0  0
   13.7219    2.5594  -12.3430 H   0  0  0  0  0  0  0  0  0  0  0  0
   13.6552    0.6063  -13.8857 H   0  0  0  0  0  0  0  0  0  0  0  0
   11.6149    3.7346  -11.7282 H   0  0  0  0  0  0  0  0  0  0  0  0
    4.8061   10.2872  -15.1567 H   0  0  0  0  0  0  0  0  0  0  0  0
    3.4453    8.4056  -16.0409 H   0  0  0  0  0  0  0  0  0  0  0  0
   11.4799   -0.1804  -14.8051 H   0  0  0  0  0  0  0  0  0  0  0  0
    9.4384    2.9506  -12.6465 H   0  0  0  0  0  0  0  0  0  0  0  0
    7.2749   10.2852  -15.4514 H   0  0  0  0  0  0  0  0  0  0  0  0
    3.6103   -0.8715  -20.5045 H   0  0  0  0  0  0  0  0  0  0  0  0
    6.7822    2.0237  -20.9260 H   0  0  0  0  0  0  0  0  0  0  0  0
    7.2442   -1.9168  -22.5788 H   0  0  0  0  0  0  0  0  0  0  0  0
    3.5120    5.9378  -16.6656 H   0  0  0  0  0  0  0  0  0  0  0  0
    3.7717    6.5951  -18.3170 H   0  0  0  0  0  0  0  0  0  0  0  0
    8.0303    6.5779  -18.3983 H   0  0  0  0  0  0  0  0  0  0  0  0
    7.6994    5.5265  -16.9799 H   0  0  0  0  0  0  0  0  0  0  0  0
    8.0286   -3.0145  -18.1846 H   0  0  0  0  0  0  0  0  0  0  0  0
    8.7474   -2.6926  -16.5702 H   0  0  0  0  0  0  0  0  0  0  0  0
    9.0800   -0.5839  -17.6174 H   0  0  0  0  0  0  0  0  0  0  0  0
    7.5691   -0.7178  -18.5797 H   0  0  0  0  0  0  0  0  0  0  0  0
    5.4124    4.4649  -16.8536 H   0  0  0  0  0  0  0  0  0  0  0  0
    7.6669   -4.7406  -12.6136 H   0  0  0  0  0  0  0  0  0  0  0  0
    5.9786   -4.8708  -13.2130 H   0  0  0  0  0  0  0  0  0  0  0  0
    7.2879   -5.8119  -14.0046 H   0  0  0  0  0  0  0  0  0  0  0  0
    4.6821   -5.4538  -19.8886 H   0  0  0  0  0  0  0  0  0  0  0  0
    3.5676   -4.6579  -18.7263 H   0  0  0  0  0  0  0  0  0  0  0  0
    4.2378   -3.7274  -20.1089 H   0  0  0  0  0  0  0  0  0  0  0  0
    3.2409   -2.8823  -17.8455 H   0  0  0  0  0  0  0  0  0  0  0  0
    3.9242   -3.5184  -16.3109 H   0  0  0  0  0  0  0  0  0  0  0  0
    3.8369   -1.7458  -16.5887 H   0  0  0  0  0  0  0  0  0  0  0  0
    9.0296   -0.2293  -14.5257 H   0  0  0  0  0  0  0  0  0  0  0  0
    8.1814    1.0801  -13.6353 H   0  0  0  0  0  0  0  0  0  0  0  0
    3.6716    2.2682  -20.6192 H   0  0  0  0  0  0  0  0  0  0  0  0
    3.5465    1.1806  -19.1951 H   0  0  0  0  0  0  0  0  0  0  0  0
    5.8536   -4.8941  -17.7771 H   0  0  0  0  0  0  0  0  0  0  0  0
    6.5239   -3.9636  -19.1597 H   0  0  0  0  0  0  0  0  0  0  0  0
    8.7313    2.6705  -15.5116 H   0  0  0  0  0  0  0  0  0  0  0  0
    9.4920    1.3135  -16.4098 H   0  0  0  0  0  0  0  0  0  0  0  0
    6.5761    1.4141  -15.4753 H   0  0  0  0  0  0  0  0  0  0  0  0
    3.3856    3.6285  -17.9812 H   0  0  0  0  0  0  0  0  0  0  0  0
    5.4844   -1.9250  -18.4327 H   0  0  0  0  0  0  0  0  0  0  0  0
    5.9062    3.0763  -19.6300 H   0  0  0  0  0  0  0  0  0  0  0  0
    5.8514   -4.3564  -15.7848 H   0  0  0  0  0  0  0  0  0  0  0  0
    4.9425    1.6435  -17.1821 H   0  0  0  0  0  0  0  0  0  0  0  0
    5.9981    5.9391  -19.3273 H   0  0  0  0  0  0  0  0  0  0  0  0
    6.7660    4.5681  -18.8832 H   0  0  0  0  0  0  0  0  0  0  0  0
    8.9452    7.6472  -17.1484 H   0  0  0  0  0  0  0  0  0  0  0  0
    3.2257    3.9950  -20.2926 H   0  0  0  0  0  0  0  0  0  0  0  0
  1  2  2  0
  1  3  1  0
  2  6  1  0
  3  7  2  0
  4  5  2  0
  4  8  1  0
  5 12  1  0
  6 14  2  0
  7 14  1  0
  8 16  2  0
  9 15  2  0
  9 17  1  0
 10 15  1  0
 10 18  2  0
 11 17  2  0
 11 18  1  0
 12 13  2  0
 12 22  1  0
 13 16  1  0
 13 23  1  0
 14 31  1  0
 15 32  1  0
 16 46  1  0
 17 48  1  0
 18 49  1  0
 19 27  1  0
 19 39  1  0
 19 43  2  0
 20 28  1  0
 20 40  1  0
 20 44  2  0
 21 35  1  0
 21 41  1  0
 21 45  2  0
 22 26  1  0
 23 42  1  0
 24 25  1  0
 24 27  1  0
 25 39  1  0
 26 36  1  0
 26 42  1  0
 27 37  1  0
 27 40  1  1
 29 33  1  0
 30 37  1  0
 31 34  1  0
 32 38  1  0
 33 37  1  0
 34 35  1  0
 35 39  1  0
 36 38  1  0
 36 47  1  0
 38 41  1  0
  1 50  1  0
  2 51  1  0
  3 52  1  0
  4 53  1  0
  5 54  1  0
  6 55  1  0
  7 56  1  0
  8 57  1  0
  9 58  1  0
 10 59  1  0
 11 60  1  0
 22 61  1  0
 22 62  1  0
 23 63  1  0
 23 64  1  0
 24 65  1  0
 24 66  1  0
 25 67  1  0
 25 68  1  0
 26 69  1  1
 28 70  1  0
 28 71  1  0
 28 72  1  0
 29 73  1  0
 29 74  1  0
 29 75  1  0
 30 76  1  0
 30 77  1  0
 30 78  1  0
 31 79  1  0
 31 80  1  0
 32 81  1  0
 32 82  1  0
 33 83  1  0
 33 84  1  0
 34 85  1  0
 34 86  1  0
 35 87  1  1
 36 88  1  1
 37 89  1  6
 38 90  1  6
 40 91  1  0
 41 92  1  0
 42 93  1  0
 42 94  1  0
 46 95  1  0
 47 96  1  0
M  CHG  1  42   1
M  END
>  <OMEGA_C>  (22) 
SXJMQcEGDkDk4EvB5tZLQTo6jj//0lnBD1k5QamGOEBZRUbBNDOpQGJ+F0Eau3rB0ZCQQEFpBkHJ
WYHBhh84QQebKT/FFmLB+Z4lQTPnG0AThk7BH+zVQBGCF0FAeX3BtgqTQN3sGb982abBfr3MQNpW
gz/Oo6jBVtPUQHSfmL+HU7DBNICkQOVb6kCMrYbBpYDRQO3h6kDbVYjBEvEkQT1VqD9cQlzBtNCj
QMdCLj9RkqTBTCTqQLWGBkH3LYTBl2+rQNGzw7+UzKzBjGjlQCRtsj2oPa7BUDfLQGeZkr/rYX/B
b0bpQCYDbcD7hWfBMnTeQKpy9z9oLIzBe6SIQOD6xkAvS4vBPNTnQLW7xUDc6o3BH5D+QBieGcA/
M4rBm4sAQYmibL/X1YzBkgWjQMe/nkCcQo7BosfRQBLLIcDxAoXBuDnhQD6bm8DUIFjBS12OQFBq
kMCj8prBwAmAQMxCLsCJiIjBLtYPQRf4Wj/di2XBZsGHQM8P2z8Y5J7BAta0QPH1gsB+BZTBSmkL
QU67yj9S53rB2YzqQKHklj8u7oHBflmHQMZ0fUAs1JTB2YytQJlAMMB8so3BJBKiQPeDLkABHJjB
ABrpQCj9h74LJ4TBsyrQQHyCZ8BR9nnBiR2zQHMYA0D8j47B/3PJQBZSrEDxZZTB1lGyQJzcYr/Y
xXDBJZsBQTBtNcBwmGLBZTj6QILIFUB5UJLBr7oKQVnDBkEEY4XBBDxwQHtak0AiU57Bw+eaQOHs
LsDbaa/BYV8GQW/F3D6S0LHB3YxbQTXNI0DvfEXB2ntaQVM4Gz/zK17BpNY5QfYDb0CTpjvB3suZ
QIOYJEEKgnLBqn9cQIZ9BkHMU4DB1K03QULBOL7j4WzB2AMXQUfWPED0V0rB6svoQF6QJEHQOHfB
sg9nQA4aX78wCaTBrwfZQP2DAUB1aKfBoNDnQMxY9b9wobTB4cRgQFECvkAOU4XBRmNxQEUL00Ai
iZLBJ3wAQTN+0kCsL5PBrGH2QGnZsEDT1ofBDHUAQdLsQMAeepHBYPULQe1TLMDGj4TBokcRQfh5
Fb9m8IzBOzbyQFrBN78vo5TBATKtQDTgjkA21IbBLVf1QNayl8Bc0UnBAFG/QNXdm8BHaFPBpTbp
QGX7ucABE2DB2tOVQEGFrsDXG5/BoFNkQHANlcCLz5XBd5yHQCONbsAX36DBT2tPQCd4OMCNw47B
CSZ7QLAsYcCwfILBso91QAx337+htYTBFnkQQa3Aar5PaWjB8eYCQS1Cij9kKlrBGvxqQIspEUAl
9KTBePliQC8dlz+Dj5nBClG7QF2cnMB8N47BscPQQPuqfcAIR5nBa7MLQXXpKkClL3jBEd8XQR0i
qD9NR4PBjW/SQHQBtT/EmnfBS61YQO44aEBu2Y/BTYCvQOtn9r8zdpPBYv+8QErhREAyCp3BmT67
QKhni8CajnzB6CieQL1f0j/9dInBm/C/QCwNvkBlnprBaoPYQN0tkkC2EJfBhx8PQd219ED4L4nB
RXJOQN2uf0AzV6LB

>  <OMEGA_E>  (22) 
9kBOPw==

>  <OMEGA_NBR>  (22) 
     11419

$$$$
