50161012
     RDKit          3D

 83 84  0  0  1  0  0  0  0  0999 V2000
    6.3672   -1.9731  -21.2203 C   0  0  0  0  0  0  0  0  0  0  0  0
    7.1282   -0.7875  -21.2544 C   0  0  0  0  0  0  0  0  0  0  0  0
    4.9854   -1.9187  -20.9512 C   0  0  0  0  0  0  0  0  0  0  0  0
    6.5078    0.4541  -21.0205 C   0  0  0  0  0  0  0  0  0  0  0  0
    4.3652   -0.6804  -20.7042 C   0  0  0  0  0  0  0  0  0  0  0  0
    5.1252    0.5086  -20.7324 C   0  0  0  0  0  0  0  0  0  0  0  0
    6.5415    1.5281  -17.4544 C   0  0  0  0  0  0  0  0  0  0  0  0
    4.3791   -3.6625  -17.0627 C   0  0  0  0  0  0  0  0  0  0  0  0
    5.5119    6.7333  -18.6464 C   0  0  0  0  0  0  0  0  0  0  0  0
    7.9962   -0.4286  -14.4143 C   0  0  0  0  0  0  0  0  0  0  0  0
    7.8639    0.7014  -15.4429 C   0  0  0  0  0  0  0  0  0  0  0  0
    8.1164   -1.7894  -15.1191 C   0  0  0  0  0  0  0  0  0  0  0  0
    6.7621   -0.9002  -17.0698 C   0  0  0  0  0  0  0  0  0  0  0  0
    6.6450    0.4612  -16.3679 C   0  0  2  0  0  0  0  0  0  0  0  0
    6.8841   -2.0408  -16.0295 C   0  0  1  0  0  0  0  0  0  0  0  0
    3.2394   -3.6337  -18.0761 C   0  0  0  0  0  0  0  0  0  0  0  0
    6.5660    9.9956  -22.8529 C   0  0  0  0  0  0  0  0  0  0  0  0
    4.8444    6.5922  -16.2332 C   0  0  0  0  0  0  0  0  0  0  0  0
    7.0282   -4.5949  -15.6812 C   0  0  0  0  0  0  0  0  0  0  0  0
    8.0994   -3.6046  -17.7117 C   0  0  0  0  0  0  0  0  0  0  0  0
    4.4512    1.8312  -20.4378 C   0  0  0  0  0  0  0  0  0  0  0  0
    5.5565   10.5749  -21.8455 C   0  0  0  0  0  0  0  0  0  0  0  0
    4.7901    9.4711  -21.0945 C   0  0  0  0  0  0  0  0  0  0  0  0
    4.9695    4.4960  -17.6282 C   0  0  0  0  0  0  0  0  0  0  0  0
    5.7360    8.6225  -20.2396 C   0  0  0  0  0  0  0  0  0  0  0  0
    4.6282    5.9940  -17.6294 C   0  0  2  0  0  0  0  0  0  0  0  0
    5.1492    2.5714  -19.2746 C   0  0  1  0  0  0  0  0  0  0  0  0
    4.3605    3.8303  -18.8790 C   0  0  1  0  0  0  0  0  0  0  0  0
    6.9094   -3.4519  -16.7253 C   0  0  0  0  0  0  0  0  0  0  0  0
    5.3283    1.6745  -18.1186 N   0  0  0  0  0  0  0  0  0  0  0  0
    4.9373    7.7219  -19.4196 N   0  0  0  0  0  0  0  0  0  0  0  0
    5.6883   -3.6375  -17.5414 N   0  0  0  0  0  0  0  0  0  0  0  0
    7.5316    2.1735  -17.7859 O   0  0  0  0  0  0  0  0  0  0  0  0
    4.1174   -3.5634  -15.8690 O   0  0  0  0  0  0  0  0  0  0  0  0
    6.7209    6.5233  -18.6978 O   0  0  0  0  0  0  0  0  0  0  0  0
    2.9954    3.5281  -18.5912 O   0  0  0  0  0  0  0  0  0  0  0  0
    6.8441   -2.9252  -21.4008 H   0  0  0  0  0  0  0  0  0  0  0  0
    8.1875   -0.8316  -21.4600 H   0  0  0  0  0  0  0  0  0  0  0  0
    4.4023   -2.8276  -20.9346 H   0  0  0  0  0  0  0  0  0  0  0  0
    7.0878    1.3642  -21.0611 H   0  0  0  0  0  0  0  0  0  0  0  0
    3.3069   -0.6395  -20.4928 H   0  0  0  0  0  0  0  0  0  0  0  0
    8.8944   -0.2575  -13.8027 H   0  0  0  0  0  0  0  0  0  0  0  0
    7.1071   -0.4340  -13.7666 H   0  0  0  0  0  0  0  0  0  0  0  0
    7.7330    1.6571  -14.9142 H   0  0  0  0  0  0  0  0  0  0  0  0
    8.7779    0.7423  -16.0536 H   0  0  0  0  0  0  0  0  0  0  0  0
    9.0287   -1.7995  -15.7337 H   0  0  0  0  0  0  0  0  0  0  0  0
    8.1755   -2.5852  -14.3620 H   0  0  0  0  0  0  0  0  0  0  0  0
    5.8666   -1.0674  -17.6862 H   0  0  0  0  0  0  0  0  0  0  0  0
    7.6548   -0.9000  -17.7124 H   0  0  0  0  0  0  0  0  0  0  0  0
    5.7283    0.4743  -15.7599 H   0  0  0  0  0  0  0  0  0  0  0  0
    5.9884   -2.0064  -15.3920 H   0  0  0  0  0  0  0  0  0  0  0  0
    2.2812   -3.5200  -17.5479 H   0  0  0  0  0  0  0  0  0  0  0  0
    3.3816   -2.7869  -18.7637 H   0  0  0  0  0  0  0  0  0  0  0  0
    3.2335   -4.5733  -18.6479 H   0  0  0  0  0  0  0  0  0  0  0  0
    7.0880   10.8181  -23.3638 H   0  0  0  0  0  0  0  0  0  0  0  0
    7.2985    9.3715  -22.3201 H   0  0  0  0  0  0  0  0  0  0  0  0
    6.0330    9.3828  -23.5948 H   0  0  0  0  0  0  0  0  0  0  0  0
    4.2119    6.0631  -15.5051 H   0  0  0  0  0  0  0  0  0  0  0  0
    5.9011    6.4839  -15.9477 H   0  0  0  0  0  0  0  0  0  0  0  0
    4.5753    7.6587  -16.2457 H   0  0  0  0  0  0  0  0  0  0  0  0
    7.0432   -5.5652  -16.1991 H   0  0  0  0  0  0  0  0  0  0  0  0
    7.9582   -4.4715  -15.1069 H   0  0  0  0  0  0  0  0  0  0  0  0
    6.1674   -4.5576  -14.9974 H   0  0  0  0  0  0  0  0  0  0  0  0
    8.0711   -4.6045  -18.1692 H   0  0  0  0  0  0  0  0  0  0  0  0
    8.0240   -2.8393  -18.4983 H   0  0  0  0  0  0  0  0  0  0  0  0
    9.0462   -3.4777  -17.1663 H   0  0  0  0  0  0  0  0  0  0  0  0
    4.4905    2.4616  -21.3384 H   0  0  0  0  0  0  0  0  0  0  0  0
    3.4016    1.6456  -20.1657 H   0  0  0  0  0  0  0  0  0  0  0  0
    6.0994   11.1908  -21.1135 H   0  0  0  0  0  0  0  0  0  0  0  0
    4.8339   11.2021  -22.3882 H   0  0  0  0  0  0  0  0  0  0  0  0
    4.0378    9.9376  -20.4415 H   0  0  0  0  0  0  0  0  0  0  0  0
    4.2881    8.8214  -21.8265 H   0  0  0  0  0  0  0  0  0  0  0  0
    6.0620    4.3686  -17.6399 H   0  0  0  0  0  0  0  0  0  0  0  0
    4.5552    4.0260  -16.7240 H   0  0  0  0  0  0  0  0  0  0  0  0
    6.4015    8.0381  -20.8918 H   0  0  0  0  0  0  0  0  0  0  0  0
    6.3386    9.2769  -19.5925 H   0  0  0  0  0  0  0  0  0  0  0  0
    3.5731    6.1204  -17.9138 H   0  0  0  0  0  0  0  0  0  0  0  0
    6.1405    2.8917  -19.6278 H   0  0  0  0  0  0  0  0  0  0  0  0
    4.4150    4.5474  -19.7114 H   0  0  0  0  0  0  0  0  0  0  0  0
    4.5417    1.1472  -17.7973 H   0  0  0  0  0  0  0  0  0  0  0  0
    3.9424    7.8228  -19.4167 H   0  0  0  0  0  0  0  0  0  0  0  0
    5.8141   -3.7558  -18.5263 H   0  0  0  0  0  0  0  0  0  0  0  0
    2.5955    3.1158  -19.3480 H   0  0  0  0  0  0  0  0  0  0  0  0
  1  2  2  0
  1  3  1  0
  2  4  1  0
  3  5  2  0
  4  6  2  0
  5  6  1  0
  6 21  1  0
  7 14  1  0
  7 30  1  0
  7 33  2  0
  8 16  1  0
  8 32  1  0
  8 34  2  0
  9 26  1  0
  9 31  1  0
  9 35  2  0
 10 11  1  0
 10 12  1  0
 11 14  1  0
 12 15  1  0
 13 14  1  0
 13 15  1  0
 15 29  1  0
 17 22  1  0
 18 26  1  0
 19 29  1  0
 20 29  1  0
 21 27  1  0
 22 23  1  0
 23 25  1  0
 24 26  1  0
 24 28  1  0
 25 31  1  0
 27 28  1  0
 27 30  1  0
 28 36  1  0
 29 32  1  0
  1 37  1  0
  2 38  1  0
  3 39  1  0
  4 40  1  0
  5 41  1  0
 10 42  1  0
 10 43  1  0
 11 44  1  0
 11 45  1  0
 12 46  1  0
 12 47  1  0
 13 48  1  0
 13 49  1  0
 14 50  1  1
 15 51  1  1
 16 52  1  0
 16 53  1  0
 16 54  1  0
 17 55  1  0
 17 56  1  0
 17 57  1  0
 18 58  1  0
 18 59  1  0
 18 60  1  0
 19 61  1  0
 19 62  1  0
 19 63  1  0
 20 64  1  0
 20 65  1  0
 20 66  1  0
 21 67  1  0
 21 68  1  0
 22 69  1  0
 22 70  1  0
 23 71  1  0
 23 72  1  0
 24 73  1  0
 24 74  1  0
 25 75  1  0
 25 76  1  0
 26 77  1  6
 27 78  1  6
 28 79  1  6
 30 80  1  0
 31 81  1  0
 32 82  1  0
 36 83  1  0
M  END
>  <OMEGA_C>  (1) 
v7/LQKSP/L81w6nBBxrkQA+aSb8ACarBroifQOGX9b8fnKfBEUDQQFZ86D7oKajBCbCLQO4uLr8j
oqXBuwGkQKgxAj/c26XBsFPRQCWawz+soovB+yGMQN5lasBjgIjBKGGwQJR310DAK5XBHOH/QB5r
277moGbB7KT7QNmMMz//FXfB1NwBQYwL5b+853HBLmPYQJxyZr/hjojBkaPUQGoo7D5t8YLBikrc
QMibAsB3PIDBw1FPQMKNaMDXm5DB4RzSQA/uH0HE0rbBHgWbQDbz0kCO3YHB9ubgQD0Jk8AT5nrB
L5cBQWKxZsCbsY3B4m+OQL9k6j+ZgKPBos6xQLgyKUGbw67BqEiZQMuJF0F2wajBygWfQDPfj0CM
Bo3B9Iy3QNf1CUGg6qHB6xmUQPfOv0AECY3BQcakQFqRJEBMMprBkomLQBIjdUA+CJfBwxndQF7r
XMBUzYXBLoGqQPtU1j/k8pDBZP6dQPAZ90BPW5vB6Qa2QFnMaMCwVIzBoALxQOgaC0CHSY7BXMGD
QIMPZMBh533BdhHXQAq/0EAWlZXBsLQ/QKzMYUDZupTBswLbQOs1O8DdNKvBAwADQTTiVL8krqvB
jt+MQA73NMAVeqfB+87iQJyfrj8XfajBeKRTQPu4I79A8aPBV08OQfjSg76411zBpm3jQPMy3r4G
RFzBz3T3QNIb1D+6oG7BF3IMQdMHPj/BbYDBY3UQQUlW5r8LvXvB7c4CQYp0JcC7ymXB0bq7QH2f
iL9qfY3BdfT0QOllZr8Ss43BfE63QKjS8j6rKHzBqqC/QJtoAMCDRXbB+/4RQCNIYcAbYozBUmtY
QCFcMsD6G5bBoPFOQI5YksD8LpXB69DiQP4WLUEk6brBtY3pQNPxFUF7j7LBZw7BQBcgFkEjwrzB
JciGQC8FwkDaFHjBLNa8QFZ8z0ClKX/BMmmSQCUU9UAf94HBqWHhQCIWssDAl4HB6Kn+QMkWj8DS
tXHBAFvFQBzYkcBA9W/BMyMBQStYk8CcWpHBR2IAQYW3NcCE/JPBTb0QQQWTXsCeVInB6bGPQEyL
HUD0tKrBYLRZQLeh0j9WU6HBhy7DQGMNM0Fj6KjBOq+aQKc7M0ELG7PBVDWBQIsAH0E5iKPB9jeJ
QJMkDUGcnK7B2fvBQKrLi0B+Ho3B8MORQGTVgEDRyoXBYNnMQPibAEFwIqfB69XKQPttFEF/vZzB
3a1kQOrZw0CLT4/BnX7EQEgSOUC7BZ3BxUeNQPyDkUDlsJ3BRVWRQKLXkj/aYI7Bf1B8QKlU+kBf
VZvB9Qy6QK9ecMDvNZTBHB0mQOZpR0CcyJrBTUrKQNY/+r+KAKrBO/fgQLTHPr8WGqvBurKeQKAX
+L+cIafBhg/MQCLA9j6aWKnB3MyJQExkNr9ZRqXBT2mgQJaYAD8oXqbBs83RQOV8xj98N43BdlGM
QFGSZMDC5ofB33yzQE1t3ED0xpHBgzMBQRmBhb52+mjBGcP9QMheUD+qU3rB08sCQZQl1L+RJHPB
twzZQF5DXL8CS4nBGwvWQIKdCD8jMoTBpYndQJxV+b/WiYDBhgVPQHUOZ8Cb6I/BdLuTQN2ANEE4
8qrBJNmMQBH9yECauIDB8X7hQLaHj8AOhnnB3JYBQSmzZsBre43BLSGKQAfl6D/UAKTBSe2hQEwZ
HUE7UKvBYoa9QMsbGEEqfqHBCdahQJuqkEBKOo7Br73NQBkFAUGpD6LBmVCSQNsFv0AdsozBvUKi
QHTKJUCQKpvBGwGKQI6KdkAalZfB85TdQH8oWcDTh4XBD/upQMXa2T/V+ZHBq+6vQIt85UBel5zB
eRG2QB39ZsBD1YvBkkvxQKn8CUDPh5DBTl6EQJ5yV8AZ4HzBblPTQLEb50DirYzBgno/QBxWYkBd
DJTB9FbaQMRdOcBtXKvBWjIBQT5qQr/iSq3BV0uNQPFvN8CQWqbBQGHdQNFjtD9VRqrBFOVQQEiW
M79MA6PBk8MPQRZmgr14nF/BUVbmQKX3Z76fXl7BKzv6QAks5j9uq3LB+EUNQUoXUD+BOoLBCzAR
Qf4z2r/0Pn3BbO0DQc5xGsDCZ2bBEOu7QMW2hr/U/I3BhyL1QDDHZb/plo7BpUO5QH3lEz86SH7B
s1LBQEob8L/knXbBODMSQNjmW8C7s4vBlXxYQHv6NMDB+pXBLUpNQAILk8CX0pPBidd/QH8VOEEO
/7HBs/uAQC1VN0FMoqPB7xWwQOTuPkEF8arBEo5pQARZs0DAhnrBrpirQNBrxEBbL3nB5ESCQC1V
6kC5fH/Bm2zhQNlYr8CvhoDBro7/QFkFi8A7pnDB4kfGQBz9jMAbb27BW+cAQVUFlMBRvZDBNU4A
QcM4OMB5D5TBCuAQQcxnXcAgR4nBb1GJQBd8G0DXUqvBh3RSQMAxzz/cUaHBqpKFQF6rEkF2UavB
5qy0QBRFGkEwoLLBcADZQOoZI0EkSKHBqkGqQEwyGkHmM5rBUl3EQFrTkEAe8I/B2c2bQJzhfEAL
2obBc4zQQA9U+ECOfarB7UvtQFEAAEH5MZ7B0s9mQDwqw0DxxpDBZUrBQJoKOkD2dZ7Bhb2IQGzb
kUAUU57BplSRQPlVlz8JBY/B2DWYQI0M2ECjx6DB76W5QBgzc8CLopPBUr8gQCLJR0BFtJnBJFPP
QH456r+Mu6zBWMzZQNNMGr8poLHBQlmvQJ0T8L8mzaTB9EfEQM47FD/ImK7B8OCZQGkKMr+vu6HB
I+6jQOx/CT+As6bBD7PUQI9lvD+RUo3BpUEEQcGomMAXtY3BF/GpQPDM4ECWNpPB1UYAQZoGyL22
DWbBMCX/QI6JWD+uaXnBANr/QLHwyL8rS23BSmvVQPK+Zb8UQ4fBbsLWQDJMET+heIPBJrjXQMmO
8b/6UXvBBjYZQWKFmcAoBJTBG4iaQNnpPkE+6KrBF8mYQHlYzkBRpX/B7oitQLWRasBP+ofBs/PY
QJnSisBUcW/BIlWMQGQm6D8WdKPBpzytQOVKKEEDNazB3m+aQNL+GEFjvaPB5C6jQGYvk0Cmk43B
aW2sQPpFAkHmTqXB+VuSQK9twUAuq4vBJt+kQJWRJ0C/vprBRiyMQNFPeUA0IZfB+lDXQN+xWMBP
kIHBhnisQHDB4D/YbZHBebuZQML25kAed53BsGD9QO72ZcC8dYjB2Ij1QJaa7j88t5HB5NXzQA2+
ucCfqIzBaFTLQBcu8kD1YJDBlyVDQPrFY0Df35PBpsvfQPryLsDuD6/BelXyQCQYEb8gtLfBaUCn
QFM1NMDgD6HBwI/MQG5awj/1UrLB566BQKCIO78okpvBLQUPQc43uT3Q7FzBNJrkQPM+xD070FvB
4nz+QEWk8T8hyHPB3uQNQQ57Lz9zqIHBdG8OQUtG478PsnbBK2L/QMXTDcB9DV/B3Wq3QJ/SiL/I
p4vB3MXwQCR+ir+omYzBXmi6QDIrQj8A+HzBexy7QIKD3b9kYHHBETocQW8vusC27ZbBEwkYQYCL
g8CH3ZrBSnMmQQZxj8BNy47BcVGoQB6PSUE8ArHB1iRvQAdLPkG74qvBOlKiQF8QRUEy5aLBe8GH
QKict0A+QHXBFB+7QEnczUARx3vBzg2MQGjB7kDUEX3Bc1itQP3ElsDWsIrBvJ+RQIL6XsCx0ILB
aR2sQJLLP8BM9Y7BoKrYQPdBrMCq8XTBY2T2QMTAhMDiSGbBG/S8QO/8hMC4LmXBpWuIQDrEHEBR
karB3E9ZQJIjxT8ETaDBu3KlQG08IkGmPLTBijLQQMUBKUEdP6vB4vuiQB3GHkH6tJvBr8puQGuW
GEG5jKTB86zFQDSvlEC3So/BN9adQOY9gED8R4bB/62kQDJn+UCBba3BUGDPQB6gAkESRqTBjepf
QJ5FwkBWhY3BtMXDQCS4O0DEH57BcSqLQPMfk0Al5p3BmxGTQIaLrD8D0o3Biqh/QNdE1kDMnp/B
tXcIQS/pM8DsbonBLj8mQIlCSEDYm5nB

>  <OMEGA_E>  (1) 
wMrHPLB22z6wvE0/

>  <OMEGA_NBR>  (1) 
      4162

$$$$
50161015
     RDKit          3D

 86 88  0  0  1  0  0  0  0  0999 V2000
    6.7519   -1.7965  -21.3022 C   0  0  0  0  0  0  0  0  0  0  0  0
    7.4298   -0.5650  -21.2008 C   0  0  0  0  0  0  0  0  0  0  0  0
    5.3661   -1.8612  -21.0591 C   0  0  0  0  0  0  0  0  0  0  0  0
    7.9104    7.9919  -18.1112 C   0  0  0  0  0  0  0  0  0  0  0  0
    6.7203    0.6064  -20.8708 C   0  0  0  0  0  0  0  0  0  0  0  0
    4.6561   -0.6933  -20.7222 C   0  0  0  0  0  0  0  0  0  0  0  0
    6.8950    7.4759  -17.2871 C   0  0  0  0  0  0  0  0  0  0  0  0
    7.5877    8.5479  -19.3635 C   0  0  0  0  0  0  0  0  0  0  0  0
    5.2287    8.0502  -18.9806 C   0  0  0  0  0  0  0  0  0  0  0  0
    5.3293    0.5455  -20.6263 C   0  0  0  0  0  0  0  0  0  0  0  0
    5.5545    7.5115  -17.7158 C   0  0  0  0  0  0  0  0  0  0  0  0
    6.2457    8.5946  -19.8030 C   0  0  0  0  0  0  0  0  0  0  0  0
    6.6546    1.7142  -17.4317 C   0  0  0  0  0  0  0  0  0  0  0  0
    4.4091   -3.6176  -17.3099 C   0  0  0  0  0  0  0  0  0  0  0  0
    7.8434   -0.4081  -14.4021 C   0  0  0  0  0  0  0  0  0  0  0  0
    7.8670    0.7789  -15.3841 C   0  0  0  0  0  0  0  0  0  0  0  0
    7.9885   -1.7675  -15.1339 C   0  0  0  0  0  0  0  0  0  0  0  0
    6.9883   -0.7398  -17.2023 C   0  0  0  0  0  0  0  0  0  0  0  0
    6.7636    0.5761  -16.4325 C   0  0  2  0  0  0  0  0  0  0  0  0
    6.8927   -1.9363  -16.2206 C   0  0  1  0  0  0  0  0  0  0  0  0
    3.2546   -3.5884  -18.3118 C   0  0  0  0  0  0  0  0  0  0  0  0
    4.6810   10.0584  -21.1833 C   0  0  0  0  0  0  0  0  0  0  0  0
    5.7778    8.0179  -22.2030 C   0  0  0  0  0  0  0  0  0  0  0  0
    7.1088   -4.5255  -15.9989 C   0  0  0  0  0  0  0  0  0  0  0  0
    8.1348   -3.3870  -17.9650 C   0  0  0  0  0  0  0  0  0  0  0  0
    4.5323    1.8075  -20.3388 C   0  0  0  0  0  0  0  0  0  0  0  0
    4.4786    6.9311  -16.8277 C   0  0  0  0  0  0  0  0  0  0  0  0
    4.7802    4.6715  -17.7450 C   0  0  0  0  0  0  0  0  0  0  0  0
    5.9401    9.1643  -21.1874 C   0  0  0  0  0  0  0  0  0  0  0  0
    5.1431    2.6732  -19.2096 C   0  0  1  0  0  0  0  0  0  0  0  0
    4.1442    3.7564  -18.7837 C   0  0  1  0  0  0  0  0  0  0  0  0
    6.9430   -3.3245  -16.9750 C   0  0  0  0  0  0  0  0  0  0  0  0
    5.4286    1.8258  -18.0572 N   0  0  0  0  0  0  0  0  0  0  0  0
    5.7157   -3.5074  -17.7934 N   0  0  0  0  0  0  0  0  0  0  0  0
    3.8484    5.7814  -17.4890 N   0  0  0  0  0  0  0  0  0  0  0  0
    7.6133    2.4240  -17.7220 O   0  0  0  0  0  0  0  0  0  0  0  0
    4.1540   -3.6026  -16.1108 O   0  0  0  0  0  0  0  0  0  0  0  0
    2.9747    3.1633  -18.2159 O   0  0  0  0  0  0  0  0  0  0  0  0
    7.2956   -2.6915  -21.5665 H   0  0  0  0  0  0  0  0  0  0  0  0
    8.4945   -0.5193  -21.3763 H   0  0  0  0  0  0  0  0  0  0  0  0
    4.8485   -2.8063  -21.1311 H   0  0  0  0  0  0  0  0  0  0  0  0
    8.9390    7.9616  -17.7833 H   0  0  0  0  0  0  0  0  0  0  0  0
    7.2392    1.5513  -20.8047 H   0  0  0  0  0  0  0  0  0  0  0  0
    3.5934   -0.7442  -20.5365 H   0  0  0  0  0  0  0  0  0  0  0  0
    7.1433    7.0522  -16.3251 H   0  0  0  0  0  0  0  0  0  0  0  0
    8.3718    8.9419  -19.9930 H   0  0  0  0  0  0  0  0  0  0  0  0
    4.2036    8.0470  -19.3207 H   0  0  0  0  0  0  0  0  0  0  0  0
    8.6746   -0.2971  -13.6902 H   0  0  0  0  0  0  0  0  0  0  0  0
    6.8888   -0.3986  -13.8557 H   0  0  0  0  0  0  0  0  0  0  0  0
    7.6884    1.7157  -14.8360 H   0  0  0  0  0  0  0  0  0  0  0  0
    8.8463    0.8268  -15.8827 H   0  0  0  0  0  0  0  0  0  0  0  0
    8.9783   -1.8148  -15.6114 H   0  0  0  0  0  0  0  0  0  0  0  0
    7.8958   -2.5821  -14.4005 H   0  0  0  0  0  0  0  0  0  0  0  0
    6.2201   -0.8437  -17.9828 H   0  0  0  0  0  0  0  0  0  0  0  0
    7.9848   -0.7265  -17.6681 H   0  0  0  0  0  0  0  0  0  0  0  0
    5.8038    0.4952  -15.9011 H   0  0  0  0  0  0  0  0  0  0  0  0
    5.9162   -1.8750  -15.7179 H   0  0  0  0  0  0  0  0  0  0  0  0
    2.2983   -3.5561  -17.7693 H   0  0  0  0  0  0  0  0  0  0  0  0
    3.3449   -2.6964  -18.9492 H   0  0  0  0  0  0  0  0  0  0  0  0
    3.2902   -4.4919  -18.9384 H   0  0  0  0  0  0  0  0  0  0  0  0
    4.5013   10.4443  -22.1976 H   0  0  0  0  0  0  0  0  0  0  0  0
    3.8126    9.4673  -20.8570 H   0  0  0  0  0  0  0  0  0  0  0  0
    4.8318   10.9007  -20.4921 H   0  0  0  0  0  0  0  0  0  0  0  0
    5.5581    8.4358  -23.1966 H   0  0  0  0  0  0  0  0  0  0  0  0
    6.7089    7.4340  -22.2487 H   0  0  0  0  0  0  0  0  0  0  0  0
    4.9503    7.3645  -21.8891 H   0  0  0  0  0  0  0  0  0  0  0  0
    7.1380   -5.4636  -16.5725 H   0  0  0  0  0  0  0  0  0  0  0  0
    8.0458   -4.4120  -15.4339 H   0  0  0  0  0  0  0  0  0  0  0  0
    6.2598   -4.5496  -15.2998 H   0  0  0  0  0  0  0  0  0  0  0  0
    8.1405   -4.3633  -18.4717 H   0  0  0  0  0  0  0  0  0  0  0  0
    8.0327   -2.5866  -18.7126 H   0  0  0  0  0  0  0  0  0  0  0  0
    9.0771   -3.2550  -17.4130 H   0  0  0  0  0  0  0  0  0  0  0  0
    4.4903    2.4110  -21.2576 H   0  0  0  0  0  0  0  0  0  0  0  0
    3.5130    1.5173  -20.0439 H   0  0  0  0  0  0  0  0  0  0  0  0
    4.9271    6.6043  -15.8779 H   0  0  0  0  0  0  0  0  0  0  0  0
    3.7170    7.6994  -16.6283 H   0  0  0  0  0  0  0  0  0  0  0  0
    4.9604    4.1127  -16.8149 H   0  0  0  0  0  0  0  0  0  0  0  0
    5.7338    5.0647  -18.1272 H   0  0  0  0  0  0  0  0  0  0  0  0
    6.7948    9.7810  -21.5023 H   0  0  0  0  0  0  0  0  0  0  0  0
    6.0649    3.1488  -19.5755 H   0  0  0  0  0  0  0  0  0  0  0  0
    3.8747    4.3546  -19.6667 H   0  0  0  0  0  0  0  0  0  0  0  0
    4.6747    1.2809  -17.6901 H   0  0  0  0  0  0  0  0  0  0  0  0
    5.8366   -3.5562  -18.7848 H   0  0  0  0  0  0  0  0  0  0  0  0
    3.1088    5.4462  -16.9054 H   0  0  0  0  0  0  0  0  0  0  0  0
    3.4708    6.0865  -18.3634 H   0  0  0  0  0  0  0  0  0  0  0  0
    2.5681    2.5895  -18.8545 H   0  0  0  0  0  0  0  0  0  0  0  0
  1  2  2  0
  1  3  1  0
  2  5  1  0
  3  6  2  0
  4  7  2  0
  4  8  1  0
  5 10  2  0
  6 10  1  0
  7 11  1  0
  8 12  2  0
  9 11  2  0
  9 12  1  0
 10 26  1  0
 11 27  1  0
 12 29  1  0
 13 19  1  0
 13 33  1  0
 13 36  2  0
 14 21  1  0
 14 34  1  0
 14 37  2  0
 15 16  1  0
 15 17  1  0
 16 19  1  0
 17 20  1  0
 18 19  1  0
 18 20  1  0
 20 32  1  0
 22 29  1  0
 23 29  1  0
 24 32  1  0
 25 32  1  0
 26 30  1  0
 27 35  1  0
 28 31  1  0
 28 35  1  0
 30 31  1  0
 30 33  1  0
 31 38  1  0
 32 34  1  0
  1 39  1  0
  2 40  1  0
  3 41  1  0
  4 42  1  0
  5 43  1  0
  6 44  1  0
  7 45  1  0
  8 46  1  0
  9 47  1  0
 15 48  1  0
 15 49  1  0
 16 50  1  0
 16 51  1  0
 17 52  1  0
 17 53  1  0
 18 54  1  0
 18 55  1  0
 19 56  1  1
 20 57  1  1
 21 58  1  0
 21 59  1  0
 21 60  1  0
 22 61  1  0
 22 62  1  0
 22 63  1  0
 23 64  1  0
 23 65  1  0
 23 66  1  0
 24 67  1  0
 24 68  1  0
 24 69  1  0
 25 70  1  0
 25 71  1  0
 25 72  1  0
 26 73  1  0
 26 74  1  0
 27 75  1  0
 27 76  1  0
 28 77  1  0
 28 78  1  0
 29 79  1  0
 30 80  1  6
 31 81  1  6
 33 82  1  0
 34 83  1  0
 35 84  1  0
 35 85  1  0
 38 86  1  0
M  CHG  1  35   1
M  END
>  <OMEGA_C>  (2) 
bA/YQPXz5b/aaqrB3cDtQN2hEL9Dm6nBeLerQBM77r8LeajBTyL9QEO9/0DJ45DBywzXQA5AGz94
96bBFf+UQP96Mb8ax6XB/aPcQF4670DjS4rBHc7yQFrECEFb6JrBL1GnQJLNAEEv2JfByomqQDul
Cz+UAqXBoL6xQDBe8EDkuY3Bz9zHQIaDCUFybJ7Bw/LUQABs2z8UdIvBdheNQCCGZ8C5eorBZv36
QPL20L4vb2bBa777QDBkRz9UJXbBuqH/QNM+4r+PJHLBNqDfQIFlPb9nnonBQG/YQKl6Ez+3dYPB
+pDcQAnZ97+0w4HBK0xQQPioZcCmfpLBecqVQGfvIEFzd6nBbeO4QCBJAEHVn7HBSnvjQAHRkMBV
+3/BSygCQWjEWMBEuI/BTwiRQHdd5z/ltaLBnlCPQKjL3UAPn4bBX/eYQPJ8lUDX9Y3BchW+QNSg
EkHff6nB/5OkQAUWK0AqrZnB4pyEQH9ocEARRZbBCS3eQNLEVMDQzIfB+batQJWy6T8odZDBMue2
QOB4YMDRWI7BeEt2QJIBuUCQ6YvB7Z/zQG0iG0Ccxo3Bre2EQMmQZsDV4oDByGA+QDB0SkATupHB
anXpQMBALMAtiKzBS+kHQZjxBL+6AqvB/SabQHyaM8CQDKnBKwYPQQXF/kA2RI7BhKfnQI+Rxj8B
cKbBBvtlQLCBPr+4SqTB85XkQMWr4UDmmYLBw/IFQQQSD0G88Z/BDoSGQE/AAEHAkJrBFssKQaoi
mL4LC1vBInHcQPQVzL7vsF3BkQf2QOeb2z8UYG3BkYoNQY2mUz+fH37BUacPQZtM6L8lyHnBrKr8
QNNBJcCmaGbBVwvHQPf+V7/I3I/BGIP/QPz7Ob8/WI3B5bi5QDaR/T4Na37BbFG9QFv/779/fHvB
oBcTQIiWY8B4J47BLBJWQGySLMDpl5fBo5JSQFy9j8DPgZfB5wqQQP4bJ0HBlLHBXQJ0QOl5F0EL
26bBNJ6aQGppLkHQ76PBCdyxQBX5BkGLkrnBZq/WQGDj7UBX/bHBOmmeQCOq60D1HK/BfmrkQAbW
rsCIlITBlrsAQVAvjcBX8XbBWFDIQGaWkcAkzHTBdD8CQT2gi8AGxpPB3IUAQb6KJcBjs5XB5DsR
QbRSUMDLTYvB37CPQB9NGkCHD6rBuNVgQHY3wj/0WaDByaqdQGRW00DsC37B/+JtQCth9kDMBoXB
n7ueQBybg0DRhIbBYXu3QMMRokB9BJHBMW/ZQPF+HEGsBKzBEBTCQHSGSUClmpzBqvt3QIVYi0BZ
VZ3BL5eVQCP0oz9MhY3BJcW6QHmZY8BYR5bB+vVGQHpHrkBGPofBUSJeQFzEwkAu6JLBSlskQDK6
JUAL1pbBDRDYQI1s0L8z2qzBluLpQM5frb7lCqzBRhetQIZP7L9b7qnB8BP/QOLL+0CFO5DBN6jQ
QLa2PD8hcKjB6tuTQB3eRb9oQKbBH6TdQDiq60B734nBHQT2QD9QB0ENNprBjeqpQOY3AEGQlZfB
VomlQFNCBj8zdaXBUxCzQIIx7kCZgI3BL2jLQLy0CEEz7Z3Bw/zQQFt96T+8qIvBpFfgQElVncDD
e3TBo0UBQVVWa76/7WjBxCr+QK9GdT8eVnjBfn4CQVWtyb86PHXBVbnZQFkAE78vgYnB0ZPWQByR
Pj9NRoPBNj/dQIcV5b9p/oHB2Wv/QCl8tMBn0WXByLGdQMQHI0GyXajBqnm4QBUGAUGRGrHBmLr8
QIe5QcAekZLBuEqxQO6jYcD4CI3B4BGJQOCp2D/FPqLBAYKPQExv3EB6nIbB6g6WQBnqlEAbhY7B
iKHCQAilEkHP3qjBFEaeQEgXKEAm6pnBVNl+QF/WbkCMbZbBDojeQHBFSMBhxIjB01WpQItT7D8B
fZDBDzvyQOPDhsBvnILBroNzQF9EuUD2MYzBHWPvQApIHkD8FY/B78C6QFJ4mcAQPm/Bij81QPgA
S0C+WJHBCVjrQOLPHMCKtq/BU3kFQUT5Mr6NMK7BxnqfQMaENcAKg6rBLd8PQdG8+UBqdY3BhEbe
QDwr3T9/8qfB481lQJEocb+8B6TBRp/kQOBW3UDSNILB1OYHQf+CDUGfDp/BbleJQHG4AEGidZrB
OPEPQQi21r3GaV/BHaTmQIeLf75CNF7BK3T6QOWq8T/IHm/BGXcNQSV0gz/5NYHBpQcRQU84yr+I
KH/BK0cDQWWJGcBtl2nBDPK8QIXUL7+/fY7Bojv2QAh6Cr/MqI7BJPG5QJ3bNj9AU3zBsonAQG3m
6L+o0HnBUnLuQNxmv8DvZVfBEn0GQRdC0MA8Pm7Bca4MQYyQnsBTMWHBI02YQALWKUFiXrDBj12A
QMQBG0GvnKXBxhmmQLjrL0FMwaLBkTeyQOVdCEFe8rjBr+fTQC0j7EDtvrHBFA2cQFMX8EBjf67B
AnL8QKaofsBD+ZbBTbnxQHLwDcD62pfB4LoOQe7nM8Aa1I/BkKuzQKGjjsBbrJHBFW2bQDI9a8B2
PobBcumkQJtALsBJMZLBAJaBQHL4EUBUcanBS5JWQM6LpT/Ez57BJBKdQANu0ECjIX7Bu49wQCX3
9UBV4oTBBwWdQDZfg0CAF4fBSiW0QA2ToEBJCZLBeq3fQKMSG0GwgavBYxm7QO4IRUBLcJ3BNNNr
QHYWikDGf53BIlWSQEHzoz/AQI3Bt/8HQRX/jsCKtITBoEhDQFrzrkDJnIfByz9cQMFtxEATG5PB
SokYQIIcJkC5NJbB1KnaQJHW5L/FiqvBkPPuQIveCL9ynKrBTL2uQFHv9L+xOKnBpjD9QAYa/0DI
0pDB+C7XQKpzGT+njKfB1PeWQPVsSL/sGqbBtTHdQF7f7UARMYrBTznyQPKNCEGoxprBbhunQNjw
/0CZk5fBtgirQNQv9T4dQaXBiCqyQHh17kBQho3B0CLHQNwLCUHpMJ7B2srWQCvo4T9KjYvBGEye
QPE6hsAv14/BzesGQSScj76nl2nBG0cDQZFMZj8l+HjBJQAIQaLS0L+WqnXB1FngQJDuLb/BH4nB
rdLdQO+sKz/NMoPBnwjmQPab7b92GIHBWk9eQNzAeMCC95HBkvmTQFJWIEFg/ajBp5a3QHYbAEET
aLHBRL7xQO/KjcDfnX/BOV/8QFFtUMC6fJHBfiuQQPfV2T+7kKLB0UmQQIwH20CaZYbB5uaZQDNw
k0AKLI7Bsqe8QEpQEkHhMqnB2Y2kQLdPJkBv2pnBVfGEQDoTbED/YJbBe0viQKAqUMDk4YbBt1uv
QKIu4z8rkZDBdZazQA96WMAimojB9gh4QPCYtkDo0ovB4HDzQJWiIkDcHo7BTQ+xQFg9oMBseZXB
K5o/QAd/RkBOrZHBxs7sQALCKcBvCa7BbmEIQUAk4741P6zBMk6fQFAeOMAe1anBRxsPQVmF/kCT
R47B3q/mQG/oxz8+9KbBHYhqQARdYb+sW6TBrJ/lQAYx4EDfioLBEngFQfoiD0EJ15/BGDWGQPx2
/0A5OJrBARQWQVKY/70mAGHB4U/zQKE9or47Cl7B13wBQUeu6T/to2/BOCERQcvvfT/j3IHBi4wV
QfLgzr/kcoDB9zYKQQGtHMCvFWrBMKzCQI64VL+tso3Bc8b7QL53Kb+Vo47B1BXCQLYSJj8UkXvB
SYnLQEsN5r/SpHbB9cNHQK6Kj8D9yZjBZ1g4QHVUhMDp04rBOfFWQGZQNMDrz5PBTLiNQDaiJkGj
DrHB/h9xQD2iFkEtW6bBlaiYQPO7LUF1Z6PBDg6wQNvpBkHhTLnB85rVQDTv7UD15bHBB32dQDDd
6kDF4a7BSmHuQKD6q8COQYTBUMQJQYjwiMARU3vBJUjeQKk2j8Dx93DBAlD5QHGhh8CoYZXBsPnv
QJVxHsCK2pbBjSIPQe68Q8B4uY/BhRGMQPUwE0A34anBnmNhQGd6rj+itJ/BrCqfQEf4z0Ae1X3B
Br5vQIZO80CukYTBKMagQFBwgUCqzobBEeO3QO9xoEBdcJHB3aDXQM9qHEHivKvBA4rBQCOOREB5
HZ3BM/F3QJ4QiUA9b53BbZSYQGh+lj+Boo3BYA2hQBHuM8DG8oPBQlZJQIFTq0CIIofBiv9eQGbp
wEBQuJLBu9wkQFmqIUBPt5bB6ATgQFKJsL+KPq7BEEvXQNpC+L3R2LLBjLTLQNX94L85oqTBzLz8
QKmb/0D5dZPBtSK6QO2MQT8B3q3B3GauQGcAYr8Sqp/B9r/eQMEN7EDypYzBD8zuQGUvDEFhNJzB
hpekQOIxBUERQpfBYTSlQNIRvz52UqTBPqqyQDDF8UAAeo7BPXnCQEKiDkHfZZ7BvMzRQNuwtT/U
fonBUhoMQeqglcAud4XBwZsBQauecT7F6VzBKsz+QGvyiD+xcHHBsSsDQVEMor/iK2LBppnZQC4u
Yb8d7IHBNgTXQId5Hj9ANX7BJvTeQGoZ4b8JbW/BQfcfQWCglMB5mYzBFx2HQIksFUEcQqzBjGvT
QDN6HEHqSrHBvqm5QOJHb8Be14DBeZrmQMIXhMAJXWDBTOCFQAFOqj94AZ/BZXSSQLW53EAYHYfB
IZCZQBdhk0Aqq47BESGzQHqdHEHm2KfBfxudQOkvE0BBQZfBi8J/QCL2X0DIW5TBn3fiQL53UsDr
Q3XBbZqoQGEwyT/0bI3B8H0EQT0TXsBIaIHBlQF6QCdZuEAUfozBHxPxQJCz6z+MYo7BXH0CQQdz
t8CZLoTBzSk7QNm7REBkj43BvkH2QBljA8DKE7LBsvLmQMRoLj4oMLrBVpfSQIz2LcCqE6HBHUcP
QaCg+0D2+5HB+8SzQGmm3D9FW7HBpPeeQOIelr9JSpjBFoXpQAys2EBXBYbB6gcDQcnmE0EfTKHB
ZbuCQMV2B0GBkJjBZCYQQVsXDD8LV1TBbRXnQMAz0T7Ks1LBZXH7QAtyCEAFLW3BYcYNQUE0bz/w
W3vBhdMRQevmuL8gfWvB5usDQfLJ6r/tHlPBKwm8QIxnlr+gEobB7y31QFW+hb9zOofBsYK6QCkf
SD9UN3TBqzTCQKVC0L9/fWXBngIjQbjYtMCnzI/BrlYdQYByfMBCQpPBF9gtQZQTisCz34fB3xd7
QNaPH0F98rLBeaKJQAaNBEFrFK/B8fRdQCsiFkHa3qXBTTDHQC+bJkGszrfBxHDyQLW4IkFzi67B
V4PXQMoADEEmN7TB+0S8QLPNmcDc24LB2T+dQFb0ZMCjnnfB1au2QISXScB8PIjBng3pQGs+psDI
cmTB0bkBQTJCdMBOmFfBuTnKQBm5fcC+SFbBiRZrQCFx9T9aOqXBGkRcQDR8Pz+seprBbxSjQJvx
0EBD4H/Bb290QBp29ED/w4TBmFSmQDz5hkCzE4fB7jC0QNitnUDY0JPBwcqvQCovLUHa/6TB5i66
QBx4K0CILZvBVqVlQOiDekCH05vB2MuQQOi2kz/iQInBrs8MQehmKcCUPIPBYw1KQBlYrkBr0ofB
bmNiQBe1wkBVdpPB0U4bQJoPGUD6CZHB

>  <OMEGA_E>  (2) 
VlNKP/KHVz8cQ0g/9iGFPw==

>  <OMEGA_NBR>  (2) 
     13266

$$$$
50161015
     RDKit          3D

 86 88  0  0  1  0  0  0  0  0999 V2000
    6.3788   -1.9391  -21.2457 C   0  0  0  0  0  0  0  0  0  0  0  0
    7.1184   -0.7438  -21.3489 C   0  0  0  0  0  0  0  0  0  0  0  0
    5.0118   -1.9000  -20.9071 C   0  0  0  0  0  0  0  0  0  0  0  0
    7.5677    8.4028  -16.6296 C   0  0  0  0  0  0  0  0  0  0  0  0
    6.4914    0.4926  -21.1171 C   0  0  0  0  0  0  0  0  0  0  0  0
    4.3840   -0.6653  -20.6665 C   0  0  0  0  0  0  0  0  0  0  0  0
    6.5042    7.6249  -16.1486 C   0  0  0  0  0  0  0  0  0  0  0  0
    7.5325    8.9147  -17.9433 C   0  0  0  0  0  0  0  0  0  0  0  0
    5.3325    7.9260  -18.2784 C   0  0  0  0  0  0  0  0  0  0  0  0
    5.1240    0.5314  -20.7745 C   0  0  0  0  0  0  0  0  0  0  0  0
    5.3949    7.3816  -16.9708 C   0  0  0  0  0  0  0  0  0  0  0  0
    6.4237    8.6669  -18.7862 C   0  0  0  0  0  0  0  0  0  0  0  0
    6.5675    1.5756  -17.5323 C   0  0  0  0  0  0  0  0  0  0  0  0
    4.3383   -3.5792  -17.0571 C   0  0  0  0  0  0  0  0  0  0  0  0
    8.0561   -0.3642  -14.4935 C   0  0  0  0  0  0  0  0  0  0  0  0
    7.9268    0.7471  -15.5428 C   0  0  0  0  0  0  0  0  0  0  0  0
    8.1349   -1.7412  -15.1717 C   0  0  0  0  0  0  0  0  0  0  0  0
    6.7545   -0.8630  -17.1116 C   0  0  0  0  0  0  0  0  0  0  0  0
    6.6815    0.5164  -16.4334 C   0  0  2  0  0  0  0  0  0  0  0  0
    6.8806   -1.9890  -16.0527 C   0  0  1  0  0  0  0  0  0  0  0  0
    3.2005   -3.6078  -18.0729 C   0  0  0  0  0  0  0  0  0  0  0  0
    5.3989   10.0539  -20.6943 C   0  0  0  0  0  0  0  0  0  0  0  0
    6.4005    7.7851  -21.1314 C   0  0  0  0  0  0  0  0  0  0  0  0
    6.9681   -4.5409  -15.6541 C   0  0  0  0  0  0  0  0  0  0  0  0
    8.0589   -3.6137  -17.7044 C   0  0  0  0  0  0  0  0  0  0  0  0
    4.4528    1.8491  -20.5057 C   0  0  0  0  0  0  0  0  0  0  0  0
    4.2918    6.5229  -16.4336 C   0  0  0  0  0  0  0  0  0  0  0  0
    4.8932    4.5870  -17.8194 C   0  0  0  0  0  0  0  0  0  0  0  0
    6.4971    9.0579  -20.2678 C   0  0  0  0  0  0  0  0  0  0  0  0
    5.1411    2.6017  -19.3445 C   0  0  1  0  0  0  0  0  0  0  0  0
    4.2635    3.7802  -18.9432 C   0  0  1  0  0  0  0  0  0  0  0  0
    6.8732   -3.4160  -16.7203 C   0  0  0  0  0  0  0  0  0  0  0  0
    5.3511    1.7086  -18.1883 N   0  0  0  0  0  0  0  0  0  0  0  0
    5.6490   -3.5987  -17.5321 N   0  0  0  0  0  0  0  0  0  0  0  0
    3.8758    5.5859  -17.4637 N   0  0  0  0  0  0  0  0  0  0  0  0
    7.5473    2.2304  -17.8743 O   0  0  0  0  0  0  0  0  0  0  0  0
    4.0746   -3.4061  -15.8724 O   0  0  0  0  0  0  0  0  0  0  0  0
    2.9848    3.3096  -18.5056 O   0  0  0  0  0  0  0  0  0  0  0  0
    6.8615   -2.8881  -21.4268 H   0  0  0  0  0  0  0  0  0  0  0  0
    8.1668   -0.7779  -21.6060 H   0  0  0  0  0  0  0  0  0  0  0  0
    4.4469   -2.8174  -20.8323 H   0  0  0  0  0  0  0  0  0  0  0  0
    8.4151    8.6101  -15.9929 H   0  0  0  0  0  0  0  0  0  0  0  0
    7.0550    1.4100  -21.2012 H   0  0  0  0  0  0  0  0  0  0  0  0
    3.3380   -0.6328  -20.3998 H   0  0  0  0  0  0  0  0  0  0  0  0
    6.5397    7.2154  -15.1498 H   0  0  0  0  0  0  0  0  0  0  0  0
    8.3611    9.5025  -18.3098 H   0  0  0  0  0  0  0  0  0  0  0  0
    4.4524    7.7746  -18.8856 H   0  0  0  0  0  0  0  0  0  0  0  0
    8.9692   -0.1993  -13.9028 H   0  0  0  0  0  0  0  0  0  0  0  0
    7.1798   -0.3380  -13.8291 H   0  0  0  0  0  0  0  0  0  0  0  0
    7.8309    1.7166  -15.0321 H   0  0  0  0  0  0  0  0  0  0  0  0
    8.8268    0.7532  -16.1752 H   0  0  0  0  0  0  0  0  0  0  0  0
    9.0344   -1.7820  -15.8036 H   0  0  0  0  0  0  0  0  0  0  0  0
    8.1939   -2.5219  -14.3990 H   0  0  0  0  0  0  0  0  0  0  0  0
    5.8407   -1.0237  -17.7024 H   0  0  0  0  0  0  0  0  0  0  0  0
    7.6307   -0.8926  -17.7761 H   0  0  0  0  0  0  0  0  0  0  0  0
    5.7816    0.5563  -15.8019 H   0  0  0  0  0  0  0  0  0  0  0  0
    5.9985   -1.9297  -15.3982 H   0  0  0  0  0  0  0  0  0  0  0  0
    2.2418   -3.4579  -17.5547 H   0  0  0  0  0  0  0  0  0  0  0  0
    3.3477   -2.8054  -18.8107 H   0  0  0  0  0  0  0  0  0  0  0  0
    3.1916   -4.5807  -18.5860 H   0  0  0  0  0  0  0  0  0  0  0  0
    5.5114   10.2890  -21.7630 H   0  0  0  0  0  0  0  0  0  0  0  0
    4.4097    9.6057  -20.5198 H   0  0  0  0  0  0  0  0  0  0  0  0
    5.4924   10.9774  -20.1041 H   0  0  0  0  0  0  0  0  0  0  0  0
    6.4525    8.0587  -22.1956 H   0  0  0  0  0  0  0  0  0  0  0  0
    7.2340    7.1109  -20.8851 H   0  0  0  0  0  0  0  0  0  0  0  0
    5.4459    7.2770  -20.9298 H   0  0  0  0  0  0  0  0  0  0  0  0
    6.9605   -5.5212  -16.1529 H   0  0  0  0  0  0  0  0  0  0  0  0
    7.9016   -4.4272  -15.0834 H   0  0  0  0  0  0  0  0  0  0  0  0
    6.1094   -4.4709  -14.9701 H   0  0  0  0  0  0  0  0  0  0  0  0
    8.0086   -4.6216  -18.1421 H   0  0  0  0  0  0  0  0  0  0  0  0
    7.9991   -2.8626  -18.5059 H   0  0  0  0  0  0  0  0  0  0  0  0
    9.0087   -3.4965  -17.1622 H   0  0  0  0  0  0  0  0  0  0  0  0
    4.5020    2.4684  -21.4135 H   0  0  0  0  0  0  0  0  0  0  0  0
    3.4003    1.6682  -20.2419 H   0  0  0  0  0  0  0  0  0  0  0  0
    4.6513    5.9683  -15.5543 H   0  0  0  0  0  0  0  0  0  0  0  0
    3.4395    7.1556  -16.1449 H   0  0  0  0  0  0  0  0  0  0  0  0
    5.1208    3.9413  -16.9585 H   0  0  0  0  0  0  0  0  0  0  0  0
    5.8154    5.0779  -18.1636 H   0  0  0  0  0  0  0  0  0  0  0  0
    7.4753    9.5255  -20.4533 H   0  0  0  0  0  0  0  0  0  0  0  0
    6.1109    2.9823  -19.6974 H   0  0  0  0  0  0  0  0  0  0  0  0
    4.1387    4.4361  -19.8174 H   0  0  0  0  0  0  0  0  0  0  0  0
    4.5752    1.1702  -17.8596 H   0  0  0  0  0  0  0  0  0  0  0  0
    5.7736   -3.7503  -18.5127 H   0  0  0  0  0  0  0  0  0  0  0  0
    3.0631    5.1029  -17.1379 H   0  0  0  0  0  0  0  0  0  0  0  0
    3.6468    6.1063  -18.2864 H   0  0  0  0  0  0  0  0  0  0  0  0
    2.5790    2.8029  -19.1992 H   0  0  0  0  0  0  0  0  0  0  0  0
  1  2  2  0
  1  3  1  0
  2  5  1  0
  3  6  2  0
  4  7  2  0
  4  8  1  0
  5 10  2  0
  6 10  1  0
  7 11  1  0
  8 12  2  0
  9 11  2  0
  9 12  1  0
 10 26  1  0
 11 27  1  0
 12 29  1  0
 13 19  1  0
 13 33  1  0
 13 36  2  0
 14 21  1  0
 14 34  1  0
 14 37  2  0
 15 16  1  0
 15 17  1  0
 16 19  1  0
 17 20  1  0
 18 19  1  0
 18 20  1  0
 20 32  1  0
 22 29  1  0
 23 29  1  0
 24 32  1  0
 25 32  1  0
 26 30  1  0
 27 35  1  0
 28 31  1  0
 28 35  1  0
 30 31  1  0
 30 33  1  0
 31 38  1  0
 32 34  1  0
  1 39  1  0
  2 40  1  0
  3 41  1  0
  4 42  1  0
  5 43  1  0
  6 44  1  0
  7 45  1  0
  8 46  1  0
  9 47  1  0
 15 48  1  0
 15 49  1  0
 16 50  1  0
 16 51  1  0
 17 52  1  0
 17 53  1  0
 18 54  1  0
 18 55  1  0
 19 56  1  1
 20 57  1  1
 21 58  1  0
 21 59  1  0
 21 60  1  0
 22 61  1  0
 22 62  1  0
 22 63  1  0
 23 64  1  0
 23 65  1  0
 23 66  1  0
 24 67  1  0
 24 68  1  0
 24 69  1  0
 25 70  1  0
 25 71  1  0
 25 72  1  0
 26 73  1  0
 26 74  1  0
 27 75  1  0
 27 76  1  0
 28 77  1  0
 28 78  1  0
 29 79  1  0
 30 80  1  6
 31 81  1  6
 33 82  1  0
 34 83  1  0
 35 84  1  0
 35 85  1  0
 38 86  1  0
M  CHG  1  35   1
M  END
>  <OMEGA_C>  (3) 
0R7MQBE0+L8696nBssnjQLRoPr+PyqrBzWCgQK8y87+uQafB1yryQM9xBkFxCYXBJbnPQI42/D7l
76jBm0mMQMFQKr8SVaXBeyLQQA3/80BBMIHB3AnxQKqiDkHTi4/BLaSqQHCh/UAbOpLB0/ejQDQL
CD9BMqbBpaKsQDg27EAgxIfBQY/NQKWrCkEoSpbBvyjSQKeuyT82QozBZdOKQB4SZcDrdIjBzOUA
QQR8ur545WfBVaj9QMlDPz90r3jBqigCQXrf3r8qv3LBKSXYQMjtXL+L5IjBic7VQDgzBD+Pd4PB
oS3cQJGX/r8FbIDBOtVMQOrlZsA2lZDBD8SsQN7cIEH+jaXBstDMQOkf+UAzDanBkvreQKVOkcAd
d3rBGfEAQYBGZ8Cjoo3B+nyOQK+w7D+wC6TBsVaJQN670EAUeIPB65ScQNjIkkAyjo7BR+jPQETt
EEFoJKLBlYOkQJCCJkCAwZrBZW6IQObucUDDi5fBgvHbQMWfWsBAw4XB5zurQJe02j+igZHBSMS0
QFBRZsC7QYzBjw14QOu/skC5tYvBiYPxQG6+DkCg/o7B2GKCQLn9WcB/9X3BYgY/QAjRU0CHC5TB
QJHbQD/WOMAqaqvBD6sCQY8iR78m2azB5UyOQG1QNMCcqKbBMaQGQdHCCUHY4n/BisLhQFF7tD//
m6nBD6FVQAP8Ib+9MqPBPUXRQFrk5kDAZXLBBMcFQQoKGEFwepLBwXmOQLnJ+EDPFZfB7YEPQX8T
TL6qcV7B9MDlQDUMrb4jRF3B+pb6QOa62z94g3DBxToNQQnUQD/LZoHB1IwQQdoY5L9923zBYBoD
QXhmIcA6YmbBwea6QIwHg797no3BVy70QCKCZL9nNY7BHQO5QDRrDj/D1HzBgfO/QIsA978kX3bB
ZXoPQMxOXcAAcIzBc0BWQA6LM8BifJbBukNMQBmVksAzsJTBZF2wQKifJEGsGq7BJRyNQOmwGUFz
KKTBbsGvQJ+jL0Ey1aDB1XrOQGfwAEGhkLHBxHznQIOM40DFFKfBJ0WuQBXd6EBVcKfBd7zeQMyt
sMAmOYHBwNn8QGGrjcCkVXHBL4DDQPERj8C5hW/BWyMAQSTkk8AGI5HBn/j/QHM1N8AQDJTBtiMQ
QRLGX8AdTInBGRCQQM36HUDQTqvBip5ZQFeI1T9b76HB0deUQLT8vkCB3njBhyFcQFz65ECsKIHB
892jQLk+fEDyqofBFBi6QBd+okAhT5HBCDbvQHpoGEFRoKPBs4zDQA7ePkAxlJ3BnXCEQO/0jUAS
ip7BzGeSQNvHlT964I7BQ8G4QDAEcMDsGZTBXApEQJRKo0BsGonB22VpQNZmw0CJSpLBHg4lQD9i
M0D1l5nB8SXMQE4D9b/7GarB6uvjQDOIOL/W8arBypWgQELF778POKfBQrzZQKd2BkHjk5XBYCHQ
QHoTBD8Q8ajBssSMQH1zI7+DKKXBU7qzQFQq+EDLepLBJNP6QHeXCUGhAI7BDEnQQHL97kDva4DB
bYikQP41Dj+PEabBXJOvQPbx6ECi24fBlNz1QAM+AkE1T4PBqb3SQNg+yT+LGYzBj26KQAZ6ZMAH
RYjBx0MBQU/zyb6e3mfBuG3+QEBtOT+jinjBaFYCQYNH4r/N2nLB/nHYQNw/Xr9g3IjB+GjWQNmf
AT+bXIPBb2LcQPcRAMBIc4DBQhtLQJmQY8DUQ5DBKuUPQRPyHUEVw3HB06ogQc2r80AyWXrBeCDf
QN3LkcDJ2XrB/pgAQdB4Z8BQ443BmjWPQDZy7z9646PB7EKIQPNw0kB9DITBMnabQI8PkkAsII7B
b8ELQeTZBUHiMnXBHe+kQGsuJ0BBgprBcpOIQGUfckAPXJfBL7jbQNsHW8Ac34XBGaarQIXS2z+R
RJHBmCG0QD7HZcCvO4zBKtx2QItos0BDAIzB1zXyQPkDDkDP4I7B2JyCQBBKW8AcdH3B7jg+QPmB
VEAJPJTBK2PbQH1CN8DRq6vBSasCQSfNQb8sIa3BpnOOQI+DMsAemKbBtaLdQM4EDEFis53Bkz7i
QIdLtz/ImanBAeRWQDKJGr9m4qLBwP2ZQMLi80BbJZjBIvwLQcCYEUEvW5DBwprMQCf/4kDwvXDB
evAPQbk4dL6Eel7B25rmQPLiu77aKV3Bo5v7QER22D/zQ3DBsZENQb28Oj+9XIHBNbAQQSPS578k
BX3BrjwDQZFtI8AhkmbBUR67QEaTgr/Kko3BmWn0QJjtZb/5Mo7BJbe5QJLcCz+7jHzBr0DAQPRR
+L/9XXbBEF0OQKccWsDy+YvBa4dUQF4LL8BiAZbB3D5JQCFxkMD0lJTB0gUcQZoWIEFJMGXBEK0V
QQIaJUEcYoDBQu8AQUnUJUFz4mzBX2ksQQp6+UDBkG3BU2MdQckp0UD1fXvBlCAnQQ83/0Ca1YTB
lJHeQGsJscBVeoHBD0P9QB1kjsB96nHB7vbDQMGoj8AgtW/BEkn/QPPhk8DkcJHBvgD/QJwGN8DU
P5TB6esPQQ9qYMCEponB9SKRQJ3HH0DzG6vBLtxaQFyP2D923qHBDxGPQM4PwkAv5XjB7sVcQHXR
6UA52YLBoNqfQFPWekAuFYfBu1i6QItXoEDrYJDBeWcFQQOk/kDTI2bBXvnDQLD7P0B/RJ3BEZqF
QCSTjkDySJ7B+rqSQJP3lz9ZlY7BRJ63QNrPbsDcGpTBWTRBQOUxpUAceYnBzzlrQOntwkAc2JLB
5lwlQOLkNEAw75nB

>  <OMEGA_E>  (3) 
bMYxP8TdRD8=

>  <OMEGA_NBR>  (3) 
     21199

$$$$
50161014
     RDKit          3D

 86 87  0  0  1  0  0  0  0  0999 V2000
    6.5411   -1.9897  -21.4286 C   0  0  0  0  0  0  0  0  0  0  0  0
    6.9762   -0.7798  -22.0062 C   0  0  0  0  0  0  0  0  0  0  0  0
    5.4589   -1.9883  -20.5275 C   0  0  0  0  0  0  0  0  0  0  0  0
    6.3282    0.4318  -21.6843 C   0  0  0  0  0  0  0  0  0  0  0  0
    4.8145   -0.7779  -20.1970 C   0  0  0  0  0  0  0  0  0  0  0  0
    5.2360    0.4373  -20.7872 C   0  0  0  0  0  0  0  0  0  0  0  0
    6.5526    1.3432  -17.5002 C   0  0  0  0  0  0  0  0  0  0  0  0
    7.3133   -5.2796  -14.5957 C   0  0  0  0  0  0  0  0  0  0  0  0
    5.1825    6.8966  -18.6530 C   0  0  0  0  0  0  0  0  0  0  0  0
    7.6083   -0.2966  -14.1276 C   0  0  0  0  0  0  0  0  0  0  0  0
    7.6913    0.6600  -15.3267 C   0  0  0  0  0  0  0  0  0  0  0  0
    7.5451   -1.7618  -14.6033 C   0  0  0  0  0  0  0  0  0  0  0  0
    6.3944   -1.0124  -16.7428 C   0  0  0  0  0  0  0  0  0  0  0  0
    6.4817    0.4472  -16.2637 C   0  0  2  0  0  0  0  0  0  0  0  0
    6.3343   -2.0017  -15.5526 C   0  0  1  0  0  0  0  0  0  0  0  0
    7.1687   -6.1186  -13.3263 C   0  0  0  0  0  0  0  0  0  0  0  0
    3.9352    8.8902  -23.8729 C   0  0  0  0  0  0  0  0  0  0  0  0
    5.2294    6.5391  -16.1660 C   0  0  0  0  0  0  0  0  0  0  0  0
    5.1825   -5.2653  -17.5190 C   0  0  0  0  0  0  0  0  0  0  0  0
    3.7491   -3.4917  -16.4176 C   0  0  0  0  0  0  0  0  0  0  0  0
    4.5247    1.7453  -20.4444 C   0  0  0  0  0  0  0  0  0  0  0  0
    4.5035    9.3979  -22.5365 C   0  0  0  0  0  0  0  0  0  0  0  0
    4.1673    8.4172  -21.3940 C   0  0  0  0  0  0  0  0  0  0  0  0
    5.1798    4.5169  -17.6957 C   0  0  0  0  0  0  0  0  0  0  0  0
    4.7382    8.9396  -20.0623 C   0  0  0  0  0  0  0  0  0  0  0  0
    4.6999    5.9811  -17.5055 C   0  0  2  0  0  0  0  0  0  0  0  0
    6.3249   -3.4740  -16.0774 C   0  0  2  0  0  0  0  0  0  0  0  0
    5.1338   -3.7929  -17.0465 C   0  0  0  0  0  0  0  0  0  0  0  0
    5.2430    2.5215  -19.3063 C   0  0  1  0  0  0  0  0  0  0  0  0
    4.4985    3.8331  -18.9215 C   0  0  1  0  0  0  0  0  0  0  0  0
    5.3533    1.6613  -18.1214 N   0  0  0  0  0  0  0  0  0  0  0  0
    4.4193    8.0169  -18.9648 N   0  0  0  0  0  0  0  0  0  0  0  0
    6.2893   -4.3957  -14.9252 N   0  0  0  0  0  0  0  0  0  0  0  0
    7.6342    1.6902  -17.9669 O   0  0  0  0  0  0  0  0  0  0  0  0
    8.3625   -5.3180  -15.2309 O   0  0  0  0  0  0  0  0  0  0  0  0
    6.2392    6.6688  -19.2368 O   0  0  0  0  0  0  0  0  0  0  0  0
    3.1302    3.5636  -18.5975 O   0  0  0  0  0  0  0  0  0  0  0  0
    7.0369   -2.9165  -21.6768 H   0  0  0  0  0  0  0  0  0  0  0  0
    7.8070   -0.7800  -22.6963 H   0  0  0  0  0  0  0  0  0  0  0  0
    5.1218   -2.9157  -20.0886 H   0  0  0  0  0  0  0  0  0  0  0  0
    6.6679    1.3576  -22.1246 H   0  0  0  0  0  0  0  0  0  0  0  0
    3.9970   -0.7786  -19.4913 H   0  0  0  0  0  0  0  0  0  0  0  0
    8.4976   -0.1604  -13.4947 H   0  0  0  0  0  0  0  0  0  0  0  0
    6.7044   -0.0669  -13.5442 H   0  0  0  0  0  0  0  0  0  0  0  0
    7.6914    1.6984  -14.9638 H   0  0  0  0  0  0  0  0  0  0  0  0
    8.6203    0.4658  -15.8828 H   0  0  0  0  0  0  0  0  0  0  0  0
    8.4740   -2.0035  -15.1407 H   0  0  0  0  0  0  0  0  0  0  0  0
    7.4473   -2.4185  -13.7263 H   0  0  0  0  0  0  0  0  0  0  0  0
    5.4878   -1.1338  -17.3537 H   0  0  0  0  0  0  0  0  0  0  0  0
    7.2809   -1.2414  -17.3526 H   0  0  0  0  0  0  0  0  0  0  0  0
    5.5638    0.6877  -15.7072 H   0  0  0  0  0  0  0  0  0  0  0  0
    5.4056   -1.8236  -14.9907 H   0  0  0  0  0  0  0  0  0  0  0  0
    8.0978   -6.6804  -13.1497 H   0  0  0  0  0  0  0  0  0  0  0  0
    6.9723   -5.4567  -12.4699 H   0  0  0  0  0  0  0  0  0  0  0  0
    6.3317   -6.8223  -13.4454 H   0  0  0  0  0  0  0  0  0  0  0  0
    4.1856    9.6027  -24.6727 H   0  0  0  0  0  0  0  0  0  0  0  0
    4.3714    7.9080  -24.1072 H   0  0  0  0  0  0  0  0  0  0  0  0
    2.8420    8.7967  -23.7944 H   0  0  0  0  0  0  0  0  0  0  0  0
    4.8918    5.8948  -15.3408 H   0  0  0  0  0  0  0  0  0  0  0  0
    6.3289    6.5614  -16.1873 H   0  0  0  0  0  0  0  0  0  0  0  0
    4.8448    7.5587  -16.0160 H   0  0  0  0  0  0  0  0  0  0  0  0
    6.1659   -5.4757  -17.9645 H   0  0  0  0  0  0  0  0  0  0  0  0
    5.0195   -5.9318  -16.6591 H   0  0  0  0  0  0  0  0  0  0  0  0
    4.3962   -5.4357  -18.2691 H   0  0  0  0  0  0  0  0  0  0  0  0
    3.7178   -2.4443  -16.0828 H   0  0  0  0  0  0  0  0  0  0  0  0
    2.9617   -3.6607  -17.1669 H   0  0  0  0  0  0  0  0  0  0  0  0
    3.5850   -4.1567  -15.5569 H   0  0  0  0  0  0  0  0  0  0  0  0
    4.4963    2.3794  -21.3428 H   0  0  0  0  0  0  0  0  0  0  0  0
    3.4975    1.5169  -20.1242 H   0  0  0  0  0  0  0  0  0  0  0  0
    5.5961    9.4927  -22.6213 H   0  0  0  0  0  0  0  0  0  0  0  0
    4.0667   10.3814  -22.3085 H   0  0  0  0  0  0  0  0  0  0  0  0
    3.0750    8.3195  -21.3081 H   0  0  0  0  0  0  0  0  0  0  0  0
    4.6069    7.4340  -21.6174 H   0  0  0  0  0  0  0  0  0  0  0  0
    6.2690    4.5173  -17.8492 H   0  0  0  0  0  0  0  0  0  0  0  0
    4.9375    3.9431  -16.7890 H   0  0  0  0  0  0  0  0  0  0  0  0
    5.8307    9.0336  -20.1495 H   0  0  0  0  0  0  0  0  0  0  0  0
    4.3017    9.9254  -19.8439 H   0  0  0  0  0  0  0  0  0  0  0  0
    3.6001    5.9913  -17.4833 H   0  0  0  0  0  0  0  0  0  0  0  0
    7.2600   -3.6373  -16.6332 H   0  0  0  0  0  0  0  0  0  0  0  0
    5.2465   -3.1514  -17.9329 H   0  0  0  0  0  0  0  0  0  0  0  0
    6.2509    2.7894  -19.6561 H   0  0  0  0  0  0  0  0  0  0  0  0
    4.5528    4.5242  -19.7755 H   0  0  0  0  0  0  0  0  0  0  0  0
    4.5116    1.2810  -17.7382 H   0  0  0  0  0  0  0  0  0  0  0  0
    3.6082    8.2047  -18.4108 H   0  0  0  0  0  0  0  0  0  0  0  0
    5.4764   -4.3846  -14.3429 H   0  0  0  0  0  0  0  0  0  0  0  0
    2.7052    3.1467  -19.3378 H   0  0  0  0  0  0  0  0  0  0  0  0
  1  2  2  0
  1  3  1  0
  2  4  1  0
  3  5  2  0
  4  6  2  0
  5  6  1  0
  6 21  1  0
  7 14  1  0
  7 31  1  0
  7 34  2  0
  8 16  1  0
  8 33  1  0
  8 35  2  0
  9 26  1  0
  9 32  1  0
  9 36  2  0
 10 11  1  0
 10 12  1  0
 11 14  1  0
 12 15  1  0
 13 14  1  0
 13 15  1  0
 15 27  1  0
 17 22  1  0
 18 26  1  0
 19 28  1  0
 20 28  1  0
 21 29  1  0
 22 23  1  0
 23 25  1  0
 24 26  1  0
 24 30  1  0
 25 32  1  0
 27 28  1  0
 27 33  1  0
 29 30  1  0
 29 31  1  0
 30 37  1  0
  1 38  1  0
  2 39  1  0
  3 40  1  0
  4 41  1  0
  5 42  1  0
 10 43  1  0
 10 44  1  0
 11 45  1  0
 11 46  1  0
 12 47  1  0
 12 48  1  0
 13 49  1  0
 13 50  1  0
 14 51  1  1
 15 52  1  1
 16 53  1  0
 16 54  1  0
 16 55  1  0
 17 56  1  0
 17 57  1  0
 17 58  1  0
 18 59  1  0
 18 60  1  0
 18 61  1  0
 19 62  1  0
 19 63  1  0
 19 64  1  0
 20 65  1  0
 20 66  1  0
 20 67  1  0
 21 68  1  0
 21 69  1  0
 22 70  1  0
 22 71  1  0
 23 72  1  0
 23 73  1  0
 24 74  1  0
 24 75  1  0
 25 76  1  0
 25 77  1  0
 26 78  1  1
 27 79  1  6
 28 80  1  0
 29 81  1  6
 30 82  1  6
 31 83  1  0
 32 84  1  0
 33 85  1  0
 37 86  1  0
M  END
>  <OMEGA_C>  (4) 
2VDRQOmt/r/TbavBaz3fQKKhR7+7DLDBsq+uQHd//r9ROKTB4oDKQKQT3T5lea3BmhCaQAEnR79p
k6HBBo2nQIzg3z5ETKbBPq/RQP7tqz94AIzBKAbqQG3yqMDoh2nB0talQNyw3EBnOZXBHXfzQBnX
l757CmLBux72QNH3KD86OnXBZ3HxQLqC4b9Ep2nBUJ/MQOiXgb8x8YXBSGrPQKrx5D4KHILB2bLK
QI0bAMCG13jBGmblQDjLw8B0OFXBHtp7QGw+DkGm+77BF1enQA5A0UD8U4HBrNalQLt9qMDTJozB
XvFvQPB3X8A9V4PBf8qQQLhm3z8fjqPBiRyQQLldFkG0SrTBdFqFQNqsBkHpJqvBksClQFmKkEC3
kI3BLp+XQLIID0GGf6DBM2WWQGxlv0A2C4zBe2XKQE9WXsCenoDBI0ikQGG+csAsX4jBhcanQMhg
IUBPc5rBufOPQJlRdUAzX5fBO06rQF+m1D+Y+JDBJ2uNQFtFAEH4t5fBNELJQLupjMCAzW7BdUv0
QL5Y2D9HvI/B0swFQd4sqsD0sXPBOKfHQBhn1UAG5ZnBQVVIQI4RZECnx5TBry7hQK2nOsAXaq3B
39L5QPyuR78YkrXBzeWjQOqaOsCOtaDBo1/VQGLFrT89/7DBac5/QJdQR78l7pvBOPYHQbczJL4m
6lfBuorWQCESib0GtVjB4h/2QIpm2T+/a2/BjewJQcSC7j4FIH7BdJUHQQA6AMAmQHLBSlDuQOPI
GsD6nlvB/5uvQLogkb9m1IrBzfzoQEDmnr8P0orBDguyQJYOMD/eUHvBnPqsQLJq6b8I2m/BZpAB
QTbG1cBYZVLB3hzfQH2drsC3hEfBfJ3KQFtQ2sA+IFfBe/CFQKmkGUGnYcXBYuKLQC0O/UCC28DB
IuM1QC2/DEHqWr7BkImcQI2ivEDTc3XBvYbKQBv30UCmf4HBRAibQILg8UC4IIDBUU/FQPU4r8BV
t4/Bu5+gQBHRvcDfRYXBjq2MQKjxrcAoJ5LBD/FtQCRwHMCbqYDBMow9QFFIasDAVYnBi3BlQJED
hcDu6HjBmeGPQP1HGEASvqrBSdZfQDMpwj9P/qDBQhOzQAriF0F4+LTBcSKCQCAaJkHgd7LB/MxE
QJscBUEId6rBFmyTQPDi7UCJ8KzBj5vIQG+NkEApy47Bx/+dQI1cfEDGT4bB95S6QHmJEEE0MqHB
TKeJQH7OHkFXwJ7BcmhmQOS4v0C73YvBC1LoQNXIaMDaEIXBCeOnQDGwScCgdo/BWgfIQO6EMkC/
P53B1LCRQGPGkEBPNJ7BwV6QQAP5oz+9543Biu1mQGVGA0FrSZPBnD6vQGxOjMCifGXBKCItQABj
SUDTs5rB

>  <OMEGA_E>  (4) 
jtJcPw==

>  <OMEGA_NBR>  (4) 
     22920

$$$$
50161017
     RDKit          3D

 87 89  0  0  1  0  0  0  0  0999 V2000
    6.7548   -1.7396  -21.4315 C   0  0  0  0  0  0  0  0  0  0  0  0
    7.3696   -0.4739  -21.4984 C   0  0  0  0  0  0  0  0  0  0  0  0
    5.4009   -1.8479  -21.0557 C   0  0  0  0  0  0  0  0  0  0  0  0
    6.6300    0.6845  -21.1958 C   0  0  0  0  0  0  0  0  0  0  0  0
    4.6608   -0.6907  -20.7447 C   0  0  0  0  0  0  0  0  0  0  0  0
    5.2731    0.5802  -20.8128 C   0  0  0  0  0  0  0  0  0  0  0  0
    6.6013    1.5364  -17.5239 C   0  0  0  0  0  0  0  0  0  0  0  0
    4.2747   -3.5535  -17.1444 C   0  0  0  0  0  0  0  0  0  0  0  0
    5.5341    6.6830  -18.5674 C   0  0  0  0  0  0  0  0  0  0  0  0
    7.3190   -5.6663  -16.4141 C   0  0  0  0  0  0  0  0  0  0  0  0
    8.1338   -5.0638  -17.5807 C   0  0  0  0  0  0  0  0  0  0  0  0
    7.8495   -0.2345  -14.3181 C   0  0  0  0  0  0  0  0  0  0  0  0
    7.8576    0.8003  -15.4458 C   0  0  0  0  0  0  0  0  0  0  0  0
    7.9001   -1.6549  -14.8907 C   0  0  0  0  0  0  0  0  0  0  0  0
    6.8549   -4.4838  -15.5684 C   0  0  0  0  0  0  0  0  0  0  0  0
    8.0262   -3.5424  -17.4430 C   0  0  0  0  0  0  0  0  0  0  0  0
    6.7352   -0.8334  -17.0002 C   0  0  0  0  0  0  0  0  0  0  0  0
    6.6553    0.5549  -16.3780 C   0  0  2  0  0  0  0  0  0  0  0  0
    6.7321   -1.9083  -15.8989 C   0  0  1  0  0  0  0  0  0  0  0  0
    6.7697   -3.3161  -16.5720 C   0  0  0  0  0  0  0  0  0  0  0  0
    3.2416   -3.7167  -18.2563 C   0  0  0  0  0  0  0  0  0  0  0  0
    6.3221    9.8178  -22.9496 C   0  0  0  0  0  0  0  0  0  0  0  0
    4.9791    6.5053  -16.1321 C   0  0  0  0  0  0  0  0  0  0  0  0
    4.4826    1.8245  -20.4480 C   0  0  0  0  0  0  0  0  0  0  0  0
    5.4549   10.4384  -21.8417 C   0  0  0  0  0  0  0  0  0  0  0  0
    4.7161    9.3655  -21.0243 C   0  0  0  0  0  0  0  0  0  0  0  0
    5.0167    4.4407  -17.5802 C   0  0  0  0  0  0  0  0  0  0  0  0
    5.6867    8.5942  -20.1319 C   0  0  0  0  0  0  0  0  0  0  0  0
    4.6908    5.9365  -17.5277 C   0  0  2  0  0  0  0  0  0  0  0  0
    5.1762    2.5848  -19.2971 C   0  0  1  0  0  0  0  0  0  0  0  0
    4.3756    3.8132  -18.8411 C   0  0  1  0  0  0  0  0  0  0  0  0
    5.3832    1.6813  -18.1660 N   0  0  0  0  0  0  0  0  0  0  0  0
    5.6192   -3.5018  -17.4968 N   0  0  0  0  0  0  0  0  0  0  0  0
    4.9215    7.6616  -19.3197 N   0  0  0  0  0  0  0  0  0  0  0  0
    7.6214    2.0821  -17.9335 O   0  0  0  0  0  0  0  0  0  0  0  0
    3.8962   -3.3677  -15.9937 O   0  0  0  0  0  0  0  0  0  0  0  0
    6.7448    6.4925  -18.6508 O   0  0  0  0  0  0  0  0  0  0  0  0
    3.0267    3.4728  -18.5253 O   0  0  0  0  0  0  0  0  0  0  0  0
    7.3215   -2.6279  -21.6684 H   0  0  0  0  0  0  0  0  0  0  0  0
    8.4086   -0.3925  -21.7819 H   0  0  0  0  0  0  0  0  0  0  0  0
    4.9306   -2.8188  -21.0061 H   0  0  0  0  0  0  0  0  0  0  0  0
    7.0999    1.6551  -21.2563 H   0  0  0  0  0  0  0  0  0  0  0  0
    3.6241   -0.7753  -20.4539 H   0  0  0  0  0  0  0  0  0  0  0  0
    6.4525   -6.2227  -16.8008 H   0  0  0  0  0  0  0  0  0  0  0  0
    7.9498   -6.3398  -15.8154 H   0  0  0  0  0  0  0  0  0  0  0  0
    9.1856   -5.3786  -17.5125 H   0  0  0  0  0  0  0  0  0  0  0  0
    7.7155   -5.3891  -18.5447 H   0  0  0  0  0  0  0  0  0  0  0  0
    8.7257   -0.0731  -13.6728 H   0  0  0  0  0  0  0  0  0  0  0  0
    6.9307   -0.1160  -13.7251 H   0  0  0  0  0  0  0  0  0  0  0  0
    7.7884    1.8107  -15.0166 H   0  0  0  0  0  0  0  0  0  0  0  0
    8.7913    0.7091  -16.0202 H   0  0  0  0  0  0  0  0  0  0  0  0
    8.8587   -1.7965  -15.4114 H   0  0  0  0  0  0  0  0  0  0  0  0
    7.8218   -2.3765  -14.0642 H   0  0  0  0  0  0  0  0  0  0  0  0
    5.8710   -4.6863  -15.1201 H   0  0  0  0  0  0  0  0  0  0  0  0
    7.5819   -4.2631  -14.7729 H   0  0  0  0  0  0  0  0  0  0  0  0
    8.9198   -3.1333  -16.9488 H   0  0  0  0  0  0  0  0  0  0  0  0
    7.9046   -3.0710  -18.4294 H   0  0  0  0  0  0  0  0  0  0  0  0
    5.8688   -0.9865  -17.6604 H   0  0  0  0  0  0  0  0  0  0  0  0
    7.6622   -0.9163  -17.5867 H   0  0  0  0  0  0  0  0  0  0  0  0
    5.7287    0.6324  -15.7903 H   0  0  0  0  0  0  0  0  0  0  0  0
    5.7858   -1.8258  -15.3442 H   0  0  0  0  0  0  0  0  0  0  0  0
    2.2299   -3.6380  -17.8318 H   0  0  0  0  0  0  0  0  0  0  0  0
    3.3857   -2.9277  -19.0091 H   0  0  0  0  0  0  0  0  0  0  0  0
    3.3650   -4.7020  -18.7295 H   0  0  0  0  0  0  0  0  0  0  0  0
    6.8313   10.6169  -23.5083 H   0  0  0  0  0  0  0  0  0  0  0  0
    7.0717    9.1512  -22.4982 H   0  0  0  0  0  0  0  0  0  0  0  0
    5.6837    9.2409  -23.6349 H   0  0  0  0  0  0  0  0  0  0  0  0
    4.3743    5.9701  -15.3853 H   0  0  0  0  0  0  0  0  0  0  0  0
    6.0465    6.3790  -15.8982 H   0  0  0  0  0  0  0  0  0  0  0  0
    4.7235    7.5751  -16.1124 H   0  0  0  0  0  0  0  0  0  0  0  0
    4.4149    2.4817  -21.3275 H   0  0  0  0  0  0  0  0  0  0  0  0
    3.4710    1.5312  -20.1307 H   0  0  0  0  0  0  0  0  0  0  0  0
    6.1015   11.0178  -21.1662 H   0  0  0  0  0  0  0  0  0  0  0  0
    4.7135   11.1075  -22.3029 H   0  0  0  0  0  0  0  0  0  0  0  0
    3.9571    9.8522  -20.3942 H   0  0  0  0  0  0  0  0  0  0  0  0
    4.2248    8.6628  -21.7134 H   0  0  0  0  0  0  0  0  0  0  0  0
    6.1076    4.3049  -17.6181 H   0  0  0  0  0  0  0  0  0  0  0  0
    4.6167    3.9472  -16.6822 H   0  0  0  0  0  0  0  0  0  0  0  0
    6.4050    8.0414  -20.7551 H   0  0  0  0  0  0  0  0  0  0  0  0
    6.2296    9.2951  -19.4807 H   0  0  0  0  0  0  0  0  0  0  0  0
    3.6253    6.0801  -17.7601 H   0  0  0  0  0  0  0  0  0  0  0  0
    6.1544    2.9317  -19.6614 H   0  0  0  0  0  0  0  0  0  0  0  0
    4.3949    4.5610  -19.6476 H   0  0  0  0  0  0  0  0  0  0  0  0
    4.6069    1.1416  -17.8403 H   0  0  0  0  0  0  0  0  0  0  0  0
    5.8339   -3.5990  -18.4686 H   0  0  0  0  0  0  0  0  0  0  0  0
    3.9241    7.7324  -19.3068 H   0  0  0  0  0  0  0  0  0  0  0  0
    2.6111    3.0847  -19.2862 H   0  0  0  0  0  0  0  0  0  0  0  0
  1  2  2  0
  1  3  1  0
  2  4  1  0
  3  5  2  0
  4  6  2  0
  5  6  1  0
  6 24  1  0
  7 18  1  0
  7 32  1  0
  7 35  2  0
  8 21  1  0
  8 33  1  0
  8 36  2  0
  9 29  1  0
  9 34  1  0
  9 37  2  0
 10 11  1  0
 10 15  1  0
 11 16  1  0
 12 13  1  0
 12 14  1  0
 13 18  1  0
 14 19  1  0
 15 20  1  0
 16 20  1  0
 17 18  1  0
 17 19  1  0
 19 20  1  0
 20 33  1  0
 22 25  1  0
 23 29  1  0
 24 30  1  0
 25 26  1  0
 26 28  1  0
 27 29  1  0
 27 31  1  0
 28 34  1  0
 30 31  1  0
 30 32  1  0
 31 38  1  0
  1 39  1  0
  2 40  1  0
  3 41  1  0
  4 42  1  0
  5 43  1  0
 10 44  1  0
 10 45  1  0
 11 46  1  0
 11 47  1  0
 12 48  1  0
 12 49  1  0
 13 50  1  0
 13 51  1  0
 14 52  1  0
 14 53  1  0
 15 54  1  0
 15 55  1  0
 16 56  1  0
 16 57  1  0
 17 58  1  0
 17 59  1  0
 18 60  1  1
 19 61  1  1
 21 62  1  0
 21 63  1  0
 21 64  1  0
 22 65  1  0
 22 66  1  0
 22 67  1  0
 23 68  1  0
 23 69  1  0
 23 70  1  0
 24 71  1  0
 24 72  1  0
 25 73  1  0
 25 74  1  0
 26 75  1  0
 26 76  1  0
 27 77  1  0
 27 78  1  0
 28 79  1  0
 28 80  1  0
 29 81  1  6
 30 82  1  6
 31 83  1  6
 32 84  1  0
 33 85  1  0
 34 86  1  0
 38 87  1  0
M  END
>  <OMEGA_C>  (5) 
7CbYQGOs3r+mc6vB+tPrQJyh8r66/KvBfdSsQKuH7L8FcqjBECnUQOY8Lz8NkanBISWVQNrSML8t
9aXBLL2oQAaFFD+3gKbB3T3TQEKnxD8CMYzBssqIQKdsY8DIJ4nBZxexQCXb1UAZipTBIDXqQAlS
tcAZUIPB5iMCQQ4LosBIpYzBVy/7QFMWcL7vFmXBznH7QMjeTD8JInfB1838QErU07+AQG7BMFvb
QCt7j8AtGHnBYGsAQSW2YsA8i4vBHofXQJxYVb9/AIjBMPjUQFoPDj8XBoPBN23XQAxE9L/WYX7B
uqHYQIQ7VMCNk4TBJHdPQCTebcDPDJLB2k7KQMgVHUHImLfBAlWfQL0r0ECkDoHBS3GPQI2J6T93
laPBeo6uQMoDJ0HCu67BUOqWQA3ZFUGtMajBfoigQPoZjkBRpIzBbfm1QOqBCUEcDqHBFRuWQHv3
vUDBOIzBLqOlQA9tJUBxYJrB+ASMQMoLdECXupbBNEOsQJMz1z/vU5HBOdCzQOUcYMB2+YvBDn2d
QAEs9UDKjprBpuLzQL5ABUDJd4/BXFt5QOKIV8D+5X/BVdXXQJXCz0DKNJXBUrVBQAxDXkC6M5TB
6knqQKovKMDnWK3BgYkGQRD7yL5aQa7BusedQPFnNMB0DKjBETLjQL3Z0z/jDKrBbPFnQGZ3Rr+f
oaPBqHrOQJ0gx8D3Z4bB8GT+QGHfysDvC33BFPgSQWsdrMCgGYzBIuX2QFpzrMCCW5TBXZwLQfLO
lb3+w1rB7MfdQJWd7b0HmlvByjr5QGDF5z/2Q3DBPqkMQcyENT9gKYDBPr0NQTjy5b8vlXbB8Uv6
QMAYGMACB2HBLt+7QNn1lcD163HBj57yQDZriMDbXWzBXLcOQSOISMAbl4fB3vL8QPiLRMB6b5PB
Cc27QCKLfL96SI3BmzD1QOSPar+IsYzBKVG3QLflIT8opXzBDCW5QBO06b/MgXXBerYOQN3UaMCN
p47BDK9YQMlfO8CoEpjBCVxXQL92lsD81ZXBOZraQPDeKUH8ELzBe0viQGNrEkFQ/LPBF+G1QNza
E0FMFL3Ba/qLQFULv0A/KnbB8XzBQLggzEDjXn7BSSeXQNZm8kAy5oDBuEaNQCbUHkCunqrB3iRe
QAH9wz+5C6HBoD/DQMFIMEFrVKnBPNWWQDm4MUFmbLLBBEF9QKuiHUFEJ6PByjGHQOCaCkEAta3B
W3HDQGbBiUDu8YzBGLyTQBCffEARdYXBwvXMQHupAEF6CqbB3ljHQMe4FEGK2JvBOQRoQMyPwkCd
FI7Bv/DEQLKhO0CBSp3BXKOMQJLzkUBYLp3Bo2uTQMcfkj/auI7BFa+6QHdWZsDCv5PBkCR7QM5v
90BhdJrBzBsnQIBrRUA4SprB

>  <OMEGA_E>  (5) 
8GGFPg==

>  <OMEGA_NBR>  (5) 
     24657

$$$$
