50147863
     RDKit          3D

 88 91  0  0  1  0  0  0  0  0999 V2000
    5.4268   10.4544  -21.9708 C   0  0  0  0  0  0  0  0  0  0  0  0
    5.5356    9.0521  -22.0607 C   0  0  0  0  0  0  0  0  0  0  0  0
    5.8639   11.1235  -20.8105 C   0  0  0  0  0  0  0  0  0  0  0  0
    6.0868    8.3186  -20.9919 C   0  0  0  0  0  0  0  0  0  0  0  0
    6.4126   10.3926  -19.7406 C   0  0  0  0  0  0  0  0  0  0  0  0
    6.7931   -0.1499  -16.7015 C   0  0  0  0  0  0  0  0  0  0  0  0
    8.4049    1.4091  -15.7407 C   0  0  0  0  0  0  0  0  0  0  0  0
    8.0672   -0.7774  -14.7168 C   0  0  0  0  0  0  0  0  0  0  0  0
    6.8373    1.0968  -21.3677 C   0  0  0  0  0  0  0  0  0  0  0  0
    5.0288   -0.4174  -20.7292 C   0  0  0  0  0  0  0  0  0  0  0  0
    7.1338   -1.3128  -21.5741 C   0  0  0  0  0  0  0  0  0  0  0  0
    7.4382    1.1042  -16.7238 C   0  0  0  0  0  0  0  0  0  0  0  0
    7.1285   -1.0990  -15.7153 C   0  0  0  0  0  0  0  0  0  0  0  0
    6.5296    8.9897  -19.8276 C   0  0  0  0  0  0  0  0  0  0  0  0
    8.6970    0.4814  -14.7212 C   0  0  0  0  0  0  0  0  0  0  0  0
    5.5310    0.8897  -20.8696 C   0  0  0  0  0  0  0  0  0  0  0  0
    7.6411   -0.0058  -21.7079 C   0  0  0  0  0  0  0  0  0  0  0  0
    5.8248   -1.5146  -21.0945 C   0  0  0  0  0  0  0  0  0  0  0  0
    6.1035    5.9415  -18.4868 C   0  0  0  0  0  0  0  0  0  0  0  0
    7.0996    2.0835  -17.7664 C   0  0  0  0  0  0  0  0  0  0  0  0
    6.5240   -2.4370  -15.7453 C   0  0  0  0  0  0  0  0  0  0  0  0
    4.9723    7.8721  -17.3889 C   0  0  0  0  0  0  0  0  0  0  0  0
    4.3204    6.8455  -16.4637 C   0  0  0  0  0  0  0  0  0  0  0  0
    5.0546    4.9583  -17.8716 C   0  0  2  0  0  0  0  0  0  0  0  0
    9.7488    0.8020  -13.6847 C   0  0  0  0  0  0  0  0  0  0  0  0
    3.5305   -3.6501  -17.3811 C   0  0  0  0  0  0  0  0  0  0  0  0
    9.4434   -4.4149  -17.0484 C   0  0  0  0  0  0  0  0  0  0  0  0
    4.6665    2.0604  -20.4740 C   0  0  0  0  0  0  0  0  0  0  0  0
    7.1209    8.2226  -18.6631 C   0  0  0  0  0  0  0  0  0  0  0  0
    4.7372   -4.3668  -17.9857 C   0  0  0  0  0  0  0  0  0  0  0  0
    8.6178   -4.0578  -18.2977 C   0  0  0  0  0  0  0  0  0  0  0  0
    5.8774   -4.5318  -16.9676 C   0  0  0  0  0  0  0  0  0  0  0  0
    7.6040   -2.9432  -17.9844 C   0  0  0  0  0  0  0  0  0  0  0  0
    4.4132    4.0092  -18.9052 C   0  0  2  0  0  0  0  0  0  0  0  0
    5.3784    2.9254  -19.4217 C   0  0  1  0  0  0  0  0  0  0  0  0
    6.1279    7.2882  -18.0957 N   0  0  0  0  0  0  0  0  0  0  0  0
    5.8186    2.0696  -18.3080 N   0  0  0  0  0  0  0  0  0  0  0  0
    6.6878   -3.2932  -16.8535 N   0  0  0  0  0  0  0  0  0  0  0  0
    3.9155    5.6927  -17.2731 N   0  0  0  0  0  0  0  0  0  0  0  0
    6.9871    5.5115  -19.2196 O   0  0  0  0  0  0  0  0  0  0  0  0
    7.9369    2.9016  -18.1315 O   0  0  0  0  0  0  0  0  0  0  0  0
    5.8907   -2.7973  -14.7590 O   0  0  0  0  0  0  0  0  0  0  0  0
    3.9054    4.7861  -19.9908 O   0  0  0  0  0  0  0  0  0  0  0  0
    8.8960    0.1910  -22.1705 F   0  0  0  0  0  0  0  0  0  0  0  0
    5.3272   -2.7637  -20.9947 F   0  0  0  0  0  0  0  0  0  0  0  0
    5.0078   11.0167  -22.7923 H   0  0  0  0  0  0  0  0  0  0  0  0
    5.1964    8.5399  -22.9490 H   0  0  0  0  0  0  0  0  0  0  0  0
    5.7779   12.1979  -20.7422 H   0  0  0  0  0  0  0  0  0  0  0  0
    6.1713    7.2441  -21.0610 H   0  0  0  0  0  0  0  0  0  0  0  0
    6.7447   10.9068  -18.8508 H   0  0  0  0  0  0  0  0  0  0  0  0
    6.0414   -0.3831  -17.4410 H   0  0  0  0  0  0  0  0  0  0  0  0
    8.9222    2.3567  -15.7703 H   0  0  0  0  0  0  0  0  0  0  0  0
    8.3043   -1.4968  -13.9469 H   0  0  0  0  0  0  0  0  0  0  0  0
    7.2177    2.1005  -21.4870 H   0  0  0  0  0  0  0  0  0  0  0  0
    4.0334   -0.5760  -20.3414 H   0  0  0  0  0  0  0  0  0  0  0  0
    7.7484   -2.1604  -21.8393 H   0  0  0  0  0  0  0  0  0  0  0  0
    4.2320    8.2110  -18.1286 H   0  0  0  0  0  0  0  0  0  0  0  0
    5.3125    8.7304  -16.7910 H   0  0  0  0  0  0  0  0  0  0  0  0
    5.0400    6.5268  -15.6952 H   0  0  0  0  0  0  0  0  0  0  0  0
    3.4381    7.2885  -15.9787 H   0  0  0  0  0  0  0  0  0  0  0  0
    5.5523    4.3553  -17.0979 H   0  0  0  0  0  0  0  0  0  0  0  0
    9.2741    1.2814  -12.8159 H   0  0  0  0  0  0  0  0  0  0  0  0
   10.2440   -0.1270  -13.3655 H   0  0  0  0  0  0  0  0  0  0  0  0
   10.4945    1.4847  -14.1181 H   0  0  0  0  0  0  0  0  0  0  0  0
    2.7416   -3.5540  -18.1416 H   0  0  0  0  0  0  0  0  0  0  0  0
    3.1488   -4.2306  -16.5283 H   0  0  0  0  0  0  0  0  0  0  0  0
    3.8326   -2.6496  -17.0379 H   0  0  0  0  0  0  0  0  0  0  0  0
   10.1594   -5.2121  -17.2970 H   0  0  0  0  0  0  0  0  0  0  0  0
    9.9907   -3.5251  -16.7040 H   0  0  0  0  0  0  0  0  0  0  0  0
    8.7700   -4.7626  -16.2511 H   0  0  0  0  0  0  0  0  0  0  0  0
    4.4570    2.6724  -21.3637 H   0  0  0  0  0  0  0  0  0  0  0  0
    3.7206    1.6865  -20.0552 H   0  0  0  0  0  0  0  0  0  0  0  0
    7.9946    7.6528  -19.0124 H   0  0  0  0  0  0  0  0  0  0  0  0
    7.4341    8.9334  -17.8843 H   0  0  0  0  0  0  0  0  0  0  0  0
    4.4226   -5.3626  -18.3313 H   0  0  0  0  0  0  0  0  0  0  0  0
    5.1064   -3.7816  -18.8408 H   0  0  0  0  0  0  0  0  0  0  0  0
    9.2967   -3.7145  -19.0923 H   0  0  0  0  0  0  0  0  0  0  0  0
    8.0760   -4.9521  -18.6393 H   0  0  0  0  0  0  0  0  0  0  0  0
    5.4466   -4.7691  -15.9837 H   0  0  0  0  0  0  0  0  0  0  0  0
    6.5290   -5.3568  -17.2912 H   0  0  0  0  0  0  0  0  0  0  0  0
    8.1567   -2.0298  -17.7193 H   0  0  0  0  0  0  0  0  0  0  0  0
    6.9976   -2.7569  -18.8831 H   0  0  0  0  0  0  0  0  0  0  0  0
    3.5752    3.4976  -18.4092 H   0  0  0  0  0  0  0  0  0  0  0  0
    6.2482    3.4126  -19.8864 H   0  0  0  0  0  0  0  0  0  0  0  0
    5.1524    1.4362  -17.9145 H   0  0  0  0  0  0  0  0  0  0  0  0
    3.4037    5.0615  -16.6903 H   0  0  0  0  0  0  0  0  0  0  0  0
    3.3251    6.0170  -18.0121 H   0  0  0  0  0  0  0  0  0  0  0  0
    3.5078    4.2107  -20.6337 H   0  0  0  0  0  0  0  0  0  0  0  0
  1  2  2  0
  1  3  1  0
  2  4  1  0
  3  5  2  0
  4 14  2  0
  5 14  1  0
  6 12  2  0
  6 13  1  0
  7 12  1  0
  7 15  2  0
  8 13  2  0
  8 15  1  0
  9 16  2  0
  9 17  1  0
 10 16  1  0
 10 18  2  0
 11 17  2  0
 11 18  1  0
 12 20  1  0
 13 21  1  0
 14 29  1  0
 15 25  1  0
 16 28  1  0
 17 44  1  0
 18 45  1  0
 19 24  1  0
 19 36  1  0
 19 40  2  0
 20 37  1  0
 20 41  2  0
 21 38  1  0
 21 42  2  0
 22 23  1  0
 22 36  1  0
 23 39  1  0
 24 34  1  0
 24 39  1  0
 26 30  1  0
 27 31  1  0
 28 35  1  0
 29 36  1  0
 30 32  1  0
 31 33  1  0
 32 38  1  0
 33 38  1  0
 34 35  1  0
 34 43  1  0
 35 37  1  0
  1 46  1  0
  2 47  1  0
  3 48  1  0
  4 49  1  0
  5 50  1  0
  6 51  1  0
  7 52  1  0
  8 53  1  0
  9 54  1  0
 10 55  1  0
 11 56  1  0
 22 57  1  0
 22 58  1  0
 23 59  1  0
 23 60  1  0
 24 61  1  1
 25 62  1  0
 25 63  1  0
 25 64  1  0
 26 65  1  0
 26 66  1  0
 26 67  1  0
 27 68  1  0
 27 69  1  0
 27 70  1  0
 28 71  1  0
 28 72  1  0
 29 73  1  0
 29 74  1  0
 30 75  1  0
 30 76  1  0
 31 77  1  0
 31 78  1  0
 32 79  1  0
 32 80  1  0
 33 81  1  0
 33 82  1  0
 34 83  1  1
 35 84  1  6
 37 85  1  0
 39 86  1  0
 39 87  1  0
 43 88  1  0
M  CHG  1  39   1
M  END
>  <OMEGA_C>  (1) 
HKitQDVFJ0FKxK/BpyOxQF7VEEFZfLDBVqW7QA36MUHae6bB+MbCQNMYBUFQ76fBvjPNQAFIJkGn
7J3BR2HZQCCAGb6tnIXBhnoGQVVetD+12XvBURMBQboAR7/td2vBaMvaQAFkjD8S8arBBeygQICv
1b5r1aXBWEjkQI8KqL/Ml6zBaAXuQLtVjT9iyoXB1xzkQNKsjL/hcXvBu/LQQL/VD0Hxnp7BBScL
QeJ+9j7yiWvBPf6wQJHFYz/e9KbBNIT0QJDfvLuyqa3BI2W6QJTfwb9xwajBw0/DQGQgvkD15JPB
NzDjQJ1YBUCuIY7B2cTQQH74G8DO7HvB9xyfQBXo+0CLHIvBykCKQIkO20CxtYPB6b6hQAKqnkAe
+Y7BDPsbQQpNTT9q9FrBKvRhQNyaacCLDIvBNhgXQSZHjcAtY4jBPVSVQB3eA0DHyqPBVd7jQM6P
A0EXTpXBYpeXQAK9i8Cy4o/BguIJQXnZgcC2YZLB3RO8QJwEkcCkvYfB0VPzQAtdPMAm4I/BljiN
QK5LgEDQPZfBthusQCU5O0CiX5vBpRfEQJM46UAPxJDB/zG6QBZ1BEDCdpLB1QLWQArDUsDy04bB
MJd6QEIqtkA1L4rBkJbfQC9esECowZnBJ/v9QKezOUBmDZHBX4C8QIwHM8DSJGzBZvF5QKInmUAh
7Z/BA1YOQZiOQz4jXbHBZHiqQNffMMA59afBQ0CgQEtEMEGTVrbBMUmmQJWjCEGSl7fBfOS4QMwq
Q0EM8KXBmHvFQKrP50D7fKjBt9TXQHKCLkGBzpbBwFLBQJAfxL4yh4vBNMEOQdfUFkAOU3zBPt4E
QYiWv7+1Jl/BovfmQBdvBkBX5avBghGBQEh1E79Hu6LBFvP3QIpDCsDxtq7BTWyHQB1gA0FcB5HB
ZgCqQJSvC0HnU4bBcUehQKbb0EByH3vBQglcQHA76UDGqH/Bm6yxQFhei0CMyIjBhmIUQWQFpD/4
DU3BOecjQSALAr4i2VXBTuknQWUKvj+y42HBL3YvQFF0Y8AFIpHBCIZJQO9gh8D4OYTBykh1QCST
KcCKTYjB8owiQdzJpsBUYIrB19kfQXqaYcDeoYXBCVIMQUtnmMBRAoLBJ6COQN4IK0Dq6KrBrh5u
QIHe1z8IcaDByNP/QPzj9EBeGZjBeOTtQD3vDkH2Eo/B9oWNQG2aq8B5ppLBV2ejQCEGcsALupbB
Kb8UQdy6bcDxvJjBWzcBQXx3nsBjHZXBrkquQG2cmMAkvX/B9O3QQFBrq8BUVIrBqYECQZXoAcAI
wY3BhezfQIdxMMCpEJfB889kQCTYX0AGRpPBjvHHQKpnWkBoF5/BJuCkQBfUtz/vUI/BvdVZQI33
oUCjhYXBrM5UQKOLwEDZGJDBKn9gQFG+hkDjEaXBLYasQIaLJkEtzK/BgUi6QMVrMUHPiqbBiGCw
QDsdEEFWcrDBEO3LQDTmJUEv753BKybCQM+NBEEu2qfBUA/ZQHbKBb6l6oTBON8GQT5btj9JVHvB
qCgBQRZtPL9EKWrBCyTbQApFhD+tkqrBmuOhQOCl8r7h6aTBC03lQLy3sL/TiavBS1TuQClijj87
Y4XBcKvjQAZ+iL+e0nnBmQzQQKt1D0Gaj57BM98LQcVrAD+3DGvBY4ixQLwXVT+hdabBYhH1QAk/
lr1gDK3Bia67QBENyr99fKfBDAbDQKmIvUB4upPBjJTjQKu0BECN4I3BKZLOQMiGGMB+Q3nBHQue
QFtf+0AHKYvBCouIQCaW2kDQ24PBki6hQDUZnkD37o7BK+gbQT3+XT8U61nBlJ5vQPHJWcCsX4zB
HQsWQYFAmcB+TI/BrNKVQPKqAEC2gKPBAxbjQHhdA0FEMpXBa8CWQMTbksBnwY3BegcPQapFX8DD
4YnBbky6QHA7ksCHPoXB6WDxQIpqRMAF4I3BXFSNQCwYf0ArQ5fBuXCsQPpsOUC0L5vBQXXDQKuz
6EBFpZDBcWi6QBdEBEAaHJLBJmvRQD6tUcBTVIXBZYx4QImPtUBHXYrBVrzfQAqwr0DecZnBm9j+
QLTKNkB0IZHB/UC8QH1eLcCUt2jBqap7QFUomECPE6DBsooOQZPH9T0T3LDBtHysQIcQNcDyAKbB
8AKfQPtnL0GzZrbBm0m3QLabQkHjDabBoLSlQArKB0FAiLfB2lTWQGBBLkFK1ZbB/SnFQAy95kDu
WqjBs47AQK13u74QtorBpBQPQWnxF0DF/nvBq7IEQch2t7/bcl3BLAXnQElHAkCT0KvBkRiCQJBc
IL/kwKHBLx/5QMvKDsDIfK3BG9OGQEYfA0GmMJHBgZaoQGhpC0HWUobBOP6eQLqI0ECxIHvBW9VX
QDfE6EDJKYDBwqiwQEb0ikDFpIjB0Z8TQS3arj/tmEzBhccjQVDUOL2HBlTBif4nQQL0xT8KqmDB
XsE9QKuyXMA7k5LBE6NRQCQIXcAJbITBxaKJQNRjHcB4Io3BAf8lQT1rosA/X4zBT4UKQePCssBX
aI3BuKYWQQp/lMBIA5jBbz2PQLC4JkCfuKrBIP9uQBN30j/xIKDBbjb/QKel9EAS8pfBF97sQMvX
DkFQ/Y7B4KOEQGTmsMCUBo3BHHWlQDwUkcADvZXBz3kOQcX8aMCkK4HBOJsaQRN1LMCVxovBO+qr
QIwfl8C4nHrBoRjRQOI0rMAf6obBT/HxQFdfAMDaIJDBhq7oQEJDa8B34pTBh1JkQG+iXkDXaJPB
xUrIQAE3WECI8p7B6tykQHJ7uj+ow47BZR9XQAtioUB0xYXBKrpTQFfKv0AjY5DBXxNjQOaZhUCY
QKXBRhymQArKJ0GVY6/B7Ly1QMRrMkGNP6bB2uSpQK9hEUE+PbDBXi3JQDqrJkE89Z3BpYG9QMWZ
BUF4+afBf/zaQHJHbr5IcIXBWhIJQf4OpT/Dyn3BYPwCQdKyVb/3sGvBh3zaQIy/jz//7qvBUUCm
QP1Z7L7hyKTBrnvoQCb7or/BzKzBT0bxQO40fj85SIbBR1nlQBzfkb+GYXrBMEDNQDI9EEEQzJ7B
7FYOQQeovz6tfW3BT9SyQNY+XT+H66bBTlr1QJx0Wz1/1K7BDt3AQMezw78+0KfBRqzDQH68vUCh
FZTBZY3lQEr6/D9rkY7B74zLQOQoFsBhR3fBtx2gQHPa+kCky4rBxuiMQH9k2UDxSIPBxVOjQJ6k
nUAg347Buu4eQf4XPT+D51zBTFVkQEGmnsB1qY7BFgkSQRjMcsDp/5fBzzeWQD9OAEBzjaPBAXbi
QGHTA0GR0pXBCReQQE3gd8AceYrB3kT6QFBiW8BlbZLBHS6yQNYnkMAIEIPBOun9QIMrcMDrd4bB
jiWOQNNWfUBF7pbBY/2sQGoTOECBKpvBey3EQIDu6ECe9JDBpp27QEsnAUAeS5LBbrzUQG6EYsB5
BYHBZKN+QCCltEDevInBSpDfQHRKsEBkG5rBlkMAQbvWMEB36pHBRtyrQDiyEMAazWvBkGB5QHP3
lkDukZ/BeqoNQStumT4moLPB4SK0QGIyM8BzAqbBbDmXQODQMEFWv7XBws2yQAKXQ0HqmaXB6MCd
QBY9CUGyOrfBsf/UQLrVLkHG8JbBt4TAQNng6EDRpajBpA7CQKLw8r7wGYvB86YRQVpUDkAlAX/B
kM0GQVK5w7+fBF/B8SrkQBn4CEBsiq3BRC+IQAleKL/e0qDBzv/8QMYSBsAqEa/BWUCHQKjqAkEM
Y5DB4qOrQL8PC0HzCIbBrhClQOsvz0A+1HrBcFxiQIcG50CmI37BQ3+0QNOzikCG0ojBHy8XQcxm
oj8pkk/BLZgmQXxVNb5e31bBORsrQQbYsT/JMWTB+/MzQLolkMBe7ZPBcsKEQHNrtsAaMZPBfltE
QGJvrsBC44fBVsgQQVv3Y8BOlKDBWzwfQVzATcAweZTBrysVQX/Jm8DT9pbB0GyOQKylJ0DblarB
Lx5xQN/FzD/1F6DB/g3+QHcF9kAoDZnBanXtQLoaD0HZpo/B6AugQMJRWMDDQJHBau56QKFZSMDr
8oXBpvvzQB6bFsCldJPBT9rfQOA2gMBI8pXBITCjQLc4mcA33HbBrpC/QBPOrMCl7YbBd8QDQfS6
mcDthIXB5x8LQQprRsCD1oLBmeZnQEVwXEAvu5LBCqLIQF2OV0AR757B7gimQCXrtj8lu47B/2pf
QBYmoEAr/oTBzixXQE4av0C2d4/BiyxfQLAxhEAXkqTB

>  <OMEGA_E>  (1) 
gMdpPXBYBT7kybQ+

>  <OMEGA_NBR>  (1) 
      7249

$$$$
28721
     RDKit          3D

 80 82  0  0  1  0  0  0  0  0999 V2000
    7.8661    8.6702  -18.6434 C   0  0  0  0  0  0  0  0  0  0  0  0
    7.0044    8.0565  -17.7137 C   0  0  0  0  0  0  0  0  0  0  0  0
    7.3778    9.0607  -19.9065 C   0  0  0  0  0  0  0  0  0  0  0  0
    6.5065   -0.1040  -16.8049 C   0  0  0  0  0  0  0  0  0  0  0  0
    8.0499    1.4419  -15.7148 C   0  0  0  0  0  0  0  0  0  0  0  0
    7.7434   -0.8097  -14.8255 C   0  0  0  0  0  0  0  0  0  0  0  0
    6.7227    1.3223  -21.4282 C   0  0  0  0  0  0  0  0  0  0  0  0
    5.0305   -0.3554  -20.8916 C   0  0  0  0  0  0  0  0  0  0  0  0
    5.1597    8.2382  -19.3062 C   0  0  0  0  0  0  0  0  0  0  0  0
    7.2275   -1.0447  -21.7019 C   0  0  0  0  0  0  0  0  0  0  0  0
    7.1159    1.1697  -16.7393 C   0  0  0  0  0  0  0  0  0  0  0  0
    6.8324   -1.0987  -15.8608 C   0  0  0  0  0  0  0  0  0  0  0  0
    5.6511    7.8407  -18.0429 C   0  0  0  0  0  0  0  0  0  0  0  0
    8.3431    0.4625  -14.7439 C   0  0  0  0  0  0  0  0  0  0  0  0
    5.4272    0.9951  -20.9693 C   0  0  0  0  0  0  0  0  0  0  0  0
    7.6235    0.3042  -21.7829 C   0  0  0  0  0  0  0  0  0  0  0  0
    5.9279   -1.3727  -21.2681 C   0  0  0  0  0  0  0  0  0  0  0  0
    6.0250    8.8416  -20.2392 C   0  0  0  0  0  0  0  0  0  0  0  0
    6.7681    2.2013  -17.7334 C   0  0  0  0  0  0  0  0  0  0  0  0
    6.1761   -2.4171  -15.9203 C   0  0  0  0  0  0  0  0  0  0  0  0
    9.3478    0.7541  -13.6517 C   0  0  0  0  0  0  0  0  0  0  0  0
    3.6042   -3.2066  -18.7693 C   0  0  0  0  0  0  0  0  0  0  0  0
    9.0685   -4.0391  -16.6021 C   0  0  0  0  0  0  0  0  0  0  0  0
    4.4681    2.0924  -20.5602 C   0  0  0  0  0  0  0  0  0  0  0  0
    4.7272    7.2075  -17.0275 C   0  0  0  0  0  0  0  0  0  0  0  0
    3.7944   -3.8952  -17.4106 C   0  0  0  0  0  0  0  0  0  0  0  0
    8.3370   -4.1486  -17.9511 C   0  0  0  0  0  0  0  0  0  0  0  0
    5.2561   -4.3515  -17.2152 C   0  0  0  0  0  0  0  0  0  0  0  0
    7.2488   -3.0633  -18.1127 C   0  0  0  0  0  0  0  0  0  0  0  0
    4.8804    4.9792  -18.0309 C   0  0  0  0  0  0  0  0  0  0  0  0
    5.1144    2.9860  -19.4826 C   0  0  1  0  0  0  0  0  0  0  0  0
    4.1353    4.0524  -18.9847 C   0  0  2  0  0  0  0  0  0  0  0  0
    5.5321    2.1264  -18.3648 N   0  0  0  0  0  0  0  0  0  0  0  0
    6.1794   -3.1990  -17.0924 N   0  0  0  0  0  0  0  0  0  0  0  0
    3.9987    6.0836  -17.6326 N   0  0  0  0  0  0  0  0  0  0  0  0
    7.5563    3.1057  -17.9912 O   0  0  0  0  0  0  0  0  0  0  0  0
    5.5723   -2.8000  -14.9236 O   0  0  0  0  0  0  0  0  0  0  0  0
    3.6490    4.8230  -20.0846 O   0  0  0  0  0  0  0  0  0  0  0  0
    8.8610    0.6252  -22.2217 F   0  0  0  0  0  0  0  0  0  0  0  0
    5.5366   -2.6649  -21.2358 F   0  0  0  0  0  0  0  0  0  0  0  0
    5.2664    9.4503  -22.1881 I   0  0  0  0  0  0  0  0  0  0  0  0
    8.9014    8.8416  -18.3884 H   0  0  0  0  0  0  0  0  0  0  0  0
    7.3806    7.7512  -16.7485 H   0  0  0  0  0  0  0  0  0  0  0  0
    8.0402    9.5281  -20.6201 H   0  0  0  0  0  0  0  0  0  0  0  0
    5.7875   -0.3162  -17.5824 H   0  0  0  0  0  0  0  0  0  0  0  0
    8.5407    2.4032  -15.6751 H   0  0  0  0  0  0  0  0  0  0  0  0
    7.9826   -1.5658  -14.0924 H   0  0  0  0  0  0  0  0  0  0  0  0
    7.0211    2.3573  -21.5065 H   0  0  0  0  0  0  0  0  0  0  0  0
    4.0400   -0.6091  -20.5439 H   0  0  0  0  0  0  0  0  0  0  0  0
    4.1212    8.0795  -19.5563 H   0  0  0  0  0  0  0  0  0  0  0  0
    7.9202   -1.8280  -21.9723 H   0  0  0  0  0  0  0  0  0  0  0  0
    8.8279    1.1698  -12.7760 H   0  0  0  0  0  0  0  0  0  0  0  0
    9.8595   -0.1769  -13.3663 H   0  0  0  0  0  0  0  0  0  0  0  0
   10.0872    1.4813  -14.0184 H   0  0  0  0  0  0  0  0  0  0  0  0
    2.5554   -2.8937  -18.8788 H   0  0  0  0  0  0  0  0  0  0  0  0
    4.2581   -2.3239  -18.8276 H   0  0  0  0  0  0  0  0  0  0  0  0
    3.8633   -3.9087  -19.5755 H   0  0  0  0  0  0  0  0  0  0  0  0
    9.8308   -4.8290  -16.5326 H   0  0  0  0  0  0  0  0  0  0  0  0
    9.5530   -3.0544  -16.5268 H   0  0  0  0  0  0  0  0  0  0  0  0
    8.3445   -4.1552  -15.7821 H   0  0  0  0  0  0  0  0  0  0  0  0
    4.2194    2.7048  -21.4395 H   0  0  0  0  0  0  0  0  0  0  0  0
    3.5499    1.6412  -20.1561 H   0  0  0  0  0  0  0  0  0  0  0  0
    5.3199    6.8399  -16.1769 H   0  0  0  0  0  0  0  0  0  0  0  0
    4.0061    7.9593  -16.6742 H   0  0  0  0  0  0  0  0  0  0  0  0
    3.5291   -3.1888  -16.6103 H   0  0  0  0  0  0  0  0  0  0  0  0
    3.1343   -4.7735  -17.3582 H   0  0  0  0  0  0  0  0  0  0  0  0
    9.0712   -4.0381  -18.7627 H   0  0  0  0  0  0  0  0  0  0  0  0
    7.8628   -5.1389  -18.0180 H   0  0  0  0  0  0  0  0  0  0  0  0
    5.3204   -4.9587  -16.3002 H   0  0  0  0  0  0  0  0  0  0  0  0
    5.5583   -4.9595  -18.0807 H   0  0  0  0  0  0  0  0  0  0  0  0
    7.7158   -2.0727  -18.0095 H   0  0  0  0  0  0  0  0  0  0  0  0
    6.8003   -3.1549  -19.1129 H   0  0  0  0  0  0  0  0  0  0  0  0
    5.1883    4.4155  -17.1379 H   0  0  0  0  0  0  0  0  0  0  0  0
    5.7709    5.3841  -18.5341 H   0  0  0  0  0  0  0  0  0  0  0  0
    5.9939    3.4842  -19.9166 H   0  0  0  0  0  0  0  0  0  0  0  0
    3.3059    3.5659  -18.4504 H   0  0  0  0  0  0  0  0  0  0  0  0
    4.8822    1.4410  -18.0364 H   0  0  0  0  0  0  0  0  0  0  0  0
    3.3354    5.7388  -16.9685 H   0  0  0  0  0  0  0  0  0  0  0  0
    3.5168    6.4155  -18.4435 H   0  0  0  0  0  0  0  0  0  0  0  0
    3.1820    4.2561  -20.6872 H   0  0  0  0  0  0  0  0  0  0  0  0
  1  2  2  0
  1  3  1  0
  2 13  1  0
  3 18  2  0
  4 11  2  0
  4 12  1  0
  5 11  1  0
  5 14  2  0
  6 12  2  0
  6 14  1  0
  7 15  2  0
  7 16  1  0
  8 15  1  0
  8 17  2  0
  9 13  2  0
  9 18  1  0
 10 16  2  0
 10 17  1  0
 11 19  1  0
 12 20  1  0
 13 25  1  0
 14 21  1  0
 15 24  1  0
 16 39  1  0
 17 40  1  0
 18 41  1  0
 19 33  1  0
 19 36  2  0
 20 34  1  0
 20 37  2  0
 22 26  1  0
 23 27  1  0
 24 31  1  0
 25 35  1  0
 26 28  1  0
 27 29  1  0
 28 34  1  0
 29 34  1  0
 30 32  1  0
 30 35  1  0
 31 32  1  0
 31 33  1  0
 32 38  1  0
  1 42  1  0
  2 43  1  0
  3 44  1  0
  4 45  1  0
  5 46  1  0
  6 47  1  0
  7 48  1  0
  8 49  1  0
  9 50  1  0
 10 51  1  0
 21 52  1  0
 21 53  1  0
 21 54  1  0
 22 55  1  0
 22 56  1  0
 22 57  1  0
 23 58  1  0
 23 59  1  0
 23 60  1  0
 24 61  1  0
 24 62  1  0
 25 63  1  0
 25 64  1  0
 26 65  1  0
 26 66  1  0
 27 67  1  0
 27 68  1  0
 28 69  1  0
 28 70  1  0
 29 71  1  0
 29 72  1  0
 30 73  1  0
 30 74  1  0
 31 75  1  6
 32 76  1  1
 33 77  1  0
 35 78  1  0
 35 79  1  0
 38 80  1  0
M  CHG  1  35   1
M  END
>  <OMEGA_C>  (2) 
urb7QAK5CkG/JZXB3yPgQE3nAEGztY3BQhfsQKn4EEGFQJ/BPDXQQCoP1b1+cIbBZswAQW+RuD+f
b3vBtsn3QItLT79lNW3BACDXQOdAqT/wbKvBnvmgQO7xtb4CIqfBqhylQL7PA0EAc5rB3UfnQP25
hb+Gna3Bt7XjQIe3lT8C6oXB0qLaQHyijL/SxX3BJ9a0QFvn+kDvV5DBb30FQdLM7D4Q52vB/aut
QHW9fj8jwafBa/PzQPq+mz55Q67BbrG9QI21r78lJarB38zAQCN3DUHT6aHBK5TYQJ3hDEAU3o3B
AaPFQP2xGsCvuX7BjJAVQU8KQT9TbVrBBqxmQOk4TcCQJ5bBgxgRQTVAgcAk0YTBzvqOQBjqBUBj
e6TB3USXQJKj5kBAOIjBONdyQI5KecD+SIvBMmQFQTvBhMDgm4/BvDGoQOM/i8CwuInBW/bnQIIN
RMDC5pDBPSycQEpVn0BeP5DB0KijQBwbP0Bz3JvBUVSEQKKtgUCx4JfB3waxQB4XCEAn65LB2r3F
QL28TMAsvYjB6up/QDitwkCcD43Bc83xQPrCRkAB7o/BqFCyQHIzM8Apx27BkohpQEJWmkBcraDB
y8YNQf8KID8UxrHBAyyxQKGNKsAF46nBdYaoQHI0F0EzgbHBK2wOQRt3DUFZG5PBBy7sQKwJ+EDw
/IXBiKQAQRxzGEEG9qTBfDO5QJfiob7IqIzBqqYIQXrNGUBlzXrB13H/QHxryL9EemHBPq3gQIHd
FkA+DazBSkeBQBjtG7/qWaTBq+CDQLVFAUFTc5zBgXL9QHr66b9ax6/B/z4NQWu9lT+HakzBYMAd
QeAqNb5T3FXBIGUhQeKZvT9eS2DBsosjQJ4xOcDAB5fBYEKIQH+7FMDtnpbBlEB3QB4oesCjmpzB
JUsdQUGHmsDcQoTBH9kYQbZ7Q8DTNoTBRoMFQZ73hMB9g3zBWQWHQNoaLUAxhKvBSDJjQCsS0j+p
P6HB2TyqQG3g2kA7aoHB4zGAQMyy/kDWZIXBZ9xhQAYVTMDM4YTBOphIQNPAmMCC3YrB0CMRQfY3
gcDwGZbB8Jv7QLlxpMDaJJDB5ECqQLCtnsDFZoLBPd2xQGe0nsAwpZDB0+f2QImnBMBvE5DBZJzZ
QIXpScBA55jBtwamQAFMjUBxGonB4qq4QENKrEDFRZTBrs2/QAn9XkAtVZ/BSJRTQGc4ZEB3mpPB
LjucQEFxuD+mSpDBR3dVQOajt0B2v4fBpBJhQLxLzUBijJPB/6VLQOAxiEBSf6XBeJXBQGC8DUEb
AqLBa3GlQIxEBEEjmJrBoczsQF8AEUFVQJ/B9K3QQNJT2r0nd4bBCpABQd3ztT+51nvBe074QHJw
Ub8HT23BFGHXQAOkqz8oSqvBDAaiQHAxub4LAafB+93fQNILAUHltY3B2h7oQHkFgr/v2K3Bz8Tk
QGZYlD9gBIbB5sraQDnUjL/8wH3BIKi0QL7B+0D0b5DBMyMGQcpK4z6EQWzBH0OuQBxVfj/CgKfB
FFf0QCUcrT7vXK7BWd++QGGdrr+qP6rB1tj7QPavCkGXGJXBUoTZQJWTDED/5I3BcvzEQFgOGsBo
dH7BPIcWQTHvOT8tClvBZDxmQMzJTcBVMJbBu8gQQTMtgsAzzYTB4jKPQJrPBEAGJKTBQMqWQGKR
50B6ZYjBPGFwQNwleMBbLYvBLYwEQU1jhsAZbY/BpaOmQE4ui8BGWYnBd8XmQNZNRsDevJDBRcyc
QLiNoECAfpDB5e+jQERBP0DAqZvBX7CEQEnzgUDK0JfBKlqxQPFsCUDooZLBM77EQKFUTcCxgIjB
SxeAQDJ4w0AqUI3BMgDzQNCpRUCRGZDBKUWxQNHLMMBId27BlgZpQNhbmUAowaDB6s8NQZ/OLT+O
+bHBFM+yQO1PKsDFE6rBurgeQc3rD0HOzJDBJw22QAh9EkFzzKnBwTuEQEfjAUE2q5zBizIBQUxW
GEGW6aTBgHm5QAhGoL7NpozBjrAJQcryF0AyZHvBVaT/QIIfyb+2emHBpY/gQOVRGECA0qvBbJOC
QPdtIb9oI6TBiorrQKUt+EAd94XBAGD+QJDK5L8cNrDBeoUOQZdJlD92+UzBb4IeQXtsWL56dVbB
uXsiQX/ytz/qKWHBBIYjQKD7OMBGQZfBNHiIQPf6FcBfuJbB3P92QJINfMBne5zBXcgcQbPSm8D+
N4TBB9YYQbLMRcCkf4TBsHsFQfbIhMB7LHzB0VqGQC1SK0DyKqvBFK1kQJYEzj+/v6DB92apQBYG
3EDcgYHB3s5+QB+J/0Ayr4XBIjtfQC2dScBs7oTBl0pFQOTXl8B0sYrBFQMQQWn0g8BJE5bBfVH5
QAXXpcDiqY/BuvunQI3ZncBc5YHBRGSwQKCDn8AJG5DByDr2QE9SB8CUA5DBpyLYQCROTMCttJjB
7MKnQC9Hj0BgVYnBApe4QN7GrUC/w5TBaA3AQN+hXkBYOJ/Bs/ZUQMN7ZUBFVpPBZiCcQG1dvz98
so/BH7lVQMgRuECWDIjBh2xhQBEHzkAu0JPBX9FKQP6EhkAwX6XB

>  <OMEGA_E>  (2) 
gEGiPKijOD4=

>  <OMEGA_NBR>  (2) 
      2826

$$$$
28720
     RDKit          3D

 80 82  0  0  1  0  0  0  0  0999 V2000
    7.2976    9.1196  -19.8001 C   0  0  0  0  0  0  0  0  0  0  0  0
    7.7654    8.7128  -18.5337 C   0  0  0  0  0  0  0  0  0  0  0  0
    5.9561    8.8880  -20.1661 C   0  0  0  0  0  0  0  0  0  0  0  0
    6.8937    8.0691  -17.6339 C   0  0  0  0  0  0  0  0  0  0  0  0
    5.0806    8.2542  -19.2635 C   0  0  0  0  0  0  0  0  0  0  0  0
    6.5994   -0.0920  -16.8787 C   0  0  0  0  0  0  0  0  0  0  0  0
    8.0988    1.4765  -15.7531 C   0  0  0  0  0  0  0  0  0  0  0  0
    7.7899   -0.7705  -14.8619 C   0  0  0  0  0  0  0  0  0  0  0  0
    6.8284    1.3238  -21.4281 C   0  0  0  0  0  0  0  0  0  0  0  0
    5.1325   -0.3561  -20.9078 C   0  0  0  0  0  0  0  0  0  0  0  0
    7.3490   -1.0444  -21.6635 C   0  0  0  0  0  0  0  0  0  0  0  0
    7.1878    1.1923  -16.7953 C   0  0  0  0  0  0  0  0  0  0  0  0
    6.8992   -1.0722  -15.9125 C   0  0  0  0  0  0  0  0  0  0  0  0
    5.5512    7.8398  -17.9967 C   0  0  0  0  0  0  0  0  0  0  0  0
    8.3832    0.5029  -14.7756 C   0  0  0  0  0  0  0  0  0  0  0  0
    5.5237    0.9953  -20.9981 C   0  0  0  0  0  0  0  0  0  0  0  0
    7.7412    0.3061  -21.7511 C   0  0  0  0  0  0  0  0  0  0  0  0
    6.0433   -1.3741  -21.2466 C   0  0  0  0  0  0  0  0  0  0  0  0
    6.8157    2.2362  -17.7669 C   0  0  0  0  0  0  0  0  0  0  0  0
    6.1823   -2.3596  -15.9048 C   0  0  0  0  0  0  0  0  0  0  0  0
    9.3509    0.8109  -13.6545 C   0  0  0  0  0  0  0  0  0  0  0  0
    3.6251   -3.0290  -18.5104 C   0  0  0  0  0  0  0  0  0  0  0  0
    8.9657   -4.4174  -16.7309 C   0  0  0  0  0  0  0  0  0  0  0  0
    4.5527    2.0921  -20.6193 C   0  0  0  0  0  0  0  0  0  0  0  0
    4.6181    7.1654  -17.0171 C   0  0  0  0  0  0  0  0  0  0  0  0
    4.3625   -4.3672  -18.3305 C   0  0  0  0  0  0  0  0  0  0  0  0
    8.6791   -3.2010  -17.6262 C   0  0  0  0  0  0  0  0  0  0  0  0
    5.2351   -4.3909  -17.0521 C   0  0  0  0  0  0  0  0  0  0  0  0
    7.2039   -3.1407  -18.0918 C   0  0  0  0  0  0  0  0  0  0  0  0
    4.8584    4.9624  -18.0577 C   0  0  0  0  0  0  0  0  0  0  0  0
    5.1681    2.9933  -19.5304 C   0  0  1  0  0  0  0  0  0  0  0  0
    4.1597    4.0370  -19.0464 C   0  0  2  0  0  0  0  0  0  0  0  0
    5.5879    2.1387  -18.4100 N   0  0  0  0  0  0  0  0  0  0  0  0
    6.2035   -3.2586  -16.9935 N   0  0  0  0  0  0  0  0  0  0  0  0
    3.9374    6.0356  -17.6639 N   0  0  0  0  0  0  0  0  0  0  0  0
    7.5674    3.1821  -17.9812 O   0  0  0  0  0  0  0  0  0  0  0  0
    5.5485   -2.6295  -14.8905 O   0  0  0  0  0  0  0  0  0  0  0  0
    3.6938    4.8133  -20.1514 O   0  0  0  0  0  0  0  0  0  0  0  0
    8.9903    0.6293  -22.1550 F   0  0  0  0  0  0  0  0  0  0  0  0
    5.6653   -2.6692  -21.1686 F   0  0  0  0  0  0  0  0  0  0  0  0
    7.9681    9.6094  -20.4908 H   0  0  0  0  0  0  0  0  0  0  0  0
    8.7924    8.8948  -18.2536 H   0  0  0  0  0  0  0  0  0  0  0  0
    5.6001    9.1964  -21.1379 H   0  0  0  0  0  0  0  0  0  0  0  0
    7.2538    7.7514  -16.6665 H   0  0  0  0  0  0  0  0  0  0  0  0
    4.0502    8.0847  -19.5390 H   0  0  0  0  0  0  0  0  0  0  0  0
    5.9186   -0.3211  -17.6852 H   0  0  0  0  0  0  0  0  0  0  0  0
    8.5784    2.4430  -15.7058 H   0  0  0  0  0  0  0  0  0  0  0  0
    8.0181   -1.5207  -14.1193 H   0  0  0  0  0  0  0  0  0  0  0  0
    7.1246    2.3592  -21.5087 H   0  0  0  0  0  0  0  0  0  0  0  0
    4.1354   -0.6097  -20.5792 H   0  0  0  0  0  0  0  0  0  0  0  0
    8.0490   -1.8272  -21.9159 H   0  0  0  0  0  0  0  0  0  0  0  0
    8.8000    1.2257  -12.7975 H   0  0  0  0  0  0  0  0  0  0  0  0
    9.8634   -0.1130  -13.3484 H   0  0  0  0  0  0  0  0  0  0  0  0
   10.0935    1.5441  -14.0024 H   0  0  0  0  0  0  0  0  0  0  0  0
    3.0214   -3.0630  -19.4293 H   0  0  0  0  0  0  0  0  0  0  0  0
    2.9676   -2.8538  -17.6461 H   0  0  0  0  0  0  0  0  0  0  0  0
    4.3591   -2.2130  -18.5840 H   0  0  0  0  0  0  0  0  0  0  0  0
   10.0237   -4.4108  -16.4302 H   0  0  0  0  0  0  0  0  0  0  0  0
    8.3296   -4.3709  -15.8347 H   0  0  0  0  0  0  0  0  0  0  0  0
    8.7484   -5.3412  -17.2872 H   0  0  0  0  0  0  0  0  0  0  0  0
    4.3252    2.6992  -21.5080 H   0  0  0  0  0  0  0  0  0  0  0  0
    3.6255    1.6407  -20.2365 H   0  0  0  0  0  0  0  0  0  0  0  0
    5.1973    6.7973  -16.1575 H   0  0  0  0  0  0  0  0  0  0  0  0
    3.8682    7.8915  -16.6701 H   0  0  0  0  0  0  0  0  0  0  0  0
    3.6186   -5.1749  -18.2659 H   0  0  0  0  0  0  0  0  0  0  0  0
    5.0102   -4.5342  -19.2038 H   0  0  0  0  0  0  0  0  0  0  0  0
    8.9080   -2.2855  -17.0610 H   0  0  0  0  0  0  0  0  0  0  0  0
    9.3269   -3.2558  -18.5134 H   0  0  0  0  0  0  0  0  0  0  0  0
    4.5744   -4.3343  -16.1744 H   0  0  0  0  0  0  0  0  0  0  0  0
    5.7972   -5.3360  -17.0275 H   0  0  0  0  0  0  0  0  0  0  0  0
    7.0434   -2.1789  -18.6009 H   0  0  0  0  0  0  0  0  0  0  0  0
    7.0338   -3.9639  -18.8013 H   0  0  0  0  0  0  0  0  0  0  0  0
    5.1581    4.3901  -17.1674 H   0  0  0  0  0  0  0  0  0  0  0  0
    5.7507    5.3989  -18.5304 H   0  0  0  0  0  0  0  0  0  0  0  0
    6.0430    3.5104  -19.9513 H   0  0  0  0  0  0  0  0  0  0  0  0
    3.3225    3.5300  -18.5445 H   0  0  0  0  0  0  0  0  0  0  0  0
    4.9472    1.4409  -18.0896 H   0  0  0  0  0  0  0  0  0  0  0  0
    3.2650    5.6606  -17.0257 H   0  0  0  0  0  0  0  0  0  0  0  0
    3.4699    6.3708  -18.4818 H   0  0  0  0  0  0  0  0  0  0  0  0
    3.2559    4.2461  -20.7751 H   0  0  0  0  0  0  0  0  0  0  0  0
  1  2  2  0
  1  3  1  0
  2  4  1  0
  3  5  2  0
  4 14  2  0
  5 14  1  0
  6 12  2  0
  6 13  1  0
  7 12  1  0
  7 15  2  0
  8 13  2  0
  8 15  1  0
  9 16  2  0
  9 17  1  0
 10 16  1  0
 10 18  2  0
 11 17  2  0
 11 18  1  0
 12 19  1  0
 13 20  1  0
 14 25  1  0
 15 21  1  0
 16 24  1  0
 17 39  1  0
 18 40  1  0
 19 33  1  0
 19 36  2  0
 20 34  1  0
 20 37  2  0
 22 26  1  0
 23 27  1  0
 24 31  1  0
 25 35  1  0
 26 28  1  0
 27 29  1  0
 28 34  1  0
 29 34  1  0
 30 32  1  0
 30 35  1  0
 31 32  1  0
 31 33  1  0
 32 38  1  0
  1 41  1  0
  2 42  1  0
  3 43  1  0
  4 44  1  0
  5 45  1  0
  6 46  1  0
  7 47  1  0
  8 48  1  0
  9 49  1  0
 10 50  1  0
 11 51  1  0
 21 52  1  0
 21 53  1  0
 21 54  1  0
 22 55  1  0
 22 56  1  0
 22 57  1  0
 23 58  1  0
 23 59  1  0
 23 60  1  0
 24 61  1  0
 24 62  1  0
 25 63  1  0
 25 64  1  0
 26 65  1  0
 26 66  1  0
 27 67  1  0
 27 68  1  0
 28 69  1  0
 28 70  1  0
 29 71  1  0
 29 72  1  0
 30 73  1  0
 30 74  1  0
 31 75  1  6
 32 76  1  1
 33 77  1  0
 35 78  1  0
 35 79  1  0
 38 80  1  0
M  CHG  1  35   1
M  END
>  <OMEGA_C>  (3) 
K4bpQNzpEUGmZp7B4H34QIBnC0EURZTBdZi+QA41DkEYVKHBJZncQP0aAUEtEo3BaJSiQAkRBEGi
G5rBCi7TQJ5gvL2ZB4fB0JQBQXf9vD+NDHzBvkb5QAM9Rb9iym3B6IHaQNFxqT+5bKvBJT2kQNlR
tr4qQ6fBMivrQOKthb/sTq3B1wLmQIycmD/GXIbB68XcQMY+ib/ImX7BBqOxQMDf+kAr+Y/BqyEG
QZe9AD/OaGzBesKwQA7Lfj8T/KfBMLj3QDO8nD4/Aq7BdWLBQOrjr78P+anBVxraQH4dD0CTIo7B
jdXFQPkDF8A1en7BeZ0VQfyZTz+/eFrBwwFoQD/bQcBBFZTBVnMPQS1bjcDl2IXBf6+RQGzlBUBY
9KTBfMeTQPJK5UAXI4jBkJmLQPC/i8DcpJLBdN0KQaXcTMBfAo3Bj4WnQOeBjMCaaojBtobmQCgB
ScAMvJDBanibQDbMnkBCdpDBHGGlQI2SP0BPPpzBjhyFQGUvgUASX5jB5c+yQDTgCEC8R5PBIIPG
QPCMUMCm8ofB1/57QJEjwUCtT43BDyjyQHOnS0B22Y/BeY2xQFtJKMBSP27BX2dsQDMGmkAFNqHB
I9gPQVQbIT92PbHBX0q1QI/TKsBjWanBivr+QATAGUEb7aPBqa0MQQFRDkFaB5LB+zOzQEokE0F+
GqnBPR/oQJIL+EADVYXBK5uBQBZbAUHwT5zBa2W9QP5spL5be43BQ0EJQRpaHEAKS3vBKkoAQeOk
wr+B6GHBBv3jQG79FkDSEazBblWEQHYWHL8koqTBg8gAQU/h6b/IU6/B8cwMQQ7jnD9gwkzBhdAd
Qcpx573/klXBKn8hQRClxT+zCWDBL19BQNIIRMA2b5vBZOw9QFekNsBIK43B8H2LQIGiDcAarJTB
MmEgQVQljcD8cIPB7EUFQSLei8DUWn3BnvkLQefqqsAbTIrBu2eKQMO/LEBMEKzBVQhoQC0C0j9G
5KHBeVCmQImD2UCDQoHB15B3QGWH/EBwXIXBIpdnQPGYpcCIIJLBTlOgQAYYkcBaoZnBXIcOQURF
EsDZfIjBDjsVQc5eUMCKG5TBp2GSQDiyisASZYHB64K5QMTAqsBMOIjB7WPhQJByC8CSzpTBwRTh
QNCwfcAMaZbB3w6lQOB7jEDaVonBbAW4QPDDrEBSPpTBZGDBQP2qYEA4nJ/BHKNUQLbrYUA2W5TB
TU+eQNtwuD+Ht5DBifZQQM0jtUCkNIjBgBJeQJrdy0DT2pPBomBQQPTfh0BxM6bBgnHrQJnZEEFg
X5/BrSrAQHMhDUE39aHBU2v7QDDcCkEBQpXB+s+kQFd+A0GzaZrBiS3gQCATAUEJu43B45bQQECi
x71NrIbBTwQBQdZWuT9m7HvBSvn3QMDcTL8gmm3B1Q/XQOrrpj+vn6vBCg2hQHCbvL4kG6fB9Wrn
QDtqiL95f63B3RzkQEKNlj8PJobBg8TaQB9Mi7+yJH7Be+G0QNq9+kAHS5DBuLYFQcjc7z7yZWzB
vaWtQO5Vez9C5qfBd/vzQCywkD7kUK7Bj9W9QNrhsb+bAKrBWezYQKlWDUDcFY7BuSLFQLBeGcC4
2H7Bdf0VQbdBQT/WGFvBwGllQHu7TMDGFpbBSRsRQUA0gcDaXITB1g6PQPZwBUBaq6TBwdeXQCn3
5UB/IIjBwwpxQFz+d8DRKYvBWQ0FQUG+hsBDAI/B6CinQGrxisBKi4nBJAjoQCsMR8DXtJDB62ed
QAlcn0BzipDBoBCkQN7hPkCpHpzBXRKFQKC2gUAqE5jBW4GxQOQDCEBNLpPB7CvFQB2+TMC0rojB
u9SAQFnQwUDz+YzBv+vxQCrCR0DaFJDBuRSxQNjGL8BG727BEStqQB9cmkAU06DBK8oNQVSBGT/V
2bHBBV+xQMykK8C4n6nB8TEAQV5MGEHsJaXBHQC0QGOrEUFIuKnB0UYOQZLGDUHsR5PB05ODQPrH
AEEbW5zB1XXsQKHS+ECi/4XB6cO5QJTMn77x7YzB8eAIQawrGkAzTHvBynj/QN3uxr+Rz2HBeYPg
QAynFUA8Z6zBSWOBQO5wHr9KSKTB4aj9QEb/7L/fjK/ButsNQWGClj8eBE3BVB4eQQNoN77FlVbB
ftchQer2vD+GGmHBbXoiQMwvOMBnAZfBreGHQK2nFMBqnpbB7K51QK9XesD1eZzB1AMdQc3kmsCY
gIPBpj8ZQTn/Q8D8SoTB96wFQZG/gsB4XXvBowyHQDpKLEDTuqvBdlxjQFnp0T8wYaHBXy6rQNNM
2kCDYIHBOpGAQJet/UDgOIXBB2FgQJAcSsCE0oTBmkxGQEnml8AOrorB5KUQQcJehcCynJXBaSb6
QLUepsBxAI/BFQCpQGr9ncBzKILBYaCwQCLhnsBLZpDBsX33QJQICMAxB5DB/DnaQKYsTsCQwJjB
SqmoQH8ajUAWkInBFQW5QHE0rUCNwpTBMS/AQNBoXkBrp5/BcG1VQGWSZEAXs5PBT9ecQJiNtz8L
lpDBZvtYQK7jtUBIkYfB2NZgQP+PzEDxS5PBCalLQAw7iEAflqXBxDnvQOUgE0GUnZ3BOQbEQEaZ
EEGdi6DBfj7+QMGXCkFX35PBX/KnQLNoBUE+x5nBz1fiQEwO/kCtKo3B7pfUQAdCXr6L2IXBMB8E
Qe5roj+5lXrBkOz6QM+FdL+28GvByh3UQIehvD/jRavBt4udQP1+M767nKbBNYbiQFj2Zr/6uq3B
lwTqQNIhgz/Wa4XBzITdQCqwm7/MjHzBhle3QBcC+ECBNJDBpA8IQRNwlD7t6GrBRvSqQPojlj83
SKfBOPPvQLDt4D4bX67B1Ta5QM3Emr/i9KnBg4ffQMraA0D7QY3B8bfGQKdcIMD+t33B+ZIYQT/C
DD+Wv1nB6kdjQDNSS8A/h5XBtuIQQR/dg8DYb4XBlziPQAefEkCsvqLBuQeaQNuo3UDNI4nBPIVv
QAZ/eMCjuYrBczsEQdVDh8B19o/BqyamQPpHjMB0WYnBctzlQApaSMDK45DBXpCKQPO4qUAXoZfB
WL+nQMkxP0AZeJnB1xeNQC4afED8fJLBpHO4QM+i+z+qXpLB/t7EQAC1UMC4ZIjB8NVxQGwLyEDJ
rI/BQZ/3QCWlQEAwz47BOBizQOcAOMAdyW3BTHJFQGQqXUAy8ZDBoNILQTKrPD9i8bHB3DSsQCzT
H8ChnKnBwnICQYyeG0GI1qLBjHu4QO4+F0H0+qfBZ5kPQYXsDEGHi5HBuYuGQJb4A0Gb4JvBoOXt
QAn78EBwtYXBHjC9QOmXzL5mCIzByqwMQcU+DUDNJ3rBAZ4AQY/S2r/h+1/BlkLeQI0rIECv8qvB
ZU18QHqp074Ii6PBXOf3QFkR2b/pIbDBUMkQQRmSgD+/vUvBxRggQfDbzL60ClXBFN4kQYL9nT8n
+F/B06ggQL9QNcBxQJbBbVaHQDcGFMCmBJbB+8JxQP1CeMBADpzBoPwcQWZkncBlH4XBHtkYQfkG
ScCaCIXBst0FQYI+h8BGQX3BHTSIQAGPQUCDEKnB9SZiQFBa7z/wsZ/BnAqtQEZnxUBV44TBMF+K
QKvO8kB5S4PBuJxgQG8+S8AlP4TB2LJDQJu9l8C/SIrBfGoPQZMPhMDUtZbBId74QJnKpsDdTZDB
BwOoQOQBoMByE4LBoduuQGbJn8AKWJDBkD31QGRICcC6LZDBbkDWQAumTcDYv5jBwraqQGwktEDr
FprBBQZrQNlsqECrrJ7BS3PCQJeoY0CQ8pzBJC+dQHFLgUAhtIrB5bamQMMIkz80G5HBaflKQP7m
t0CXw4rB2k5QQIpp3kDBkZPB+HxHQMEtJkCRtY3B

>  <OMEGA_E>  (3) 
cG40PhCj5D1Yo+g+

>  <OMEGA_NBR>  (3) 
      6863

$$$$
28722
     RDKit          3D

 84 86  0  0  1  0  0  0  0  0999 V2000
    8.1318    8.3151  -18.4345 C   0  0  0  0  0  0  0  0  0  0  0  0
    7.1685    7.8141  -17.5407 C   0  0  0  0  0  0  0  0  0  0  0  0
    7.7593    8.6752  -19.7441 C   0  0  0  0  0  0  0  0  0  0  0  0
    6.7533   -0.0554  -16.7679 C   0  0  0  0  0  0  0  0  0  0  0  0
    8.3759    1.5559  -15.9113 C   0  0  0  0  0  0  0  0  0  0  0  0
    8.1972   -0.6478  -14.8907 C   0  0  0  0  0  0  0  0  0  0  0  0
    5.4501    8.0534  -19.2607 C   0  0  0  0  0  0  0  0  0  0  0  0
    6.6762    1.0970  -21.4631 C   0  0  0  0  0  0  0  0  0  0  0  0
    4.9112   -0.4422  -20.7648 C   0  0  0  0  0  0  0  0  0  0  0  0
    7.0593   -1.3098  -21.5284 C   0  0  0  0  0  0  0  0  0  0  0  0
    7.3511    1.2243  -16.8267 C   0  0  0  0  0  0  0  0  0  0  0  0
    7.1894   -0.9933  -15.8095 C   0  0  0  0  0  0  0  0  0  0  0  0
    5.8305    7.6744  -17.9546 C   0  0  0  0  0  0  0  0  0  0  0  0
    8.7787    0.6315  -14.9287 C   0  0  0  0  0  0  0  0  0  0  0  0
    5.3713    0.8736  -20.9705 C   0  0  0  0  0  0  0  0  0  0  0  0
    6.4198    8.5522  -20.1705 C   0  0  0  0  0  0  0  0  0  0  0  0
    7.5222    0.0059  -21.7315 C   0  0  0  0  0  0  0  0  0  0  0  0
    5.7506   -1.5319  -21.0533 C   0  0  0  0  0  0  0  0  0  0  0  0
    6.9111    2.2054  -17.8349 C   0  0  0  0  0  0  0  0  0  0  0  0
    6.5883   -2.3309  -15.7441 C   0  0  0  0  0  0  0  0  0  0  0  0
    9.8770    0.9896  -13.9547 C   0  0  0  0  0  0  0  0  0  0  0  0
    3.9490   -3.4166  -17.7020 C   0  0  0  0  0  0  0  0  0  0  0  0
    9.5418   -4.2471  -17.1813 C   0  0  0  0  0  0  0  0  0  0  0  0
    4.7299    9.0417  -21.8323 C   0  0  0  0  0  0  0  0  0  0  0  0
    4.4877    2.0420  -20.5981 C   0  0  0  0  0  0  0  0  0  0  0  0
    4.8092    7.1076  -16.9923 C   0  0  0  0  0  0  0  0  0  0  0  0
    4.8955   -4.6293  -17.7924 C   0  0  0  0  0  0  0  0  0  0  0  0
    8.5642   -4.0382  -18.3509 C   0  0  0  0  0  0  0  0  0  0  0  0
    6.0093   -4.5667  -16.7314 C   0  0  0  0  0  0  0  0  0  0  0  0
    7.5287   -2.9523  -18.0129 C   0  0  0  0  0  0  0  0  0  0  0  0
    4.9457    4.8625  -17.9886 C   0  0  0  0  0  0  0  0  0  0  0  0
    5.1772    2.9128  -19.5281 C   0  0  1  0  0  0  0  0  0  0  0  0
    4.2037    3.9559  -18.9684 C   0  0  2  0  0  0  0  0  0  0  0  0
    5.6696    2.0495  -18.4405 N   0  0  0  0  0  0  0  0  0  0  0  0
    6.7424   -3.2711  -16.7843 N   0  0  0  0  0  0  0  0  0  0  0  0
    4.0774    5.9901  -17.6125 N   0  0  0  0  0  0  0  0  0  0  0  0
    7.6324    3.1556  -18.1227 O   0  0  0  0  0  0  0  0  0  0  0  0
    5.9947   -2.6258  -14.7124 O   0  0  0  0  0  0  0  0  0  0  0  0
    3.6945    4.7517  -20.0394 O   0  0  0  0  0  0  0  0  0  0  0  0
    6.1275    8.9170  -21.4785 O   0  0  0  0  0  0  0  0  0  0  0  0
    8.7785    0.2227  -22.1822 F   0  0  0  0  0  0  0  0  0  0  0  0
    5.2993   -2.7922  -20.8680 F   0  0  0  0  0  0  0  0  0  0  0  0
    9.1582    8.4237  -18.1164 H   0  0  0  0  0  0  0  0  0  0  0  0
    7.4553    7.5367  -16.5371 H   0  0  0  0  0  0  0  0  0  0  0  0
    8.5062    9.0493  -20.4287 H   0  0  0  0  0  0  0  0  0  0  0  0
    5.9630   -0.3146  -17.4568 H   0  0  0  0  0  0  0  0  0  0  0  0
    8.8525    2.5235  -15.9660 H   0  0  0  0  0  0  0  0  0  0  0  0
    8.5249   -1.3670  -14.1546 H   0  0  0  0  0  0  0  0  0  0  0  0
    4.4188    7.9637  -19.5685 H   0  0  0  0  0  0  0  0  0  0  0  0
    7.0241    2.1051  -21.6336 H   0  0  0  0  0  0  0  0  0  0  0  0
    3.9144   -0.6132  -20.3857 H   0  0  0  0  0  0  0  0  0  0  0  0
    7.7074   -2.1483  -21.7367 H   0  0  0  0  0  0  0  0  0  0  0  0
    9.4361    1.4415  -13.0540 H   0  0  0  0  0  0  0  0  0  0  0  0
   10.4301    0.0807  -13.6756 H   0  0  0  0  0  0  0  0  0  0  0  0
   10.5649    1.7073  -14.4256 H   0  0  0  0  0  0  0  0  0  0  0  0
    3.1705   -3.5000  -18.4747 H   0  0  0  0  0  0  0  0  0  0  0  0
    3.4779   -3.3926  -16.7082 H   0  0  0  0  0  0  0  0  0  0  0  0
    4.5228   -2.4912  -17.8582 H   0  0  0  0  0  0  0  0  0  0  0  0
   10.2709   -5.0268  -17.4468 H   0  0  0  0  0  0  0  0  0  0  0  0
   10.0713   -3.3056  -16.9735 H   0  0  0  0  0  0  0  0  0  0  0  0
    8.9821   -4.5581  -16.2868 H   0  0  0  0  0  0  0  0  0  0  0  0
    4.6434    9.3336  -22.8893 H   0  0  0  0  0  0  0  0  0  0  0  0
    4.2247    8.0772  -21.6758 H   0  0  0  0  0  0  0  0  0  0  0  0
    4.2589    9.8091  -21.2004 H   0  0  0  0  0  0  0  0  0  0  0  0
    4.2950    2.6514  -21.4934 H   0  0  0  0  0  0  0  0  0  0  0  0
    3.5346    1.6640  -20.1998 H   0  0  0  0  0  0  0  0  0  0  0  0
    5.3243    6.7461  -16.0901 H   0  0  0  0  0  0  0  0  0  0  0  0
    4.0957    7.8977  -16.7155 H   0  0  0  0  0  0  0  0  0  0  0  0
    4.3112   -5.5489  -17.6412 H   0  0  0  0  0  0  0  0  0  0  0  0
    5.3561   -4.6475  -18.7912 H   0  0  0  0  0  0  0  0  0  0  0  0
    9.1300   -3.7312  -19.2429 H   0  0  0  0  0  0  0  0  0  0  0  0
    8.0408   -4.9837  -18.5562 H   0  0  0  0  0  0  0  0  0  0  0  0
    5.5596   -4.6823  -15.7341 H   0  0  0  0  0  0  0  0  0  0  0  0
    6.7199   -5.3870  -16.9105 H   0  0  0  0  0  0  0  0  0  0  0  0
    8.0557   -1.9996  -17.8565 H   0  0  0  0  0  0  0  0  0  0  0  0
    6.8339   -2.8523  -18.8598 H   0  0  0  0  0  0  0  0  0  0  0  0
    5.2132    4.2892  -17.0887 H   0  0  0  0  0  0  0  0  0  0  0  0
    5.8603    5.2463  -18.4642 H   0  0  0  0  0  0  0  0  0  0  0  0
    6.0251    3.4357  -19.9944 H   0  0  0  0  0  0  0  0  0  0  0  0
    3.3857    3.4428  -18.4416 H   0  0  0  0  0  0  0  0  0  0  0  0
    5.0777    1.3099  -18.1201 H   0  0  0  0  0  0  0  0  0  0  0  0
    3.3923    5.6602  -16.9631 H   0  0  0  0  0  0  0  0  0  0  0  0
    3.6211    6.3276  -18.4358 H   0  0  0  0  0  0  0  0  0  0  0  0
    3.2308    4.1959  -20.6547 H   0  0  0  0  0  0  0  0  0  0  0  0
  1  2  2  0
  1  3  1  0
  2 13  1  0
  3 16  2  0
  4 11  2  0
  4 12  1  0
  5 11  1  0
  5 14  2  0
  6 12  2  0
  6 14  1  0
  7 13  2  0
  7 16  1  0
  8 15  2  0
  8 17  1  0
  9 15  1  0
  9 18  2  0
 10 17  2  0
 10 18  1  0
 11 19  1  0
 12 20  1  0
 13 26  1  0
 14 21  1  0
 15 25  1  0
 16 40  1  0
 17 41  1  0
 18 42  1  0
 19 34  1  0
 19 37  2  0
 20 35  1  0
 20 38  2  0
 22 27  1  0
 23 28  1  0
 24 40  1  0
 25 32  1  0
 26 36  1  0
 27 29  1  0
 28 30  1  0
 29 35  1  0
 30 35  1  0
 31 33  1  0
 31 36  1  0
 32 33  1  0
 32 34  1  0
 33 39  1  0
  1 43  1  0
  2 44  1  0
  3 45  1  0
  4 46  1  0
  5 47  1  0
  6 48  1  0
  7 49  1  0
  8 50  1  0
  9 51  1  0
 10 52  1  0
 21 53  1  0
 21 54  1  0
 21 55  1  0
 22 56  1  0
 22 57  1  0
 22 58  1  0
 23 59  1  0
 23 60  1  0
 23 61  1  0
 24 62  1  0
 24 63  1  0
 24 64  1  0
 25 65  1  0
 25 66  1  0
 26 67  1  0
 26 68  1  0
 27 69  1  0
 27 70  1  0
 28 71  1  0
 28 72  1  0
 29 73  1  0
 29 74  1  0
 30 75  1  0
 30 76  1  0
 31 77  1  0
 31 78  1  0
 32 79  1  6
 33 80  1  1
 34 81  1  0
 36 82  1  0
 36 83  1  0
 39 84  1  0
M  CHG  1  36   1
M  END
>  <OMEGA_C>  (4) 
2hsCQXcKBUHyeZPBU2TlQAwN+kBTU4zBQEz4QKnNCkHl853BbhvYQCzjYr2tJIbBuwMGQbMmxz+x
lH7BxScDQRDWJb9/QG7Bi2euQLnaAEHdFZrBeKPVQFZpjD97tKvBKCidQOlm4r46HqbBveXhQMKo
p78cOqzBCzzrQLG2nD8KnYbByw/mQLJGfr/U83zBEZO6QM2U9UAco4/Bc3UMQbCqIT8T3G7B2uGr
QLCmXz+fw6fB4G7NQJ7VCEE3XaHB0LXwQKA4wTs22q3BhQS4QCsWxL8QbajB2yfdQDYlDUDzrY7B
C9PSQNUtFcDD53vBOAgeQUpWfT+eRl/BALx8QKqpWsChnY3BJqsYQXHoh8A8c4nBUVuXQOSqEEGL
qK7BFZuPQOuvAkD9yKTBVeWZQClx40BF8IfBVKicQN0ilMDTVo7B7AYJQSM5gcC9zpLB3kvAQIQi
ksDX2YXBauvwQC3zPMBnGpDBYkOeQLmZm0CZ6I/BOqulQLVrOkB4OZzBxISGQAcufUBhv5fBZm21
QGYqA0A9hpPB3cHXQK9ZUcBFRobBXHqCQK2uv0Bk5ozBQDz0QKj0SUA/+5DBnNS/QOUNKMABZmvB
b3JsQKQNmECiUKDBShTEQPurDkHo06vBr3QMQcYLZD44dbHBMJSpQDyzMsCh8abBy4cSQVfHBkFt
7pDBo5HuQIcs8UD2S4TBSRkIQb3JEEH3baPB6dC+QIoWob5/p4vB6KMNQZeAIUCUdH/Bz2UIQej4
rr9yeWLBJ2eNQJjW/kBdjJzBqcXgQKG5BkCPEa3BmYV6QOb4HL/8FaPBEqP2QPF8CcDV5K3BFPoW
QZyBuD8R3VDBseEmQTospT1jz1rBtAkpQc6I2j9vz2bBJ+pKQAoAYMAmzJPBI5ZeQMcgWcBxqoXB
97qQQHFwH8B+3Y7BclUkQajboMAjk4vBGSQhQS2PU8DHyYfBgbYPQavbkcBsS4LBfZaUQHZWFUFY
HbfBrTCHQDw8AUEhaK3B3kiIQBHyHEFtmqnBzXCJQNWwKUB38qvBHjZiQDn91D88maHBsWCqQLnf
10B9uIDBWRCDQLq5/EBGuYXBmvWJQHyQscA8IY3BgGWrQFG4lMBJVJbBkBQSQYDMbsB58ZnB96YA
QVV6n8Aec5TBeuixQMrVlcALv3vBmgnXQEpirMC8SIfBUuQAQV7x/78c2o7BRK/aQHSMNsDL4JbB
6dKmQHdBiUCjtYjB04e7QMDhp0CktpPBBs7AQOniW0CK9J/B3K5YQIVXXEBriJPBIXyiQHSrpz8F
9pDBvBpZQPcftUB7tIfBacBnQIx7ykCPfJPBgsVOQOdEhkDXPKXB

>  <OMEGA_E>  (4) 
wAUSPQ==

>  <OMEGA_NBR>  (4) 
      3279

$$$$
50209149
     RDKit          3D

 78 80  0  0  1  0  0  0  0  0999 V2000
    6.8261    0.0226  -16.6713 C   0  0  0  0  0  0  0  0  0  0  0  0
    8.3769    1.6467  -15.7122 C   0  0  0  0  0  0  0  0  0  0  0  0
    8.1453   -0.5596  -14.7062 C   0  0  0  0  0  0  0  0  0  0  0  0
    6.8149    1.2892  -21.2856 C   0  0  0  0  0  0  0  0  0  0  0  0
    5.0518   -0.2737  -20.6364 C   0  0  0  0  0  0  0  0  0  0  0  0
    7.2010   -1.1139  -21.4270 C   0  0  0  0  0  0  0  0  0  0  0  0
    7.4236    1.3015  -16.6931 C   0  0  0  0  0  0  0  0  0  0  0  0
    7.2167   -0.9251  -15.7039 C   0  0  0  0  0  0  0  0  0  0  0  0
    8.7098    0.7307  -14.6978 C   0  0  0  0  0  0  0  0  0  0  0  0
    5.5090    1.0494  -20.8045 C   0  0  0  0  0  0  0  0  0  0  0  0
    7.6635    0.2078  -21.5834 C   0  0  0  0  0  0  0  0  0  0  0  0
    5.8928   -1.3529  -20.9611 C   0  0  0  0  0  0  0  0  0  0  0  0
    7.0478    2.2698  -17.7296 C   0  0  0  0  0  0  0  0  0  0  0  0
    6.6178   -2.2739  -15.6804 C   0  0  0  0  0  0  0  0  0  0  0  0
    6.0686    5.8732  -18.2506 C   0  0  0  0  0  0  0  0  0  0  0  0
    4.6856    7.0467  -16.6351 C   0  0  0  0  0  0  0  0  0  0  0  0
    5.8792    7.2365  -17.5743 C   0  0  2  0  0  0  0  0  0  0  0  0
    4.9190    4.9943  -17.7136 C   0  0  2  0  0  0  0  0  0  0  0  0
    9.7264    1.1091  -13.6451 C   0  0  0  0  0  0  0  0  0  0  0  0
    9.2279   -4.4186  -17.1083 C   0  0  0  0  0  0  0  0  0  0  0  0
    3.9395   -3.4719  -17.9673 C   0  0  0  0  0  0  0  0  0  0  0  0
    6.7352    8.7288  -19.2788 C   0  0  0  0  0  0  0  0  0  0  0  0
    4.6126    2.2072  -20.4271 C   0  0  0  0  0  0  0  0  0  0  0  0
    8.9275   -3.0608  -17.7723 C   0  0  0  0  0  0  0  0  0  0  0  0
    4.4084   -4.2898  -16.7515 C   0  0  0  0  0  0  0  0  0  0  0  0
    7.4209   -2.8517  -18.0196 C   0  0  0  0  0  0  0  0  0  0  0  0
    5.9400   -4.4445  -16.7290 C   0  0  0  0  0  0  0  0  0  0  0  0
    4.2676    4.0834  -18.7710 C   0  0  2  0  0  0  0  0  0  0  0  0
    5.2812    3.0824  -19.3466 C   0  0  1  0  0  0  0  0  0  0  0  0
    5.7667    2.2153  -18.2625 N   0  0  0  0  0  0  0  0  0  0  0  0
    6.6149   -3.1274  -16.8045 N   0  0  0  0  0  0  0  0  0  0  0  0
    3.9146    5.9366  -17.2025 N   0  0  0  0  0  0  0  0  0  0  0  0
    7.8629    3.1032  -18.1094 O   0  0  0  0  0  0  0  0  0  0  0  0
    6.1567   -2.6683  -14.6141 O   0  0  0  0  0  0  0  0  0  0  0  0
    3.7205    4.8819  -19.8216 O   0  0  0  0  0  0  0  0  0  0  0  0
    5.5788    8.2533  -18.5539 O   0  0  0  0  0  0  0  0  0  0  0  0
    8.9195    0.4391  -22.0267 F   0  0  0  0  0  0  0  0  0  0  0  0
    5.4430   -2.6194  -20.8294 F   0  0  0  0  0  0  0  0  0  0  0  0
    6.0679   -0.2302  -17.3976 H   0  0  0  0  0  0  0  0  0  0  0  0
    8.8522    2.6161  -15.7401 H   0  0  0  0  0  0  0  0  0  0  0  0
    8.4247   -1.2731  -13.9451 H   0  0  0  0  0  0  0  0  0  0  0  0
    7.1618    2.3025  -21.4249 H   0  0  0  0  0  0  0  0  0  0  0  0
    4.0570   -0.4581  -20.2587 H   0  0  0  0  0  0  0  0  0  0  0  0
    7.8495   -1.9443  -21.6644 H   0  0  0  0  0  0  0  0  0  0  0  0
    6.0008    5.9719  -19.3441 H   0  0  0  0  0  0  0  0  0  0  0  0
    7.0435    5.4406  -17.9813 H   0  0  0  0  0  0  0  0  0  0  0  0
    5.0302    6.7967  -15.6208 H   0  0  0  0  0  0  0  0  0  0  0  0
    4.0747    7.9608  -16.6000 H   0  0  0  0  0  0  0  0  0  0  0  0
    6.7770    7.4952  -16.9937 H   0  0  0  0  0  0  0  0  0  0  0  0
    5.3007    4.3711  -16.8914 H   0  0  0  0  0  0  0  0  0  0  0  0
    9.2121    1.5578  -12.7824 H   0  0  0  0  0  0  0  0  0  0  0  0
   10.2700    0.2096  -13.3204 H   0  0  0  0  0  0  0  0  0  0  0  0
   10.4374    1.8351  -14.0663 H   0  0  0  0  0  0  0  0  0  0  0  0
   10.3122   -4.5197  -16.9534 H   0  0  0  0  0  0  0  0  0  0  0  0
    8.7123   -4.4743  -16.1382 H   0  0  0  0  0  0  0  0  0  0  0  0
    8.8733   -5.2314  -17.7592 H   0  0  0  0  0  0  0  0  0  0  0  0
    2.8433   -3.3830  -17.9494 H   0  0  0  0  0  0  0  0  0  0  0  0
    4.3893   -2.4688  -17.9298 H   0  0  0  0  0  0  0  0  0  0  0  0
    4.2510   -3.9791  -18.8924 H   0  0  0  0  0  0  0  0  0  0  0  0
    6.4248    9.4973  -20.0020 H   0  0  0  0  0  0  0  0  0  0  0  0
    7.4585    9.1615  -18.5720 H   0  0  0  0  0  0  0  0  0  0  0  0
    7.2029    7.8893  -19.8141 H   0  0  0  0  0  0  0  0  0  0  0  0
    4.4189    2.8202  -21.3197 H   0  0  0  0  0  0  0  0  0  0  0  0
    3.6613    1.8158  -20.0376 H   0  0  0  0  0  0  0  0  0  0  0  0
    9.2931   -2.2573  -17.1160 H   0  0  0  0  0  0  0  0  0  0  0  0
    9.4541   -3.0144  -18.7369 H   0  0  0  0  0  0  0  0  0  0  0  0
    4.0877   -3.7783  -15.8320 H   0  0  0  0  0  0  0  0  0  0  0  0
    3.9494   -5.2885  -16.7946 H   0  0  0  0  0  0  0  0  0  0  0  0
    7.2529   -1.8094  -18.3283 H   0  0  0  0  0  0  0  0  0  0  0  0
    7.0954   -3.5290  -18.8229 H   0  0  0  0  0  0  0  0  0  0  0  0
    6.2359   -4.9458  -15.7957 H   0  0  0  0  0  0  0  0  0  0  0  0
    6.2511   -5.0564  -17.5885 H   0  0  0  0  0  0  0  0  0  0  0  0
    3.4627    3.5142  -18.2830 H   0  0  0  0  0  0  0  0  0  0  0  0
    6.1204    3.6334  -19.7960 H   0  0  0  0  0  0  0  0  0  0  0  0
    5.1320    1.5415  -17.8840 H   0  0  0  0  0  0  0  0  0  0  0  0
    3.3530    5.5029  -16.4978 H   0  0  0  0  0  0  0  0  0  0  0  0
    3.3274    6.2601  -17.9444 H   0  0  0  0  0  0  0  0  0  0  0  0
    3.3193    4.3181  -20.4725 H   0  0  0  0  0  0  0  0  0  0  0  0
  1  7  2  0
  1  8  1  0
  2  7  1  0
  2  9  2  0
  3  8  2  0
  3  9  1  0
  4 10  2  0
  4 11  1  0
  5 10  1  0
  5 12  2  0
  6 11  2  0
  6 12  1  0
  7 13  1  0
  8 14  1  0
  9 19  1  0
 10 23  1  0
 11 37  1  0
 12 38  1  0
 13 30  1  0
 13 33  2  0
 14 31  1  0
 14 34  2  0
 15 17  1  0
 15 18  1  0
 16 17  1  0
 16 32  1  0
 17 36  1  0
 18 28  1  0
 18 32  1  0
 20 24  1  0
 21 25  1  0
 22 36  1  0
 23 29  1  0
 24 26  1  0
 25 27  1  0
 26 31  1  0
 27 31  1  0
 28 29  1  0
 28 35  1  0
 29 30  1  0
  1 39  1  0
  2 40  1  0
  3 41  1  0
  4 42  1  0
  5 43  1  0
  6 44  1  0
 15 45  1  0
 15 46  1  0
 16 47  1  0
 16 48  1  0
 17 49  1  1
 18 50  1  1
 19 51  1  0
 19 52  1  0
 19 53  1  0
 20 54  1  0
 20 55  1  0
 20 56  1  0
 21 57  1  0
 21 58  1  0
 21 59  1  0
 22 60  1  0
 22 61  1  0
 22 62  1  0
 23 63  1  0
 23 64  1  0
 24 65  1  0
 24 66  1  0
 25 67  1  0
 25 68  1  0
 26 69  1  0
 26 70  1  0
 27 71  1  0
 27 72  1  0
 28 73  1  1
 29 74  1  6
 30 75  1  0
 32 76  1  0
 32 77  1  0
 35 78  1  0
M  CHG  1  32   1
M  END
>  <OMEGA_C>  (5) 
Zm/aQPwyuTzBXoXB5gcGQZ3F0j8xZXvBLVMCQXlCD7+WTGvBjhPaQCAGpT/4SKrBhqihQFchjL5P
F6XBRm7mQB+Vjr+QaqvBg47tQKiYpj+Ei4XB4+7mQCLTbL8IQ3vBL1sLQSMOOz9fKmvBCkqwQNlS
hj+Qb6bBZjv1QK7MVD7cqqzB1JG8QHgrrb9usKfBvYfhQF5EEUBK1o3BOsXTQC6IEcC+4nrBQjLC
QPDwu0BFAZLBaPCVQDN+4UDCFIXBziK8QAWR50AimIzBjmidQFzRn0BltY3BaJ8bQeP1jT8sUlrB
aaUTQVRljcDO3YjB/CB8QE00XsAXvY/B1obXQDypC0ECO5rBppqTQIxDDUC9aqPBB9cOQZjjQ8Cz
LY7BrhGNQEBGicAQA4bB0HftQLSCNsAbKJDBSRS+QPc4jsD71IXBbJCIQCSrgkAEK5bBcf+oQF1F
RUDAxZrB6oi4QMTGDUCnGZLBa63TQAooSMCSb4bBNol6QD74vUDLnonBfpz7QA2aRkAM4JDBvAPF
QOHEKsCB02nBUBxuQOY4nECskp7BP4WyQKUNBEFcbpTBVbYOQZjN4D6vNrDBtSyuQLujJ8CYoqbB
4ivCQPWza75MLovBb6INQdVtJ0Bm13vBZMsGQf7zor/1Hl/BNy3lQD1cE0AfZqvBrtKBQOSK6r7E
EaLBuS77QOze+L+kUK3BYAbAQH4Zv0CtwJrBdWThQK0ZrkC02Y/BbvegQMZ+2UD+7nnBNWSCQKa+
/kDMzITBGN3YQKjY70AJ84fBhZ+pQHXgi0CUIYfBw2QTQfBlxz/fhEzBC1IkQZOYVj58IFXBc/8m
Qfjk6j9qD2HB2P4kQYqhkMCKoIfBdWULQXMtj8AYG4HB5vgNQV9np8DfEo7BB/g1QNmCWMBGmI/B
S3WMQAgBHsBEcI/BCwiIQF2pfsCtI5fB5JfNQBb1F0EgBKDBBKzuQISVEkFhk5TBK37mQIt1/EBT
g57BgGeNQCV+NEDOjqrBuVJqQDls6D/0TKDBubAUQU14EMB47YjBK0QXQSTsQMA/5ZXBqM6CQDjP
ccDcT33Bz8J8QMc7qcBWW4bBbBfoQAOa579VoJLB1g3jQPTbYcBPlZbBYozHQE5EnsApu3zBvAjI
QMvNocBJtYzBbZ1dQOjnYECpQ5LBRNrDQFOKaEBIXp7BtDmkQBhRxT9kEo/BJ5hWQPcXsECX+4PB
ovNUQBFTyEA3jo/BKHBUQLQtikCux6PB

>  <OMEGA_E>  (5) 
xA6cPg==

>  <OMEGA_NBR>  (5) 
      1591

$$$$
50209151
     RDKit          3D

 88 91  0  0  1  0  0  0  0  0999 V2000
    6.2999    9.7333  -22.9843 C   0  0  0  0  0  0  0  0  0  0  0  0
    7.5974    9.5347  -22.4722 C   0  0  0  0  0  0  0  0  0  0  0  0
    5.1782    9.5717  -22.1475 C   0  0  0  0  0  0  0  0  0  0  0  0
    7.7744    9.1711  -21.1239 C   0  0  0  0  0  0  0  0  0  0  0  0
    5.3522    9.2148  -20.7969 C   0  0  0  0  0  0  0  0  0  0  0  0
    6.8011    0.0024  -16.7355 C   0  0  0  0  0  0  0  0  0  0  0  0
    8.4262    1.5906  -15.8430 C   0  0  0  0  0  0  0  0  0  0  0  0
    8.1624   -0.5951  -14.7998 C   0  0  0  0  0  0  0  0  0  0  0  0
    6.7850    1.2637  -21.3973 C   0  0  0  0  0  0  0  0  0  0  0  0
    5.0022   -0.2530  -20.6943 C   0  0  0  0  0  0  0  0  0  0  0  0
    7.1179   -1.1506  -21.5090 C   0  0  0  0  0  0  0  0  0  0  0  0
    7.4335    1.2629  -16.7916 C   0  0  0  0  0  0  0  0  0  0  0  0
    7.1829   -0.9339  -15.7535 C   0  0  0  0  0  0  0  0  0  0  0  0
    6.6555    9.0029  -20.2821 C   0  0  0  0  0  0  0  0  0  0  0  0
    8.7909    0.6634  -14.8489 C   0  0  0  0  0  0  0  0  0  0  0  0
    5.4836    1.0571  -20.8916 C   0  0  0  0  0  0  0  0  0  0  0  0
    7.6037    0.1595  -21.6985 C   0  0  0  0  0  0  0  0  0  0  0  0
    5.8136   -1.3548  -21.0145 C   0  0  0  0  0  0  0  0  0  0  0  0
    7.0577    2.2292  -17.8307 C   0  0  0  0  0  0  0  0  0  0  0  0
    6.5590   -2.2641  -15.7108 C   0  0  0  0  0  0  0  0  0  0  0  0
    6.0216    5.8063  -18.1194 C   0  0  0  0  0  0  0  0  0  0  0  0
    4.5602    6.8996  -16.5075 C   0  0  0  0  0  0  0  0  0  0  0  0
    5.8420    7.1004  -17.3136 C   0  0  2  0  0  0  0  0  0  0  0  0
    4.8383    4.9200  -17.6980 C   0  0  2  0  0  0  0  0  0  0  0  0
    9.7966    1.0496  -13.7892 C   0  0  0  0  0  0  0  0  0  0  0  0
    3.8570   -3.3268  -17.6075 C   0  0  0  0  0  0  0  0  0  0  0  0
    9.4655   -4.2401  -17.0946 C   0  0  0  0  0  0  0  0  0  0  0  0
    4.6156    2.2353  -20.5179 C   0  0  0  0  0  0  0  0  0  0  0  0
    6.8871    8.6627  -18.8262 C   0  0  0  0  0  0  0  0  0  0  0  0
    4.8337   -4.5017  -17.7962 C   0  0  0  0  0  0  0  0  0  0  0  0
    8.5468   -3.9695  -18.3004 C   0  0  0  0  0  0  0  0  0  0  0  0
    5.9541   -4.4781  -16.7415 C   0  0  0  0  0  0  0  0  0  0  0  0
    7.5208   -2.8718  -17.9753 C   0  0  0  0  0  0  0  0  0  0  0  0
    4.2444    4.0609  -18.8276 C   0  0  2  0  0  0  0  0  0  0  0  0
    5.2773    3.0835  -19.4108 C   0  0  1  0  0  0  0  0  0  0  0  0
    5.7661    2.1978  -18.3418 N   0  0  0  0  0  0  0  0  0  0  0  0
    6.7034   -3.1901  -16.7668 N   0  0  0  0  0  0  0  0  0  0  0  0
    3.8153    5.8561  -17.2152 N   0  0  0  0  0  0  0  0  0  0  0  0
    7.8833    3.0419  -18.2325 O   0  0  0  0  0  0  0  0  0  0  0  0
    5.9443   -2.5624  -14.6927 O   0  0  0  0  0  0  0  0  0  0  0  0
    3.7457    4.9040  -19.8675 O   0  0  0  0  0  0  0  0  0  0  0  0
    5.6687    8.2130  -18.1991 O   0  0  0  0  0  0  0  0  0  0  0  0
    8.8539    0.3576  -22.1738 F   0  0  0  0  0  0  0  0  0  0  0  0
    5.3365   -2.6086  -20.8490 F   0  0  0  0  0  0  0  0  0  0  0  0
    6.1652   10.0097  -24.0196 H   0  0  0  0  0  0  0  0  0  0  0  0
    8.4565    9.6614  -23.1143 H   0  0  0  0  0  0  0  0  0  0  0  0
    4.1842    9.7218  -22.5424 H   0  0  0  0  0  0  0  0  0  0  0  0
    8.7698    9.0206  -20.7330 H   0  0  0  0  0  0  0  0  0  0  0  0
    4.4925    9.1026  -20.1529 H   0  0  0  0  0  0  0  0  0  0  0  0
    6.0249   -0.2446  -17.4447 H   0  0  0  0  0  0  0  0  0  0  0  0
    8.9077    2.5566  -15.8803 H   0  0  0  0  0  0  0  0  0  0  0  0
    8.4317   -1.3023  -14.0293 H   0  0  0  0  0  0  0  0  0  0  0  0
    7.1519    2.2675  -21.5529 H   0  0  0  0  0  0  0  0  0  0  0  0
    4.0102   -0.4099  -20.2971 H   0  0  0  0  0  0  0  0  0  0  0  0
    7.7454   -1.9980  -21.7427 H   0  0  0  0  0  0  0  0  0  0  0  0
    5.9867    6.0132  -19.1992 H   0  0  0  0  0  0  0  0  0  0  0  0
    6.9775    5.3227  -17.8695 H   0  0  0  0  0  0  0  0  0  0  0  0
    4.7965    6.5763  -15.4830 H   0  0  0  0  0  0  0  0  0  0  0  0
    3.9775    7.8320  -16.4726 H   0  0  0  0  0  0  0  0  0  0  0  0
    6.6975    7.2482  -16.6382 H   0  0  0  0  0  0  0  0  0  0  0  0
    5.1594    4.2605  -16.8783 H   0  0  0  0  0  0  0  0  0  0  0  0
    9.2751    1.5177  -12.9413 H   0  0  0  0  0  0  0  0  0  0  0  0
   10.3270    0.1506  -13.4422 H   0  0  0  0  0  0  0  0  0  0  0  0
   10.5202    1.7617  -14.2127 H   0  0  0  0  0  0  0  0  0  0  0  0
    3.0717   -3.3750  -18.3763 H   0  0  0  0  0  0  0  0  0  0  0  0
    3.3976   -3.3886  -16.6100 H   0  0  0  0  0  0  0  0  0  0  0  0
    4.4037   -2.3769  -17.7012 H   0  0  0  0  0  0  0  0  0  0  0  0
   10.1885   -5.0277  -17.3533 H   0  0  0  0  0  0  0  0  0  0  0  0
   10.0057   -3.3188  -16.8313 H   0  0  0  0  0  0  0  0  0  0  0  0
    8.8585   -4.5670  -16.2374 H   0  0  0  0  0  0  0  0  0  0  0  0
    4.4601    2.8635  -21.4074 H   0  0  0  0  0  0  0  0  0  0  0  0
    3.6448    1.8659  -20.1557 H   0  0  0  0  0  0  0  0  0  0  0  0
    7.6416    7.8650  -18.7591 H   0  0  0  0  0  0  0  0  0  0  0  0
    7.2523    9.5578  -18.3015 H   0  0  0  0  0  0  0  0  0  0  0  0
    4.2779   -5.4466  -17.7064 H   0  0  0  0  0  0  0  0  0  0  0  0
    5.2840   -4.4349  -18.7976 H   0  0  0  0  0  0  0  0  0  0  0  0
    9.1602   -3.6471  -19.1547 H   0  0  0  0  0  0  0  0  0  0  0  0
    8.0130   -4.8953  -18.5609 H   0  0  0  0  0  0  0  0  0  0  0  0
    5.5089   -4.6128  -15.7446 H   0  0  0  0  0  0  0  0  0  0  0  0
    6.6536   -5.3023  -16.9451 H   0  0  0  0  0  0  0  0  0  0  0  0
    8.0581   -1.9283  -17.7989 H   0  0  0  0  0  0  0  0  0  0  0  0
    6.8461   -2.7541  -18.8361 H   0  0  0  0  0  0  0  0  0  0  0  0
    3.4172    3.4705  -18.4066 H   0  0  0  0  0  0  0  0  0  0  0  0
    6.1131    3.6534  -19.8429 H   0  0  0  0  0  0  0  0  0  0  0  0
    5.1275    1.5305  -17.9587 H   0  0  0  0  0  0  0  0  0  0  0  0
    3.1814    5.3945  -16.5946 H   0  0  0  0  0  0  0  0  0  0  0  0
    3.3060    6.2464  -17.9821 H   0  0  0  0  0  0  0  0  0  0  0  0
    3.3804    4.3685  -20.5620 H   0  0  0  0  0  0  0  0  0  0  0  0
  1  2  2  0
  1  3  1  0
  2  4  1  0
  3  5  2  0
  4 14  2  0
  5 14  1  0
  6 12  2  0
  6 13  1  0
  7 12  1  0
  7 15  2  0
  8 13  2  0
  8 15  1  0
  9 16  2  0
  9 17  1  0
 10 16  1  0
 10 18  2  0
 11 17  2  0
 11 18  1  0
 12 19  1  0
 13 20  1  0
 14 29  1  0
 15 25  1  0
 16 28  1  0
 17 43  1  0
 18 44  1  0
 19 36  1  0
 19 39  2  0
 20 37  1  0
 20 40  2  0
 21 23  1  0
 21 24  1  0
 22 23  1  0
 22 38  1  0
 23 42  1  0
 24 34  1  0
 24 38  1  0
 26 30  1  0
 27 31  1  0
 28 35  1  0
 29 42  1  0
 30 32  1  0
 31 33  1  0
 32 37  1  0
 33 37  1  0
 34 35  1  0
 34 41  1  0
 35 36  1  0
  1 45  1  0
  2 46  1  0
  3 47  1  0
  4 48  1  0
  5 49  1  0
  6 50  1  0
  7 51  1  0
  8 52  1  0
  9 53  1  0
 10 54  1  0
 11 55  1  0
 21 56  1  0
 21 57  1  0
 22 58  1  0
 22 59  1  0
 23 60  1  1
 24 61  1  1
 25 62  1  0
 25 63  1  0
 25 64  1  0
 26 65  1  0
 26 66  1  0
 26 67  1  0
 27 68  1  0
 27 69  1  0
 27 70  1  0
 28 71  1  0
 28 72  1  0
 29 73  1  0
 29 74  1  0
 30 75  1  0
 30 76  1  0
 31 77  1  0
 31 78  1  0
 32 79  1  0
 32 80  1  0
 33 81  1  0
 33 82  1  0
 34 83  1  1
 35 84  1  6
 36 85  1  0
 38 86  1  0
 38 87  1  0
 41 88  1  0
M  CHG  1  38   1
M  END
>  <OMEGA_C>  (6) 
DpnJQJS7G0Hq37fB1R3zQPONGEEHx7PBf7OlQNolGUEjLrHBicf4QPC8EkHU/ajBTEWrQP1vE0H2
X6bBgKLZQDTwHTtP4oXBrdEGQTKZyz8WfX3BFpkCQaFWGL8ozGzByh7ZQJnAoT/ALavBNRKgQD6J
gb7gjaXBCcbjQDdGk79dEqzBRN/tQKWloT8eVYbBadrlQMoRb79FDnzBffnUQOULEEGxQaLBtqcM
QW/UKT82lW3BeHmvQHhPhz/4IafBn1HzQFFYIz6elq3BvQi6QBZprb/AHajB19jhQACsDkA/pY7B
o+PRQMXmEMCJX3vBJ7HAQHLNuUCV9JDBOe2RQKLJ3EBnD4TBWvG6QDo240BUgorBXtOaQLRwnUCQ
lY3BzL4cQZRahj+JoFzBqdh2QIbpVMA83IzBsHIXQSavh8C5wYjBlrKTQMsOD0CpJKTBC2PcQEWa
CkENnJbB4K2aQJgNkMC4Xo7B5L8IQaQLfsAoZ5LBwYe+QMlMj8CS7oXBgqrwQIvLN8BzzY/Bh9KH
QKDygUDknpbBtt+oQOFXRUBiSZvB7IO4QEqpDEAavJLBnoLWQPUpTMBaIobB0S10QM1ku0CvuInB
PUT8QPWuQkA63JHBEji+QMn9I8A6FWvBK7pvQDPtnECP8J7B7GW1QGJoA0G+l5HBbKkNQf0ctz7+
Y7HBrsSqQIHyJsDMyqbBWEnFQNsnIEEyKMDBp00HQfiUGkEj6rjB1eSFQFOMG0HIVrTBJ1EMQVpU
EEFA3aXBO8KPQA2kEUE7OaHBVszAQCKBer7DjovB64UOQaSfI0CVFX7BT+gGQd2xpr8qeGDBEdzk
QJseEUBUbKzB21OAQDHk0b6BYKLBGNr3QBG+/7/z8K3BMJO/QAdswEAJmJnBUUffQIVTqkCj9I7B
N32ZQABx0kBtunfBu49+QFqf+kDPx4PBBFLWQDPx50AVG4XBxxmlQAxWiEDDBofBnmYUQclCwj94
D0/BcDslQT06Gj5OE1fBkVIoQXGA4T88Z2PBX5ZEQOv/V8ClApPBsXJZQIreWMAu4YTBeOuMQLge
GMATnI3BIwQjQS7joMCY04rBYBcgQVxnVMBspobBdbwNQdYkksBD5oHB1riOQLhDN0BJQqvBs0Rp
QHnU7j/RPqHBnYf0QAWu+0CXEpbBlRLoQPPsGEGCaZLBg+SIQNNKrsCupo3BohapQOvqjcCSYZbB
/I8SQXlpacDfPJnBETUAQeSlnMC1fJTBK0mwQPabk8AI6nvBGurUQFesqcCCj4fBAO4AQZDS9r8b
ZI7BJBPbQPVCMMBDsJbBCLRaQAEdXkDAQJPBHp7DQO/RaUBHvp7BaBSkQB3mwz90q4/BBpxLQIqf
rEC9wYTB8pVTQM/ix0Bx24/BTFhYQCnLi0DxfqTB

>  <OMEGA_E>  (6) 
gHG7PA==

>  <OMEGA_NBR>  (6) 
     20128

$$$$
50209150
     RDKit          3D

 85 88  0  0  1  0  0  0  0  0999 V2000
    7.4319    9.3205  -21.9162 C   0  0  0  0  0  0  0  0  0  0  0  0
    6.0341    9.2132  -22.0467 C   0  0  0  0  0  0  0  0  0  0  0  0
    8.0517    8.9934  -20.6950 C   0  0  0  0  0  0  0  0  0  0  0  0
    5.2562    8.7759  -20.9581 C   0  0  0  0  0  0  0  0  0  0  0  0
    7.2770    8.5515  -19.6051 C   0  0  0  0  0  0  0  0  0  0  0  0
    6.8529   -0.0178  -16.7746 C   0  0  0  0  0  0  0  0  0  0  0  0
    8.4173    1.5843  -15.7989 C   0  0  0  0  0  0  0  0  0  0  0  0
    8.1511   -0.6210  -14.7985 C   0  0  0  0  0  0  0  0  0  0  0  0
    6.8464    1.2884  -21.4006 C   0  0  0  0  0  0  0  0  0  0  0  0
    5.0327   -0.2229  -20.7704 C   0  0  0  0  0  0  0  0  0  0  0  0
    7.1500   -1.1274  -21.5736 C   0  0  0  0  0  0  0  0  0  0  0  0
    7.4576    1.2594  -16.7832 C   0  0  0  0  0  0  0  0  0  0  0  0
    7.2169   -0.9668  -15.7959 C   0  0  0  0  0  0  0  0  0  0  0  0
    8.7662    0.6449  -14.8098 C   0  0  0  0  0  0  0  0  0  0  0  0
    5.5326    1.0868  -20.9230 C   0  0  0  0  0  0  0  0  0  0  0  0
    5.8656    8.4322  -19.7341 C   0  0  0  0  0  0  0  0  0  0  0  0
    7.6567    0.1806  -21.7165 C   0  0  0  0  0  0  0  0  0  0  0  0
    5.8366   -1.3273  -21.1030 C   0  0  0  0  0  0  0  0  0  0  0  0
    7.0730    2.2535  -17.7983 C   0  0  0  0  0  0  0  0  0  0  0  0
    6.5810   -2.2967  -15.7599 C   0  0  0  0  0  0  0  0  0  0  0  0
    6.0501    5.8436  -18.0733 C   0  0  0  0  0  0  0  0  0  0  0  0
    4.5340    6.9794  -16.6049 C   0  0  0  0  0  0  0  0  0  0  0  0
    5.6258    7.2513  -17.6249 C   0  0  2  0  0  0  0  0  0  0  0  0
    4.8686    4.9246  -17.6728 C   0  0  2  0  0  0  0  0  0  0  0  0
    9.7429    1.0203  -13.7180 C   0  0  0  0  0  0  0  0  0  0  0  0
    3.8296   -3.5042  -17.6860 C   0  0  0  0  0  0  0  0  0  0  0  0
    9.5591   -3.9767  -16.9961 C   0  0  0  0  0  0  0  0  0  0  0  0
    4.6661    2.2668  -20.5356 C   0  0  0  0  0  0  0  0  0  0  0  0
    4.8541   -4.6456  -17.8155 C   0  0  0  0  0  0  0  0  0  0  0  0
    8.6374   -3.9518  -18.2281 C   0  0  0  0  0  0  0  0  0  0  0  0
    5.9621   -4.5290  -16.7529 C   0  0  0  0  0  0  0  0  0  0  0  0
    7.4881   -2.9422  -18.0487 C   0  0  0  0  0  0  0  0  0  0  0  0
    4.2816    4.0843  -18.8243 C   0  0  2  0  0  0  0  0  0  0  0  0
    5.3163    3.1008  -19.4096 C   0  0  1  0  0  0  0  0  0  0  0  0
    5.7980    2.1967  -18.3505 N   0  0  0  0  0  0  0  0  0  0  0  0
    6.6693   -3.2178  -16.8307 N   0  0  0  0  0  0  0  0  0  0  0  0
    3.8194    5.8195  -17.1449 N   0  0  0  0  0  0  0  0  0  0  0  0
    7.8656    3.1303  -18.1263 O   0  0  0  0  0  0  0  0  0  0  0  0
    5.9997   -2.6017  -14.7239 O   0  0  0  0  0  0  0  0  0  0  0  0
    3.8017    4.9485  -19.8553 O   0  0  0  0  0  0  0  0  0  0  0  0
    5.0309    8.0037  -18.7122 O   0  0  0  0  0  0  0  0  0  0  0  0
    8.9235    0.3720  -22.1490 F   0  0  0  0  0  0  0  0  0  0  0  0
    5.3473   -2.5795  -20.9617 F   0  0  0  0  0  0  0  0  0  0  0  0
    8.0286    9.6537  -22.7525 H   0  0  0  0  0  0  0  0  0  0  0  0
    5.5585    9.4666  -22.9826 H   0  0  0  0  0  0  0  0  0  0  0  0
    9.1234    9.0816  -20.5939 H   0  0  0  0  0  0  0  0  0  0  0  0
    4.1836    8.7031  -21.0613 H   0  0  0  0  0  0  0  0  0  0  0  0
    7.7556    8.3027  -18.6695 H   0  0  0  0  0  0  0  0  0  0  0  0
    6.1109   -0.2679  -17.5184 H   0  0  0  0  0  0  0  0  0  0  0  0
    8.8856    2.5575  -15.8050 H   0  0  0  0  0  0  0  0  0  0  0  0
    8.3960   -1.3308  -14.0221 H   0  0  0  0  0  0  0  0  0  0  0  0
    7.2292    2.2908  -21.5235 H   0  0  0  0  0  0  0  0  0  0  0  0
    4.0310   -0.3778  -20.3976 H   0  0  0  0  0  0  0  0  0  0  0  0
    7.7686   -1.9763  -21.8249 H   0  0  0  0  0  0  0  0  0  0  0  0
    6.2105    5.8159  -19.1612 H   0  0  0  0  0  0  0  0  0  0  0  0
    6.9721    5.5351  -17.5588 H   0  0  0  0  0  0  0  0  0  0  0  0
    4.9680    6.7471  -15.6212 H   0  0  0  0  0  0  0  0  0  0  0  0
    3.8609    7.8446  -16.5136 H   0  0  0  0  0  0  0  0  0  0  0  0
    6.4706    7.7857  -17.1659 H   0  0  0  0  0  0  0  0  0  0  0  0
    5.2072    4.2447  -16.8771 H   0  0  0  0  0  0  0  0  0  0  0  0
    9.1967    1.4684  -12.8748 H   0  0  0  0  0  0  0  0  0  0  0  0
   10.2726    0.1196  -13.3744 H   0  0  0  0  0  0  0  0  0  0  0  0
   10.4703    1.7461  -14.1106 H   0  0  0  0  0  0  0  0  0  0  0  0
    3.0542   -3.6175  -18.4579 H   0  0  0  0  0  0  0  0  0  0  0  0
    3.3637   -3.5411  -16.6902 H   0  0  0  0  0  0  0  0  0  0  0  0
    4.3388   -2.5380  -17.8170 H   0  0  0  0  0  0  0  0  0  0  0  0
   10.3669   -4.7058  -17.1565 H   0  0  0  0  0  0  0  0  0  0  0  0
    9.9925   -2.9774  -16.8423 H   0  0  0  0  0  0  0  0  0  0  0  0
    8.9766   -4.2643  -16.1084 H   0  0  0  0  0  0  0  0  0  0  0  0
    4.5207    2.9083  -21.4173 H   0  0  0  0  0  0  0  0  0  0  0  0
    3.6909    1.8952  -20.1877 H   0  0  0  0  0  0  0  0  0  0  0  0
    4.3361   -5.6076  -17.6884 H   0  0  0  0  0  0  0  0  0  0  0  0
    5.3112   -4.6046  -18.8152 H   0  0  0  0  0  0  0  0  0  0  0  0
    9.2282   -3.6685  -19.1117 H   0  0  0  0  0  0  0  0  0  0  0  0
    8.2124   -4.9553  -18.3777 H   0  0  0  0  0  0  0  0  0  0  0  0
    5.5105   -4.6312  -15.7551 H   0  0  0  0  0  0  0  0  0  0  0  0
    6.6920   -5.3369  -16.9096 H   0  0  0  0  0  0  0  0  0  0  0  0
    7.9157   -1.9322  -17.9650 H   0  0  0  0  0  0  0  0  0  0  0  0
    6.8342   -2.9915  -18.9318 H   0  0  0  0  0  0  0  0  0  0  0  0
    3.4445    3.4953  -18.4215 H   0  0  0  0  0  0  0  0  0  0  0  0
    6.1582    3.6723  -19.8274 H   0  0  0  0  0  0  0  0  0  0  0  0
    5.1690    1.4990  -18.0075 H   0  0  0  0  0  0  0  0  0  0  0  0
    3.2993    5.3618  -16.4237 H   0  0  0  0  0  0  0  0  0  0  0  0
    3.1983    6.1005  -17.8766 H   0  0  0  0  0  0  0  0  0  0  0  0
    3.4407    4.4277  -20.5631 H   0  0  0  0  0  0  0  0  0  0  0  0
  1  2  2  0
  1  3  1  0
  2  4  1  0
  3  5  2  0
  4 16  2  0
  5 16  1  0
  6 12  2  0
  6 13  1  0
  7 12  1  0
  7 14  2  0
  8 13  2  0
  8 14  1  0
  9 15  2  0
  9 17  1  0
 10 15  1  0
 10 18  2  0
 11 17  2  0
 11 18  1  0
 12 19  1  0
 13 20  1  0
 14 25  1  0
 15 28  1  0
 16 41  1  0
 17 42  1  0
 18 43  1  0
 19 35  1  0
 19 38  2  0
 20 36  1  0
 20 39  2  0
 21 23  1  0
 21 24  1  0
 22 23  1  0
 22 37  1  0
 23 41  1  0
 24 33  1  0
 24 37  1  0
 26 29  1  0
 27 30  1  0
 28 34  1  0
 29 31  1  0
 30 32  1  0
 31 36  1  0
 32 36  1  0
 33 34  1  0
 33 40  1  0
 34 35  1  0
  1 44  1  0
  2 45  1  0
  3 46  1  0
  4 47  1  0
  5 48  1  0
  6 49  1  0
  7 50  1  0
  8 51  1  0
  9 52  1  0
 10 53  1  0
 11 54  1  0
 21 55  1  0
 21 56  1  0
 22 57  1  0
 22 58  1  0
 23 59  1  1
 24 60  1  1
 25 61  1  0
 25 62  1  0
 25 63  1  0
 26 64  1  0
 26 65  1  0
 26 66  1  0
 27 67  1  0
 27 68  1  0
 27 69  1  0
 28 70  1  0
 28 71  1  0
 29 72  1  0
 29 73  1  0
 30 74  1  0
 30 75  1  0
 31 76  1  0
 31 77  1  0
 32 78  1  0
 32 79  1  0
 33 80  1  1
 34 81  1  6
 35 82  1  0
 37 83  1  0
 37 84  1  0
 40 85  1  0
M  CHG  1  37   1
M  END
>  <OMEGA_C>  (7) 
e9LtQPAgFUFKVK/BvxfBQGRpE0GiX7DB69MAQRTlD0Fij6XBmDKoQBdqDEElqqfBAN3oQOXSCEFG
15zBMUvbQMRykbxbMobBdq0GQWPKyj8ayHzB82oCQc38Hr+kxmzB1hXbQI3ppD+HNKvB/QuhQCpD
ZL7FKabBKc3kQEFNkL+/lqzB16TuQEg0oT/yQ4bBi/DmQG1/d78rvHzBUEIMQQMWJT/O9GzBPQux
QDsdiz9PYqfBZ7O7QDnqBkFa353BpAP1QOrtOD5xu63Bm8W6QOnkqb/Y0qjBWVbiQKY5EEAEY47B
QZfSQHr9EsCWKHzBrZrBQCf/ukAvlpDBQxaRQBhX30DF1oTBWAa0QNMK6EDa/4zB4MubQHSWnUDs
YY3B4+IbQXqagj/NfFvBrBh1QL9EYMD1fI3B/vEYQYSBfsD594fBlVCVQLgSEUDySKTBDlWbQOCo
lMAsho7BzzIKQZzqfMBA05HBf8m+QL3tkMD9BYbBYp7vQAhNPMCsY5DB5QKJQO+ygkBDmJbBDB+q
QNpzRkDbRpvBH4m5QCCXDEDTzZLBp2rVQKrvTcBgpYbBUnB0QDg5ukC/KInBy7L7QJVXSECqApHB
5f2/QNiBJsAzlWvBxE5zQO1ZnkCS157BLP2gQFsPAEGbspXBksYOQRp6vj4cMbHBdR2rQFUXJcCL
safB8nQAQX51GkEgBbbBad+xQDd3F0Fv3LfBWPkRQStOEUFTwKTBAOCFQMI/C0GffajBnC34QLjX
BEEQW5XBp4zDQE8nib6wJYzBPysOQU6uI0BF4XzBCFYGQbxWqr+5WmDBpFXnQN6bEkAmMKzBBf6A
QD5vwb47LqPB+5f4QM73/L9Lma7BQbzGQAMcukAySpnBqxvfQHgfsUB5eIzB9fmeQPLn10Bf8HnB
EBl3QC8H+0DFG4TBUg/PQIEk+UDZU4nB/6CmQFjUh0BnBIfBkSUTQRnzuz81/03Bm1wkQWvs9D11
/VXBR4YnQeGA3z/xxGHBn3dDQN6EZ8DRqZPBcEdXQM2gYsCYhYXBydeKQJFuIsBMiY7B3t4lQRaW
lsB2QInBJeEfQX6NPsAavYbBTqAPQc10iMDt3YDB3qmQQDUhOkCaVqvBQjhsQCOW8j9+gKHBfMGK
QNVxs8DXgY3BjfWpQLdYk8CKhZbB46YTQeTHasC05JjBDGYDQQCSnsCHBZPBO1awQCMzlMDtFHzB
wiTWQCDIqsDWRofBwk39QCpS979iuI/Br7HaQER1P8BndJfBjnJcQLeyX0BQX5PBLxDFQNoGa0CH
np7Bn2ilQK7gvz9hD5DBMShTQD2Uq0C3Y4PBOrFMQGE3w0AzA4/B3DRcQMavjUAvgaTBHcHtQAA8
FEEjOK/Be/MAQSY2DkHDmqXB6dLAQJy1E0GoA7DBtjPpQDCRB0FkyZzBzQaoQNsmDUEpNKfBw+za
QLTh5Ly5N4bBrrgGQfo6yD8n6HzBuVQCQajiI79N7GzBQAnbQMpyoj8cMavBogqhQDp8dL7fDabB
IZTkQN/Ykr+YlazBH4TuQEmMnz9lS4bB9pPmQFLZer/g0HzBK0oMQYolHz++IG3BJxSxQI74iD/J
T6fBNNO7QMjhBkHtkJ3Bh9H0QFarIz4yxK3BaKa6QFojrL8AvqjBzF3iQMWTD0CkaY7B5i/SQF6+
E8BnMHzB0DzBQK66ukDMjJDB2LqQQLeQ3kDlr4TB3/izQICn50C0vozBUlabQItanUC4b43B/Rkc
QcQDfT+3xlvBVZh2QNWPXsA4F43BHGkZQQt4fsCYB4jBOWKVQBclEECUQaTB3taaQEHslMA8HI7B
gGwKQckrfsCTy5HBBUa/QPPPkcDr2IXBlNPvQDcsPsAHT5DB6eKIQPuHgkD6sZbBvyaqQCIQRkDA
S5vBZ3W5QJqYDECyxZLBgQTWQJjjT8BTgYbB1nBzQOsCukCxQonBjfj7QFUTR0AMGZHBbBu/QBqL
JsDHsmvBlrBzQIcvnkBc+57B6jmhQMBgAEFGTZXByp4OQUu6sj7IULHBc/mqQN4pJsCekqfBwGEA
QahBGUHf+7XBTy4SQTWwDkG6/aTBcmCxQDlXGEFeY7fBMcD4QMb7AkExa5XBn4+FQOjrDEHl1KfB
EAXDQFbdi74TJIzBNE4OQXM4IkC3BX3B6TsGQVoJrb9zhmDBYlbnQAJUEUAKL6zB5AyBQGqAyL7T
BaPB50X4QGao/7+mn67ByDbGQLJsukDiQpnBVMDeQPNjsECrgozBfVOeQPRV1kCUq3nBBMl2QItb
+kBI2IPBChLPQKQs+EBK8IjB4fSlQCKMh0AWD4fBFIYTQWczuD+HNE7B2IMkQUltqj1HXlbBEMYn
QX7M2j+CImLBBKdDQAJFZcA4G5PBTi1aQHqkXsAeCoXB3XKMQBP6IcBDZY7B42smQQZalsBBV4nB
KjYgQd0nPsCH6YbB5U8QQUdfiMD92YDByrKQQPHXOEAoV6vBh2NsQEHw8D/McqHBnl2JQO0Ns8Aj
14zB07moQLm4lMBHMpbBpacTQQonbMDt8JjBYcEDQd1en8Bk4ZLBRLexQEpplcBxjXvB5lfWQNy2
q8BvWIfBM0D9QM2M+r+Ts4/BOK7aQNjtQcABVJfB2+1bQL1iX0AFipPBOxnFQKyFakDDp57B+CKl
QGlMwT8Z8Y/BqP1QQG8tq0BDoYPBcsVMQN6Zw0DIKo/B2QFdQMGEjUCdq6TBckztQA9HFUF0SK/B
9o0AQTztD0F9hqXBGILAQMvmE0GHSrDBgTXoQF0jCUEXxZzBZ4GnQNE6DUFTiqfBBQ3eQIJDkj3L
1YXB8gIHQVyB3D+42XvBvrYDQYwP+r7UyWvBYujcQHE3rT8x2qrBcvCjQN2kT74D7KXBW6voQHrG
hr86LazBKgjwQDrgrj8K5IXB1ZbqQPFKXb/s/nvBwHAMQV7XTj+Xk2vBEfGyQH8+jz8rGqfBd/m6
QKKuB0HWwJ3Bv9T3QIdxiD6QS63BRbO+QOuQpL8OhajBwDLjQJTnFUB8Ho7BxuLXQKdoDcD+snvB
iJTAQBDivECUjJDB7UqPQPm44EAl5oTBi86yQBvP6UBl4IzBML+aQPhTn0Dweo3B4GwcQSW1mD/1
gFrBQ18YQfAlkMAPGYnB3AFiQFrEjsATN4zB00SWQBPMEUCDD6TBA34UQYKiQ8ApwozBnayaQJ8s
cMA68o7BacD5QN5ONcC9pI/BLRO/QE1ch8DlnIfBEO6IQJvyg0DptpbBt6GqQB4bSUDOKZvBw2C6
QAPPEEDUiZLBCu7cQGHdRsA1c4bBx3VxQG3qu0CZeonBezb8QFlTTkBx15DB8uzBQAqnIMCsJmzB
wwJ0QLcln0BCHJ/BoCugQBcvAUFjiZXBhSoQQXg/+j7WprDBHR+wQMsrI8AAfafBLjsAQf9vGkGG
/rXB7LoRQdwHEUEkwaTBzFSxQKb3F0FRyLfBpX73QD0IBUE/TJXBgCKFQIhaDEF7VKjBxqfGQKTy
T76gzYvBRFgOQRrULECHJXzBahYIQf8emb8Afl/B+VXoQMRaF0Be2KvBS+aDQIhKxL7oBaPBiTz9
QGtp8b/EH67BffTFQO9TvECtPpnB7vvdQIfmskClZ4zBWZmcQFfH2EDZ/nnBbn5zQHxm/EC1KITB
K5rNQDe2+kCUConBVDilQDniiUD3AofBDPETQam30D+ww0zBzDwlQbrXmD4lSFXBdLwnQb0N9z+n
CmHBx18pQVxjlMDpFYfBOYUOQavwlsCTAYLBCf4TQTZFpsBDlY/BTOwuQDBZg8AgjpHB5zdqQCR7
scDkP43Bg55QQC3hh8AJ3YPBNdeQQA/xOUA/KavBUfpuQAAe8T8gL6HBzPYYQUi+F8BlQIbBnG8e
QV5nNsAW1JPBXyWjQJr9fcClT5fBrliWQKzJKsDK7I3BH3X1QMbO5L+0KZLBIijxQM80YMAvSJbB
OjayQKeKkMDPf3/BLn/PQI7uosCKOovBMBNcQNkDYkC5lJPBQF/FQL3cbUAzk57BBnmmQKxeyD85
sI/B7otOQPsorUBS4YPBullLQBo3xUCCeI/BUxleQMAojkBmyaTBtVvrQOeBFUF7uq/BDxwAQe5w
EEGoEabBVIe+QJLOE0Htd7DBeVfoQDSWCUHzJZ3BuI6mQEoGDUFKj6fB0GHdQMi4rrzOmIXBD4AI
Qcapyz+uUn3BX7cEQbGnFb8VLGzBEH3aQJDKpz/ZRqvBseahQDM+Zb42raXBSFzlQGXljL+bhqzB
9vTwQPY5oD9rKYbBxcbpQAMWcL/WJXvBR60OQRDDLD9pXW3B5wqxQFzNiz+dIqfBoRm7QNu5B0H8
353Bj7T0QJzbWj7t5a3BFPa7QJa9qL88aajBRJrjQCQyD0DCT47BZGrTQD1WDsAKMHnBj8vBQDFA
vEBA6JDBBkySQDJT4EDOyoTBR+K0QH066UB5CY3BnpGcQCHCnkDDW43BuM0eQTKIij9QkVzBqox7
QGriesBXeIzBbOYMQdCIhcDEopfB6TmVQK6+EEAC5qPB2vWtQHyIgcDTl47BpV8MQSJkP8Cqzo/B
keHGQHc/j8BBZITB7/IIQX3HXsDsOoTBKmeJQC3IgkAITZbBnWuqQBUwRkBV8prBGj66QNleDECW
c5LBTXbkQKMcWsBh4oDBvS92QPyJu0DdKonB6Kr8QMJIR0BzHpHBBUSvQEN7DcDal3HBy2VyQDOO
nUA+o57BmUmhQO8cAUEDfZXBCWEOQWPT1z5XorHBplqtQGT7JMCc/KbBz779QG+yGkGJkbbBIEwR
QXvQEUETgKXB94euQEu1F0Hg37fB12z4QGa9BUEpv5XBryeEQNHeC0HbJajBsO/EQGUYlr7STYvB
ghEQQTPkI0A3Gn7BFDkJQfTto7++wF/BihDmQAxdFECnbqzBYUeCQPdUyL5PdaLBF1n5QPaH+L8p
oa7B/FjFQP29u0BQqZnBLgDgQBEtskDmJ43BaISgQOhw2EB++XnB1tl5QLoS/EAB6oPBzlHQQLDJ
+UBfZYnB0hSoQL/FiUD/54bBGHcWQR4Wxz/OCk/B/3InQUyxRD7h5VbBxT0qQYHf5T+PiWPB8NFa
QN5tZ8A635PBnixiQPt1nMBQx4nB94xwQARxSsAJPIbBeloPQdkfc8Db0Z/BKRYaQUsvm8BbeZXB
Bkb7QG/7lsDQOJfByPOPQNbtOUCn6arBc5tsQPu78D9sAKHBQRWzQIOpmcD23pTBbUW6QBPYRMCw
U5HBEKYbQfmfHMBYR5DB1WX+QEA4FMDNBpLBZeqvQO7tlcDH3nvBDmjZQH5WrMAcJ4bBO1MOQfjT
kMCKp4PB3IwSQQO+NsAqoH3BGANeQBIaYECh15LBdUjFQKyJakDFXZ7B0wymQAlWwT+egY/BJmNU
QOb2rEAQb4PBB91OQAbLxEA7Co/B7cRaQDlHjEBEJqTBs/rqQPFuFUFUra/B5zu+QCZQE0F6d7DB
fdD/QL24EEEp+KXBYFGmQCJ6DEG2jqfBXgDoQObKCUFIDZ3BvRneQJgZKb0Oe4XBwOIIQQB1yj+U
a33BCjoFQd9+Fb9y8GvBSZraQMtGpj+mU6vB48SiQPtHfr6MeqXBrxPmQOERjr8mi6zBsaDxQLjf
nT+/KYbBm3zqQJGXcb/Xq3rBLjEPQUpkLD+0ZG3BU3GxQBIXiT9wC6fBOtm6QKKGB0EC053B+PP0
QDYEVT6sBa7BvPW8QKUdq79aSajBbubjQF8BDkBWTI7Buf/RQJlBC8C/KXfBk7bBQKm2u0Do9pDB
r3KSQMKA30CyvYTBet60QKSZ6ECnBI3B9JucQKIknkBSYI3BrE0fQem+iz9+pVzBTEp1QA2zkcDL
gpDBygIaQePWcMBelpXBE2GVQKQGD0DH0qPBJFGaQJPjY8BKu4vBD0IEQUyiVMDDRJHBCK64QBIH
icBW24PB3D8DQXqraMCkQoXBlWWJQFcYgkBsSpbBxXuqQIbJRED35ZrBzmu6QMcwC0AkYJLBpazb
QBaxV8Da5IDB6lN2QCLZukCYJonBbsz8QM1ORkAhIpHBZ7exQPw+BsBYGGzBxEVyQGnInEDNpJ7B
DCKhQCbeAEEvbZXBx0cOQQbV2T6uArLBC6KuQH9jJsBN4abBylH9QC2sGkH6g7bBpkGuQOXuFkE6
6bfBWw8RQa9sEkFnXKXBFvmDQHYDC0HHLqjBZRL4QGMyBkH6nZXBecDFQCEtpr6VLYvB/WQQQSNg
I0BPVH7BoNwJQQIao7/Xe1/BDtzlQLzFE0B3iKzBU2qDQLtu2L5xH6LBdjX6QO4h+b/UrK7BJQDF
QC9du0DAuZnBGQrgQLqYsUAdSI3BfdKgQMFo10A073nBgDR6QKA7+0BQyoPB/V7QQGgY+UDnY4nB
r0ioQNcziUDe7obBPfIWQSwNyT+HL0/BlvonQbKlUj5921bBs7cqQafR5j95tWPBW3RKQLztgMCH
GJbBQTiMQOTZqsDL0pTB9D1PQGdCoMA6EIrBJuoaQXfFYsCyMp7BssUmQdcKTsARXpHBaAMcQTAD
m8DiTZTB+eyPQI8IOEBd2KrBahxtQMyU7D946KDBikCtQF3LRsCAMpLBQ6eIQGOcMcDub4fBKDkC
Qb9vD8Bah5LBve3uQEhrd8Ard5XBedWmQN1dksCbR3nBIf3FQHnCpcBRs4fB1zAHQXRHlsCaBITB
OPoOQbJ+QMCHCYHBxw5eQGTCXkAl0JLBf0/FQMkmaUBCVZ7BtTymQOt3vz/TXo/BModUQPAvrEBV
boPBGv5OQGM7xEBXAo/BJ5VaQDdxi0CUI6TB

>  <OMEGA_E>  (7) 
YH4nPaA0Dj3gzzo+uBGLPrjhpD4=

>  <OMEGA_NBR>  (7) 
      6786

$$$$
50147869
     RDKit          3D

 84 88  0  0  1  0  0  0  0  0999 V2000
    6.5545    9.2952  -22.0311 C   0  0  0  0  0  0  0  0  0  0  0  0
    7.7756    9.1896  -21.3358 C   0  0  0  0  0  0  0  0  0  0  0  0
    5.3379    9.0445  -21.3647 C   0  0  0  0  0  0  0  0  0  0  0  0
    7.7816    8.8421  -19.9720 C   0  0  0  0  0  0  0  0  0  0  0  0
    5.3411    8.6992  -19.9991 C   0  0  0  0  0  0  0  0  0  0  0  0
    6.7644    0.0814  -16.6080 C   0  0  0  0  0  0  0  0  0  0  0  0
    8.0423   -0.4238  -14.5953 C   0  0  0  0  0  0  0  0  0  0  0  0
    8.2506    1.7639  -15.6523 C   0  0  0  0  0  0  0  0  0  0  0  0
    6.5072    1.2010  -21.4651 C   0  0  0  0  0  0  0  0  0  0  0  0
    4.8025   -0.3571  -20.6656 C   0  0  0  0  0  0  0  0  0  0  0  0
    6.8455   -1.2025  -21.6941 C   0  0  0  0  0  0  0  0  0  0  0  0
    7.1417   -0.8270  -15.6023 C   0  0  0  0  0  0  0  0  0  0  0  0
    7.3218    1.3738  -16.6423 C   0  0  0  0  0  0  0  0  0  0  0  0
    6.5661    8.6011  -19.2981 C   0  0  0  0  0  0  0  0  0  0  0  0
    8.5893    0.8747  -14.6129 C   0  0  0  0  0  0  0  0  0  0  0  0
    5.2589    0.9630  -20.8493 C   0  0  0  0  0  0  0  0  0  0  0  0
    7.3036    0.1179  -21.8773 C   0  0  0  0  0  0  0  0  0  0  0  0
    5.5905   -1.4376  -21.0973 C   0  0  0  0  0  0  0  0  0  0  0  0
    5.9948    5.8288  -18.2145 C   0  0  0  0  0  0  0  0  0  0  0  0
    6.5859   -2.1885  -15.5957 C   0  0  0  0  0  0  0  0  0  0  0  0
    6.9361    2.2952  -17.7154 C   0  0  0  0  0  0  0  0  0  0  0  0
    7.7096   -4.0200  -18.5946 C   0  0  0  0  0  0  0  0  0  0  0  0
    6.8980   -5.0782  -17.8335 C   0  0  0  0  0  0  0  0  0  0  0  0
    7.2924   -2.6692  -18.0071 C   0  0  0  0  0  0  0  0  0  0  0  0
    4.6046    7.0028  -16.7503 C   0  0  0  0  0  0  0  0  0  0  0  0
    4.8384    4.9359  -17.7529 C   0  0  2  0  0  0  0  0  0  0  0  0
    5.9727   -4.2977  -16.8892 C   0  0  2  0  0  0  0  0  0  0  0  0
    9.6020    1.2828  -13.5667 C   0  0  0  0  0  0  0  0  0  0  0  0
    2.4619   -2.9999  -17.1825 C   0  0  0  0  0  0  0  0  0  0  0  0
    4.4028    2.1161  -20.3907 C   0  0  0  0  0  0  0  0  0  0  0  0
    6.5880    8.2503  -17.8223 C   0  0  0  0  0  0  0  0  0  0  0  0
    4.5640   -4.1315  -17.4911 C   0  0  0  0  0  0  0  0  0  0  0  0
    4.2095    4.0954  -18.8726 C   0  0  2  0  0  0  0  0  0  0  0  0
    5.1637    3.0038  -19.3895 C   0  0  1  0  0  0  0  0  0  0  0  0
    5.8140    7.0407  -17.5681 N   0  0  0  0  0  0  0  0  0  0  0  0
    6.6236   -2.9892  -16.7392 N   0  0  0  0  0  0  0  0  0  0  0  0
    5.6643    2.1797  -18.2762 N   0  0  0  0  0  0  0  0  0  0  0  0
    3.8319    5.8765  -17.2607 N   0  0  0  0  0  0  0  0  0  0  0  0
    6.8195    5.6112  -19.0951 O   0  0  0  0  0  0  0  0  0  0  0  0
    6.1078   -2.6283  -14.5566 O   0  0  0  0  0  0  0  0  0  0  0  0
    7.7447    3.1249  -18.1140 O   0  0  0  0  0  0  0  0  0  0  0  0
    3.8324    4.9499  -19.9551 O   0  0  0  0  0  0  0  0  0  0  0  0
    3.7604   -3.2924  -16.6400 O   0  0  0  0  0  0  0  0  0  0  0  0
    8.5055    0.3467  -22.4524 F   0  0  0  0  0  0  0  0  0  0  0  0
    5.1452   -2.7022  -20.9280 F   0  0  0  0  0  0  0  0  0  0  0  0
    6.5507    9.5685  -23.0759 H   0  0  0  0  0  0  0  0  0  0  0  0
    8.7072    9.3754  -21.8496 H   0  0  0  0  0  0  0  0  0  0  0  0
    4.4034    9.1172  -21.9011 H   0  0  0  0  0  0  0  0  0  0  0  0
    8.7182    8.7599  -19.4406 H   0  0  0  0  0  0  0  0  0  0  0  0
    4.4091    8.5093  -19.4875 H   0  0  0  0  0  0  0  0  0  0  0  0
    6.0443   -0.2139  -17.3568 H   0  0  0  0  0  0  0  0  0  0  0  0
    8.3137   -1.1119  -13.8083 H   0  0  0  0  0  0  0  0  0  0  0  0
    8.7016    2.7444  -15.6920 H   0  0  0  0  0  0  0  0  0  0  0  0
    6.8498    2.2135  -21.6192 H   0  0  0  0  0  0  0  0  0  0  0  0
    3.8482   -0.5384  -20.1935 H   0  0  0  0  0  0  0  0  0  0  0  0
    7.4567   -2.0346  -22.0113 H   0  0  0  0  0  0  0  0  0  0  0  0
    8.7871   -4.1851  -18.4472 H   0  0  0  0  0  0  0  0  0  0  0  0
    7.4764   -4.0585  -19.6689 H   0  0  0  0  0  0  0  0  0  0  0  0
    6.3060   -5.6843  -18.5351 H   0  0  0  0  0  0  0  0  0  0  0  0
    7.5680   -5.7336  -17.2577 H   0  0  0  0  0  0  0  0  0  0  0  0
    8.1750   -2.0374  -17.8286 H   0  0  0  0  0  0  0  0  0  0  0  0
    6.6012   -2.1499  -18.6872 H   0  0  0  0  0  0  0  0  0  0  0  0
    4.8598    6.8472  -15.6917 H   0  0  0  0  0  0  0  0  0  0  0  0
    4.0376    7.9394  -16.8569 H   0  0  0  0  0  0  0  0  0  0  0  0
    5.1812    4.2754  -16.9428 H   0  0  0  0  0  0  0  0  0  0  0  0
    5.9054   -4.8141  -15.9203 H   0  0  0  0  0  0  0  0  0  0  0  0
   10.6128    1.0196  -13.9117 H   0  0  0  0  0  0  0  0  0  0  0  0
    9.5419    2.3688  -13.4023 H   0  0  0  0  0  0  0  0  0  0  0  0
    9.3878    0.7570  -12.6245 H   0  0  0  0  0  0  0  0  0  0  0  0
    1.9073   -2.3582  -16.4821 H   0  0  0  0  0  0  0  0  0  0  0  0
    2.5755   -2.4795  -18.1449 H   0  0  0  0  0  0  0  0  0  0  0  0
    1.9089   -3.9383  -17.3362 H   0  0  0  0  0  0  0  0  0  0  0  0
    4.1173    2.7216  -21.2636 H   0  0  0  0  0  0  0  0  0  0  0  0
    3.4975    1.7217  -19.9061 H   0  0  0  0  0  0  0  0  0  0  0  0
    7.6286    8.0862  -17.5057 H   0  0  0  0  0  0  0  0  0  0  0  0
    6.1566    9.0826  -17.2469 H   0  0  0  0  0  0  0  0  0  0  0  0
    4.6453   -3.6696  -18.4862 H   0  0  0  0  0  0  0  0  0  0  0  0
    4.0884   -5.1191  -17.5831 H   0  0  0  0  0  0  0  0  0  0  0  0
    3.3145    3.6011  -18.4669 H   0  0  0  0  0  0  0  0  0  0  0  0
    6.0074    3.4834  -19.9073 H   0  0  0  0  0  0  0  0  0  0  0  0
    5.0493    1.4890  -17.8958 H   0  0  0  0  0  0  0  0  0  0  0  0
    3.2872    5.4620  -16.5316 H   0  0  0  0  0  0  0  0  0  0  0  0
    3.2284    6.1689  -18.0025 H   0  0  0  0  0  0  0  0  0  0  0  0
    3.4430    4.4301  -20.6485 H   0  0  0  0  0  0  0  0  0  0  0  0
  1  2  2  0
  1  3  1  0
  2  4  1  0
  3  5  2  0
  4 14  2  0
  5 14  1  0
  6 12  2  0
  6 13  1  0
  7 12  1  0
  7 15  2  0
  8 13  2  0
  8 15  1  0
  9 16  2  0
  9 17  1  0
 10 16  1  0
 10 18  2  0
 11 17  2  0
 11 18  1  0
 12 20  1  0
 13 21  1  0
 14 31  1  0
 15 28  1  0
 16 30  1  0
 17 44  1  0
 18 45  1  0
 19 26  1  0
 19 35  1  0
 19 39  2  0
 20 36  1  0
 20 40  2  0
 21 37  1  0
 21 41  2  0
 22 23  1  0
 22 24  1  0
 23 27  1  0
 24 36  1  0
 25 35  1  0
 25 38  1  0
 26 33  1  0
 26 38  1  0
 27 32  1  0
 27 36  1  0
 29 43  1  0
 30 34  1  0
 31 35  1  0
 32 43  1  0
 33 34  1  0
 33 42  1  0
 34 37  1  0
  1 46  1  0
  2 47  1  0
  3 48  1  0
  4 49  1  0
  5 50  1  0
  6 51  1  0
  7 52  1  0
  8 53  1  0
  9 54  1  0
 10 55  1  0
 11 56  1  0
 22 57  1  0
 22 58  1  0
 23 59  1  0
 23 60  1  0
 24 61  1  0
 24 62  1  0
 25 63  1  0
 25 64  1  0
 26 65  1  1
 27 66  1  1
 28 67  1  0
 28 68  1  0
 28 69  1  0
 29 70  1  0
 29 71  1  0
 29 72  1  0
 30 73  1  0
 30 74  1  0
 31 75  1  0
 31 76  1  0
 32 77  1  0
 32 78  1  0
 33 79  1  1
 34 80  1  6
 37 81  1  0
 38 82  1  0
 38 83  1  0
 42 84  1  0
M  CHG  1  38   1
M  END
>  <OMEGA_C>  (8) 
jb7RQB65FEGfP7DB+9H4QLIIE0Gjr6rBH9CqQFS2EEHq6qrBmQL5QFh5DUGhxp/BouqqQMUvC0EX
/p/BDHbYQCKjpj0q3YTBZq0AQej+2L4thmnBcAIEQbvH4T/kb3rBIzvQQGy5mT90uKvBAq6ZQHjP
tr4TU6XBvA7bQOvqmb+Pja3B84jkQEG4U7/qonnB30vqQPvXrz95I4XBOh3SQC+eCUFyYprBu20J
QffuXz9YzmnB5EioQDKGdj9Gy6bB9bbpQO5l8T24BK/BCuWyQNEEuL8/x6jBFtW/QO+FukBjt5HB
1L/SQGoQDMD+h3nB7/TdQN3kEkApuY3BIrX2QPGjgMDUwZTBPrzcQISAosALq47BtFvpQOjTKsB3
DpDBRVmTQDoX4ECWAIbBgdSaQNHynUD5BY7BkSC/QPGGicArHYfBuKEZQcMxpD8aEVnBJY8dQDT+
P8DSdYnByeOMQIhuB0AwIKPBQ9HSQDYBBEEplI7BngySQGo1hMDg7YvBH7SGQMYNg0AU+5bB3Dyl
QNc+QEClHZvBDAy6QD5N4UCCi4zBpvTTQH5OP8Db6YXB4UG1QOd/C0ClNZLBWj11QDUMvEDmFYrB
/zjaQI6Os0CtwpjBFnPDQP81KMC652jBvtT3QCr/R0Bm6ZDBZUV1QDFlnkAZpJ/BqalwQOe2UsCm
HoXBqBYIQSp9sT59nrPBI6WkQBXwLMB5bKfBtJ/RQLgYGUFvm7jB0lALQcUBFkHqy67BfOiMQCfg
EUGONa/BvH0LQWIoDEFghpvBfBeNQEsmCEFn5pvB3mrBQEb8Wr6u2orBAwUFQURUjr/97lzBqTkL
QeGkL0BwEnvBtjHbQGiqDUAi9KzBskh2QBHUCb9YjKHBDZ3uQBs2AsAYF7DBBZgMQXrshcDyk5PB
UT7vQDXfgcD8WZ3BwsrJQPjltcDOR5TBTy3yQGN5t8DfD4rB4cwCQQVkAsDxoI7BUj3TQPqXCcBe
f5XBo4ObQF4c20AUEXvBFDSBQE0P/kD+2obBB8ylQPHPiEDfiofBA/m8QFYNmsCruX7B5M0pQXqC
gj9xll7ByqsYQdKZF0Dub1bBgzQWQazHQT8L/knBCCL0Pz7sFsBI24PBBdUkQKCvHsDaKJHBeFf0
P2MNfMCBsIrBocCDQA8uLkDVG6rBUddfQF5f3D+yP5/Bxx30QCRhAUG3C4zB3QLFQGFSEUG1+YnB
/qWUQALbasCp45PB89OCQJPPo8AhqozBziBUQDR4ZkAfvJPB8DzAQMXvXkASQp/BBpShQJGWvj+H
Ko/B9WBSQAPJrkDIQITBRZ5OQJpnxUAzBZDBuVlcQKnDjUAjMKXB

>  <OMEGA_E>  (8) 
OMpIPg==

>  <OMEGA_NBR>  (8) 
      4647

$$$$
50147868
     RDKit          3D

 88 92  0  0  1  0  0  0  0  0999 V2000
    6.1095    9.4803  -22.2925 C   0  0  0  0  0  0  0  0  0  0  0  0
    7.4535    9.4690  -21.8704 C   0  0  0  0  0  0  0  0  0  0  0  0
    5.0871    9.1082  -21.3996 C   0  0  0  0  0  0  0  0  0  0  0  0
    7.7784    9.0744  -20.5585 C   0  0  0  0  0  0  0  0  0  0  0  0
    5.4076    8.7225  -20.0861 C   0  0  0  0  0  0  0  0  0  0  0  0
    6.7443    0.0423  -16.6796 C   0  0  0  0  0  0  0  0  0  0  0  0
    7.8830   -0.5682  -14.6192 C   0  0  0  0  0  0  0  0  0  0  0  0
    8.2367    1.6381  -15.5855 C   0  0  0  0  0  0  0  0  0  0  0  0
    6.5492    1.1670  -21.4954 C   0  0  0  0  0  0  0  0  0  0  0  0
    4.8093   -0.3102  -20.6196 C   0  0  0  0  0  0  0  0  0  0  0  0
    6.8105   -1.2509  -21.6459 C   0  0  0  0  0  0  0  0  0  0  0  0
    7.0331   -0.8989  -15.6743 C   0  0  0  0  0  0  0  0  0  0  0  0
    7.3396    1.3222  -16.6391 C   0  0  0  0  0  0  0  0  0  0  0  0
    6.7613    8.6827  -19.6636 C   0  0  0  0  0  0  0  0  0  0  0  0
    5.3015    0.9861  -20.8634 C   0  0  0  0  0  0  0  0  0  0  0  0
    8.4859    0.6855  -14.5579 C   0  0  0  0  0  0  0  0  0  0  0  0
    7.3067    0.0479  -21.8790 C   0  0  0  0  0  0  0  0  0  0  0  0
    5.5582   -1.4274  -21.0227 C   0  0  0  0  0  0  0  0  0  0  0  0
    6.0377    6.0035  -18.3635 C   0  0  0  0  0  0  0  0  0  0  0  0
    6.4519   -2.2323  -15.6857 C   0  0  0  0  0  0  0  0  0  0  0  0
    6.9813    2.3159  -17.6725 C   0  0  0  0  0  0  0  0  0  0  0  0
    7.8510   -4.0946  -18.5233 C   0  0  0  0  0  0  0  0  0  0  0  0
    6.8632   -5.1292  -17.9663 C   0  0  0  0  0  0  0  0  0  0  0  0
    7.3576   -2.7498  -18.0070 C   0  0  0  0  0  0  0  0  0  0  0  0
    5.1876    7.7338  -16.7554 C   0  0  0  0  0  0  0  0  0  0  0  0
    4.3401    6.6161  -16.1458 C   0  0  0  0  0  0  0  0  0  0  0  0
    4.9713    5.0049  -17.8369 C   0  0  2  0  0  0  0  0  0  0  0  0
    5.9909   -4.3745  -16.9452 C   0  0  2  0  0  0  0  0  0  0  0  0
   10.2601    1.9305  -13.5393 C   0  0  0  0  0  0  0  0  0  0  0  0
    2.5284   -2.9219  -17.0645 C   0  0  0  0  0  0  0  0  0  0  0  0
    4.4937    2.1774  -20.4383 C   0  0  0  0  0  0  0  0  0  0  0  0
    7.1484    8.2346  -18.2590 C   0  0  0  0  0  0  0  0  0  0  0  0
    4.5590   -4.1567  -17.4779 C   0  0  0  0  0  0  0  0  0  0  0  0
    4.3243    4.1229  -18.9076 C   0  0  2  0  0  0  0  0  0  0  0  0
    5.2763    3.0356  -19.4296 C   0  0  1  0  0  0  0  0  0  0  0  0
    6.2062    7.2380  -17.7136 N   0  0  0  0  0  0  0  0  0  0  0  0
    6.6517   -3.0792  -16.7662 N   0  0  0  0  0  0  0  0  0  0  0  0
    5.7504    2.1865  -18.3200 N   0  0  0  0  0  0  0  0  0  0  0  0
    3.8695    5.7505  -17.2199 N   0  0  0  0  0  0  0  0  0  0  0  0
    6.7659    5.7009  -19.3041 O   0  0  0  0  0  0  0  0  0  0  0  0
    5.9185   -2.6520  -14.6643 O   0  0  0  0  0  0  0  0  0  0  0  0
    7.7505    3.2324  -17.9409 O   0  0  0  0  0  0  0  0  0  0  0  0
    3.8470    4.9440  -19.9757 O   0  0  0  0  0  0  0  0  0  0  0  0
    9.2568    0.9128  -13.4368 O   0  0  0  0  0  0  0  0  0  0  0  0
    3.8025   -3.3444  -16.5571 O   0  0  0  0  0  0  0  0  0  0  0  0
    8.5072    0.2221  -22.4748 F   0  0  0  0  0  0  0  0  0  0  0  0
    5.0771   -2.6704  -20.8041 F   0  0  0  0  0  0  0  0  0  0  0  0
    5.8634    9.7747  -23.3020 H   0  0  0  0  0  0  0  0  0  0  0  0
    8.2359    9.7636  -22.5542 H   0  0  0  0  0  0  0  0  0  0  0  0
    4.0568    9.1189  -21.7232 H   0  0  0  0  0  0  0  0  0  0  0  0
    8.8094    9.0715  -20.2367 H   0  0  0  0  0  0  0  0  0  0  0  0
    4.6206    8.4556  -19.3964 H   0  0  0  0  0  0  0  0  0  0  0  0
    6.0678   -0.2139  -17.4816 H   0  0  0  0  0  0  0  0  0  0  0  0
    8.0757   -1.2923  -13.8414 H   0  0  0  0  0  0  0  0  0  0  0  0
    8.7291    2.5991  -15.5636 H   0  0  0  0  0  0  0  0  0  0  0  0
    6.9214    2.1631  -21.6840 H   0  0  0  0  0  0  0  0  0  0  0  0
    3.8591   -0.4448  -20.1242 H   0  0  0  0  0  0  0  0  0  0  0  0
    7.3903   -2.1116  -21.9450 H   0  0  0  0  0  0  0  0  0  0  0  0
    8.8685   -4.2977  -18.1581 H   0  0  0  0  0  0  0  0  0  0  0  0
    7.8463   -4.1104  -19.6232 H   0  0  0  0  0  0  0  0  0  0  0  0
    6.2390   -5.5363  -18.7755 H   0  0  0  0  0  0  0  0  0  0  0  0
    7.4057   -5.9495  -17.4736 H   0  0  0  0  0  0  0  0  0  0  0  0
    8.2026   -2.0743  -17.8078 H   0  0  0  0  0  0  0  0  0  0  0  0
    6.6756   -2.2801  -18.7311 H   0  0  0  0  0  0  0  0  0  0  0  0
    4.5200    8.4303  -17.2838 H   0  0  0  0  0  0  0  0  0  0  0  0
    5.7025    8.2656  -15.9417 H   0  0  0  0  0  0  0  0  0  0  0  0
    4.9490    6.0326  -15.4395 H   0  0  0  0  0  0  0  0  0  0  0  0
    3.4795    7.0505  -15.6160 H   0  0  0  0  0  0  0  0  0  0  0  0
    5.4439    4.3566  -17.0843 H   0  0  0  0  0  0  0  0  0  0  0  0
    5.9562   -4.9326  -15.9979 H   0  0  0  0  0  0  0  0  0  0  0  0
   10.8001    2.0112  -12.5843 H   0  0  0  0  0  0  0  0  0  0  0  0
   10.9679    1.6682  -14.3395 H   0  0  0  0  0  0  0  0  0  0  0  0
    9.7828    2.8935  -13.7730 H   0  0  0  0  0  0  0  0  0  0  0  0
    2.0160   -2.3104  -16.3072 H   0  0  0  0  0  0  0  0  0  0  0  0
    2.6765   -2.3266  -17.9775 H   0  0  0  0  0  0  0  0  0  0  0  0
    1.9158   -3.8052  -17.2981 H   0  0  0  0  0  0  0  0  0  0  0  0
    4.2566    2.7868  -21.3228 H   0  0  0  0  0  0  0  0  0  0  0  0
    3.5602    1.8318  -19.9701 H   0  0  0  0  0  0  0  0  0  0  0  0
    8.1540    7.7900  -18.2933 H   0  0  0  0  0  0  0  0  0  0  0  0
    7.1581    9.1128  -17.5967 H   0  0  0  0  0  0  0  0  0  0  0  0
    4.6075   -3.6507  -18.4534 H   0  0  0  0  0  0  0  0  0  0  0  0
    4.0627   -5.1314  -17.5947 H   0  0  0  0  0  0  0  0  0  0  0  0
    3.4672    3.6140  -18.4426 H   0  0  0  0  0  0  0  0  0  0  0  0
    6.1292    3.5095  -19.9376 H   0  0  0  0  0  0  0  0  0  0  0  0
    5.1406    1.4588  -18.0059 H   0  0  0  0  0  0  0  0  0  0  0  0
    3.2076    5.1007  -16.8462 H   0  0  0  0  0  0  0  0  0  0  0  0
    3.4269    6.3124  -17.9187 H   0  0  0  0  0  0  0  0  0  0  0  0
    3.4453    4.3974  -20.6408 H   0  0  0  0  0  0  0  0  0  0  0  0
  1  2  2  0
  1  3  1  0
  2  4  1  0
  3  5  2  0
  4 14  2  0
  5 14  1  0
  6 12  2  0
  6 13  1  0
  7 12  1  0
  7 16  2  0
  8 13  2  0
  8 16  1  0
  9 15  2  0
  9 17  1  0
 10 15  1  0
 10 18  2  0
 11 17  2  0
 11 18  1  0
 12 20  1  0
 13 21  1  0
 14 32  1  0
 15 31  1  0
 16 44  1  0
 17 46  1  0
 18 47  1  0
 19 27  1  0
 19 36  1  0
 19 40  2  0
 20 37  1  0
 20 41  2  0
 21 38  1  0
 21 42  2  0
 22 23  1  0
 22 24  1  0
 23 28  1  0
 24 37  1  0
 25 26  1  0
 25 36  1  0
 26 39  1  0
 27 34  1  0
 27 39  1  0
 28 33  1  0
 28 37  1  0
 29 44  1  0
 30 45  1  0
 31 35  1  0
 32 36  1  0
 33 45  1  0
 34 35  1  0
 34 43  1  0
 35 38  1  0
  1 48  1  0
  2 49  1  0
  3 50  1  0
  4 51  1  0
  5 52  1  0
  6 53  1  0
  7 54  1  0
  8 55  1  0
  9 56  1  0
 10 57  1  0
 11 58  1  0
 22 59  1  0
 22 60  1  0
 23 61  1  0
 23 62  1  0
 24 63  1  0
 24 64  1  0
 25 65  1  0
 25 66  1  0
 26 67  1  0
 26 68  1  0
 27 69  1  1
 28 70  1  1
 29 71  1  0
 29 72  1  0
 29 73  1  0
 30 74  1  0
 30 75  1  0
 30 76  1  0
 31 77  1  0
 31 78  1  0
 32 79  1  0
 32 80  1  0
 33 81  1  0
 33 82  1  0
 34 83  1  1
 35 84  1  6
 38 85  1  0
 39 86  1  0
 39 87  1  0
 43 88  1  0
M  CHG  1  39   1
M  END
>  <OMEGA_C>  (9) 
qoDDQFevF0HyVrLBO4PuQDaBF0GE9q7BUMmiQDa7EUFOMqvB/+j4QJYwEUHZd6TBRwutQIWPC0FR
sKDBCtHXQOhpLT3Nb4XB2kH8QEZ3Eb9u6GnBoMkDQfWt0T8YXnnBXpPRQNBelT+r9qvBxeWZQKXQ
nr7l9KTBle/ZQKcdoL++Kq3B5w7hQEYhZr/fyXrBBt7qQB8/qT/JHIXBfFzYQIHsCkH/Tp3B66Wp
QK5wfD9W6KbBWsYHQRR8Lz897WjBUNDpQFgSRD0kCK/B/tyxQDm0tr+LLqjBljTBQPkcwEBw6JLB
wHXOQMjeDsCx+HrBm2bfQGY3FEA4YY3Bijv7QLwGg8CyL5TB757bQEsipMASu4/BLXHrQDz8L8BT
DpDBzwCmQEJ790D6CobBLuKKQPm200CTKoHBxhSfQBIooED5sY7BnLW/QC38i8DAj4fBkykkQaMZ
9z/ToFjBG9EhQA8BO8AOhIjBecyPQLpaC0CVgaPBs7/kQMnAA0FqEpLBW+ORQIwDhcDJ0ovBBGGK
QMzug0DYQpfBydeoQMRHQkDAb5vBMpnGQMOd50BstY3BGdvUQOUQRcBEIYbBKwO4QADvC0Bgj5LB
laV3QNkDuEBXwonBeoLYQGlttkDQbprBDWS9QPm5KcDJoGrBugP4QLzfTkDoho/BeTV2QKI1nkA7
zp/B6xsUQT6saT8g/VbBkltzQNgJVsDxdITBox0IQStwYz5izLPBh3eiQIzoKsDEbqbBBqG7QDdl
HEGAarrBEsYDQdA3HEHsbrTBGNGBQCPnEUExya3BO/MMQeQkEUHO5KHBrNuTQFVKB0HJK5vBjivC
QOoAW75B2ovBQDYBQf9opb9pdl3BRqoLQftXJkCbBHnByXvdQLpwCkDheK3BcPt2QB28475d/qDB
F33sQJQkB8BGj6/BfeUNQSiHicCzQ5HBoxT7QB+Ig8A+/JzBRabHQH8pscA7NJbBrPvsQAxivsAF
yovBxD0DQUzBBMBSdo7BLp7VQL3tEcBE2ZXBFqSQQE/iBkFTRYrB1Xq2QAtABEE8EX/BEF6eQPQK
wUBOCHfBf7BeQOyd4UA923nBWDSuQClpi0C7rIjBy5i+QEPYncCI93/BN80sQSK4AEBaWUnBdnwv
QSOH1T9wbmXBhYYcQecvOUBpXlzBbAYBQD3dE8AndYLBikwrQEPmFMDg0Y/B8Tf1PxuIc8CGYorB
uTWIQC5aMkAularBz9pjQPV46j/Iwp/ByHYCQRNI+UChWJLBTA/lQBnOEUEexozBQ3CTQHikacCb
oJPBrAGCQFE0pMD6wYzBIuZdQL9LZ0BpipPBXCLEQFCcYEAbgJ/BAoCkQGa5uj8MDJDBD0lNQN44
o0DsxIbB71FbQPP+yUCMWY/BpX9cQMm3jEBRIKXB2jvNQDaeF0H0t7DBVKGqQLXzEUG6FqrBaGr3
QJiYFkHrxazBijGyQD4dC0Gnip/BVhv/QFObD0EPPqLBiYfYQIn5uT2X+4XBVkz7QHKmbb7UcWnB
ct0AQSJO8z/M+XvBoljTQHWckz9XkqvBiOOaQAhmt779gKXBBRneQIwLob94V6zBxI7iQA5bPr9M
h3rBaLfoQOyNsz86YobBPKncQDmACUEDoJvBDO6pQHoxcz8GVKfBxksFQVBXjT9BKmrB5HjtQJLV
TD0GAa7B6r60QJ3kur8yIqjB71vAQD7FvEAeXJLBrprRQHa2B8BbxXnBwBbeQAx7EUB5R4/BsHn8
QAvGgsDB8ZLBg+PbQKDSosBVgY7BpbfrQADILcDBro/BnBilQNyH8kCfKYXB4KeKQHEFzkBzboDB
ATadQAmqnEACrI7BDyW/QPUhicCIyobBEQkeQQ5mWz/QSE3BM8YcQJwPQcAWU4nBSCSOQFhyCEA8
XaTBkCLmQJBjAUEGYpDBt7iRQOC0hMDmeIvB0MuHQEHxgkARupfB+selQPdXQUDhTZzBVD/GQI8r
40Als4zBH7/TQAqxPcDkzIXBlG21QK+CC0BRkpPBykd1QLXMs0AjO4nBp1LYQKzZs0AXz5nBkdfA
QOUqIcBHOGnBwiX4QMCWRkBZY5LBWoBzQL9Jn0CM8Z/BoV8QQV7e2j+kvVnBrI9vQBEKU8BS1ITB
D5gKQcL8fT74/bHB+fulQJKvLcAAg6bBmnDHQEfBHEH91rjBj0qKQFvbEkE3Gq3B0vAIQUguG0Gh
1bHBJ5eXQGAUB0GdaJrB4boPQTvrDkFZOZ/BemjEQEFvjb4+XYzBa0gBQVevW79a11vBRx4HQdkA
OkA1zXzBCuzeQLX/CUAN8qzBkBJ3QN+fA7/2FqLBKQHyQIbTBsDfSq7BFyMOQWx9iMCWc4/BwG7+
QF9PhcA0tZvB6KrIQMR/sMBfCZXBdlTsQK63vMAsMIrB7ysDQek9AcCvOI7BHqPWQMxjE8AJ6ZXB
Q3+PQE4zBEFnc4nB0uC0QH3rAUETMH3B6tGeQPF1ukAgQnbBDUBfQPEl20BjsnfBtuqrQAvuhUB4
DInBw6+9QPpNmcB7933BmvYlQaWNuT8WwUDBD2gUQUp/gT2e0UXBijMqQdEdzz6bvVfB+GHxP9Fd
F8B42oPBN6okQLC4IMAiFJHBXELzP0JafcC9e4rBeNeGQIvMLUDDmKvB1FNgQJen4j8HxaDBkvcC
Qfmu80D0WZDBnwrmQGMQD0Hi14rB+dGTQGiCbcDRiJPB7tyCQMuOpMAK9YvByblXQPn5ZEB4TJTB
P8vAQB3bYEAEWKDBMYWhQLh+vz9ohZDBYWdLQAySnkDFU4bB++pXQDTFxkChho7BoidZQAFMj0BT
gaXB

>  <OMEGA_E>  (9) 
gEiUPmj5oD4=

>  <OMEGA_NBR>  (9) 
      7710

$$$$
50147874
     RDKit          3D

 87 91  0  0  1  0  0  0  0  0999 V2000
    6.1836    9.5088  -22.1431 C   0  0  0  0  0  0  0  0  0  0  0  0
    7.5283    9.4724  -21.7243 C   0  0  0  0  0  0  0  0  0  0  0  0
    5.1589    9.1235  -21.2586 C   0  0  0  0  0  0  0  0  0  0  0  0
    7.8518    9.0352  -20.4258 C   0  0  0  0  0  0  0  0  0  0  0  0
    5.4781    8.6936  -19.9590 C   0  0  0  0  0  0  0  0  0  0  0  0
    6.7613    0.0818  -16.6001 C   0  0  0  0  0  0  0  0  0  0  0  0
    8.0491   -0.4645  -14.6036 C   0  0  0  0  0  0  0  0  0  0  0  0
    8.2743    1.7340  -15.6341 C   0  0  0  0  0  0  0  0  0  0  0  0
    6.5313    1.1416  -21.5104 C   0  0  0  0  0  0  0  0  0  0  0  0
    4.7862   -0.3431  -20.6583 C   0  0  0  0  0  0  0  0  0  0  0  0
    6.7991   -1.2754  -21.6681 C   0  0  0  0  0  0  0  0  0  0  0  0
    7.1338   -0.8422  -15.6058 C   0  0  0  0  0  0  0  0  0  0  0  0
    7.3330    1.3705  -16.6243 C   0  0  0  0  0  0  0  0  0  0  0  0
    6.8329    8.6234  -19.5424 C   0  0  0  0  0  0  0  0  0  0  0  0
    8.6129    0.8258  -14.6108 C   0  0  0  0  0  0  0  0  0  0  0  0
    5.2778    0.9543  -20.8901 C   0  0  0  0  0  0  0  0  0  0  0  0
    7.2957    0.0254  -21.8903 C   0  0  0  0  0  0  0  0  0  0  0  0
    5.5413   -1.4562  -21.0568 C   0  0  0  0  0  0  0  0  0  0  0  0
    6.0432    5.9244  -18.3302 C   0  0  0  0  0  0  0  0  0  0  0  0
    6.5555   -2.1929  -15.6008 C   0  0  0  0  0  0  0  0  0  0  0  0
    6.9527    2.3163  -17.6860 C   0  0  0  0  0  0  0  0  0  0  0  0
    7.5195   -4.0402  -18.7079 C   0  0  0  0  0  0  0  0  0  0  0  0
    6.8869   -5.0920  -17.7940 C   0  0  0  0  0  0  0  0  0  0  0  0
    7.3215   -2.6965  -17.9902 C   0  0  0  0  0  0  0  0  0  0  0  0
    5.2495    7.6312  -16.6661 C   0  0  0  0  0  0  0  0  0  0  0  0
    4.3074    6.5458  -16.1387 C   0  0  0  0  0  0  0  0  0  0  0  0
    4.9398    4.9507  -17.8382 C   0  0  2  0  0  0  0  0  0  0  0  0
    5.9475   -4.3065  -16.8781 C   0  0  2  0  0  0  0  0  0  0  0  0
    9.6432    1.2039  -13.5707 C   0  0  0  0  0  0  0  0  0  0  0  0
    2.4532   -2.9731  -17.1844 C   0  0  0  0  0  0  0  0  0  0  0  0
    4.4640    2.1374  -20.4564 C   0  0  0  0  0  0  0  0  0  0  0  0
    7.2203    8.1145  -18.1586 C   0  0  0  0  0  0  0  0  0  0  0  0
    4.5454   -4.1287  -17.4919 C   0  0  0  0  0  0  0  0  0  0  0  0
    4.2989    4.0801  -18.9223 C   0  0  2  0  0  0  0  0  0  0  0  0
    5.2466    2.9917  -19.4466 C   0  0  1  0  0  0  0  0  0  0  0  0
    6.2520    7.1296  -17.6395 N   0  0  0  0  0  0  0  0  0  0  0  0
    6.6062   -3.0019  -16.7368 N   0  0  0  0  0  0  0  0  0  0  0  0
    5.7303    2.1472  -18.3375 N   0  0  0  0  0  0  0  0  0  0  0  0
    3.8457    5.7307  -17.2551 N   0  0  0  0  0  0  0  0  0  0  0  0
    6.7520    5.6374  -19.2904 O   0  0  0  0  0  0  0  0  0  0  0  0
    6.0497   -2.6167  -14.5679 O   0  0  0  0  0  0  0  0  0  0  0  0
    7.7164    3.2260  -17.9886 O   0  0  0  0  0  0  0  0  0  0  0  0
    3.8398    4.9106  -19.9901 O   0  0  0  0  0  0  0  0  0  0  0  0
    3.7562   -3.2619  -16.6529 O   0  0  0  0  0  0  0  0  0  0  0  0
    8.5049    0.2039  -22.4676 F   0  0  0  0  0  0  0  0  0  0  0  0
    5.0586   -2.6986  -20.8432 F   0  0  0  0  0  0  0  0  0  0  0  0
    5.9389    9.8327  -23.1439 H   0  0  0  0  0  0  0  0  0  0  0  0
    8.3121    9.7803  -22.4004 H   0  0  0  0  0  0  0  0  0  0  0  0
    4.1278    9.1582  -21.5783 H   0  0  0  0  0  0  0  0  0  0  0  0
    8.8830    9.0153  -20.1054 H   0  0  0  0  0  0  0  0  0  0  0  0
    4.6897    8.4157  -19.2752 H   0  0  0  0  0  0  0  0  0  0  0  0
    6.0340   -0.1976  -17.3480 H   0  0  0  0  0  0  0  0  0  0  0  0
    8.3189   -1.1661  -13.8281 H   0  0  0  0  0  0  0  0  0  0  0  0
    8.7352    2.7103  -15.6619 H   0  0  0  0  0  0  0  0  0  0  0  0
    6.9020    2.1395  -21.6925 H   0  0  0  0  0  0  0  0  0  0  0  0
    3.8303   -0.4819  -20.1752 H   0  0  0  0  0  0  0  0  0  0  0  0
    7.3826   -2.1339  -21.9662 H   0  0  0  0  0  0  0  0  0  0  0  0
    8.5909   -4.2470  -18.8472 H   0  0  0  0  0  0  0  0  0  0  0  0
    7.0177   -4.0303  -19.6868 H   0  0  0  0  0  0  0  0  0  0  0  0
    6.3236   -5.8293  -18.3850 H   0  0  0  0  0  0  0  0  0  0  0  0
    7.6597   -5.6075  -17.2049 H   0  0  0  0  0  0  0  0  0  0  0  0
    8.2952   -2.2341  -17.7708 H   0  0  0  0  0  0  0  0  0  0  0  0
    6.7243   -2.0152  -18.6140 H   0  0  0  0  0  0  0  0  0  0  0  0
    4.6446    8.4066  -17.1589 H   0  0  0  0  0  0  0  0  0  0  0  0
    5.7848    8.0714  -15.8119 H   0  0  0  0  0  0  0  0  0  0  0  0
    4.8433    5.9120  -15.4169 H   0  0  0  0  0  0  0  0  0  0  0  0
    3.4445    7.0157  -15.6442 H   0  0  0  0  0  0  0  0  0  0  0  0
    5.3736    4.2938  -17.0699 H   0  0  0  0  0  0  0  0  0  0  0  0
    5.8659   -4.8104  -15.9037 H   0  0  0  0  0  0  0  0  0  0  0  0
   10.6461    0.9314  -13.9313 H   0  0  0  0  0  0  0  0  0  0  0  0
    9.6008    2.2882  -13.3900 H   0  0  0  0  0  0  0  0  0  0  0  0
    9.4322    0.6675  -12.6338 H   0  0  0  0  0  0  0  0  0  0  0  0
    1.9132   -2.3098  -16.4926 H   0  0  0  0  0  0  0  0  0  0  0  0
    2.5573   -2.4776  -18.1610 H   0  0  0  0  0  0  0  0  0  0  0  0
    1.8912   -3.9107  -17.3070 H   0  0  0  0  0  0  0  0  0  0  0  0
    4.2204    2.7507  -21.3365 H   0  0  0  0  0  0  0  0  0  0  0  0
    3.5342    1.7840  -19.9869 H   0  0  0  0  0  0  0  0  0  0  0  0
    8.2109    7.6401  -18.2194 H   0  0  0  0  0  0  0  0  0  0  0  0
    7.2644    8.9679  -17.4660 H   0  0  0  0  0  0  0  0  0  0  0  0
    4.6382   -3.6835  -18.4935 H   0  0  0  0  0  0  0  0  0  0  0  0
    4.0533   -5.1093  -17.5707 H   0  0  0  0  0  0  0  0  0  0  0  0
    3.4333    3.5735  -18.4704 H   0  0  0  0  0  0  0  0  0  0  0  0
    6.0971    3.4671  -19.9570 H   0  0  0  0  0  0  0  0  0  0  0  0
    5.1400    1.4005  -18.0310 H   0  0  0  0  0  0  0  0  0  0  0  0
    3.1376    5.1043  -16.9292 H   0  0  0  0  0  0  0  0  0  0  0  0
    3.4627    6.3297  -17.9584 H   0  0  0  0  0  0  0  0  0  0  0  0
    3.4420    4.3709  -20.6631 H   0  0  0  0  0  0  0  0  0  0  0  0
  1  2  2  0
  1  3  1  0
  2  4  1  0
  3  5  2  0
  4 14  2  0
  5 14  1  0
  6 12  2  0
  6 13  1  0
  7 12  1  0
  7 15  2  0
  8 13  2  0
  8 15  1  0
  9 16  2  0
  9 17  1  0
 10 16  1  0
 10 18  2  0
 11 17  2  0
 11 18  1  0
 12 20  1  0
 13 21  1  0
 14 32  1  0
 15 29  1  0
 16 31  1  0
 17 45  1  0
 18 46  1  0
 19 27  1  0
 19 36  1  0
 19 40  2  0
 20 37  1  0
 20 41  2  0
 21 38  1  0
 21 42  2  0
 22 23  1  0
 22 24  1  0
 23 28  1  0
 24 37  1  0
 25 26  1  0
 25 36  1  0
 26 39  1  0
 27 34  1  0
 27 39  1  0
 28 33  1  0
 28 37  1  0
 30 44  1  0
 31 35  1  0
 32 36  1  0
 33 44  1  0
 34 35  1  0
 34 43  1  0
 35 38  1  0
  1 47  1  0
  2 48  1  0
  3 49  1  0
  4 50  1  0
  5 51  1  0
  6 52  1  0
  7 53  1  0
  8 54  1  0
  9 55  1  0
 10 56  1  0
 11 57  1  0
 22 58  1  0
 22 59  1  0
 23 60  1  0
 23 61  1  0
 24 62  1  0
 24 63  1  0
 25 64  1  0
 25 65  1  0
 26 66  1  0
 26 67  1  0
 27 68  1  1
 28 69  1  1
 29 70  1  0
 29 71  1  0
 29 72  1  0
 30 73  1  0
 30 74  1  0
 30 75  1  0
 31 76  1  0
 31 77  1  0
 32 78  1  0
 32 79  1  0
 33 80  1  0
 33 81  1  0
 34 82  1  1
 35 83  1  6
 38 84  1  0
 39 85  1  0
 39 86  1  0
 43 87  1  0
M  CHG  1  39   1
M  END
>  <OMEGA_C>  (10) 
3t/FQBYkGEEpJbHBfufwQO2OF0FZy63BaBWlQOv5EUGzEarBBEL7QFaQEEH7Z6PBxEyvQPAYC0EG
rJ/BLlzYQBqBpz0FzYTBKMkAQZDW7b5VqGnBi2MEQaLy3T9tJXrBVgDRQHYekj89FazBZCiZQLur
r75MRKXBUpLZQN8/o78tWK3BckjkQJCaV79XsXnBSKjqQNVrrz+I/oTBzKbaQHL5CUHGVpzBas4J
QSdnUz+3xWnBAOSoQOdNdD/fHqfB+HXpQJJX0DxGH6/BllKxQCNlur9cdKjBtmHBQPmUvUA4pJLB
vMbRQNZXDMC/nHnBIHzeQLQ+FEDVfI3Bep/wQKNJgcDVqZXBLGHcQMnxosAvWo7BvknqQNGTLMAC
7I/BuvunQHMy9EAuVIXBWNaJQGd30UAPHIHBCBOeQIVsnkCmtI7B3lG+QDnPicBNBofBlEoaQW4a
mj+YIVnBfwEdQKNGPsCveYnBfNmOQGfLCECypqPBCg3nQNXUAUHHRJHBGHSRQDoehMB074vBZpCJ
QB+QgkDwYJfB9OOnQBt4P0CPkpvBAhDIQP0l5ECzHY3BwmXTQE8fQMAM5YXBUl63QD1sCUBLs5LB
WR92QC1it0BxCorBeBDYQN5ltEC+UprB4pbBQFF3J8ABFmnBIO32QF13TkCn6I/BAr91QIUjnUCx
65/B+WRwQNDCUMA5OYXB4hMIQXnJUD6VvbPB6t+hQDm1LMD2vqbBOgu+QMRSHUHPJrnBUf4EQT58
HEEcNLPBMBeEQNSHEkFUoKzB1iAOQYU+EEHy16DBExKWQNimBkGTM5rBXxbBQERbSr7LyIrBUxoF
QVpElb8UQF3Bk8MLQf10LUAul3rB2NzcQPHsCEBUiq3B1SN1QPq39r7AZqHBAj7sQBGSCMDUuq/B
IXQJQVbnh8ACx5bBA5HgQGj4gMCAfp3BE1vKQGSJusBtFJPB9Rv1QNFws8C4o4nBFbkEQfr7DsCy
Ko7BRC3XQDH5AMCQ6ZTBl6CUQF+BBkFpRYnBJR25QI4kAUG5/XzBrvyaQP0uvUCJq3bBvHJcQN2A
4EB5TnrBjvSrQAJniUArj4jBwLW7QJTumcBadX7BTFYqQfFwbj9y5l7BwpwZQSRxEkBjPVbBc+oW
QVTiKj8fJErBwuT0P2rUE8Du8IPBhKojQHuRHsC7SZHBZRTyP/NIesCudIrBVA2HQCkLMEAWsarB
yS9iQKRZ5D815Z/B/18DQa179EBewZHBC3boQKR8D0FnuovB6GuUQFa+a8C58pPBabSBQFp/o8C8
kIzBr7tbQN+0ZEBnw5PBeBvDQFTlXUACqJ/BPHukQIxCsz9wP5DB8M5IQCRWo0DzbofBdZ1dQB2N
ykC4qo/BQ0lcQBHei0ADTqXB

>  <OMEGA_E>  (10) 
QOJuPg==

>  <OMEGA_NBR>  (10) 
      9451

$$$$
50162065
     RDKit          3D

 76 78  0  0  1  0  0  0  0  0999 V2000
    6.8032   -0.1356  -16.7032 C   0  0  0  0  0  0  0  0  0  0  0  0
    8.3103    1.5174  -15.7237 C   0  0  0  0  0  0  0  0  0  0  0  0
    8.0772   -0.6737  -14.6908 C   0  0  0  0  0  0  0  0  0  0  0  0
    6.7986    1.1289  -21.4155 C   0  0  0  0  0  0  0  0  0  0  0  0
    5.0705   -0.4475  -20.7097 C   0  0  0  0  0  0  0  0  0  0  0  0
    7.1955   -1.2710  -21.5819 C   0  0  0  0  0  0  0  0  0  0  0  0
    7.3868    1.1504  -16.7249 C   0  0  0  0  0  0  0  0  0  0  0  0
    7.1725   -1.0586  -15.7004 C   0  0  0  0  0  0  0  0  0  0  0  0
    8.6304    0.6196  -14.6907 C   0  0  0  0  0  0  0  0  0  0  0  0
    5.5137    0.8793  -20.8831 C   0  0  0  0  0  0  0  0  0  0  0  0
    7.6400    0.0547  -21.7578 C   0  0  0  0  0  0  0  0  0  0  0  0
    5.9070   -1.5202  -21.0671 C   0  0  0  0  0  0  0  0  0  0  0  0
    7.0361    2.1093  -17.7787 C   0  0  0  0  0  0  0  0  0  0  0  0
    6.5953   -2.4131  -15.6708 C   0  0  0  0  0  0  0  0  0  0  0  0
    5.6799    7.7984  -17.3396 C   0  0  0  0  0  0  0  0  0  0  0  0
    6.2134    5.7933  -18.6625 C   0  0  0  0  0  0  0  0  0  0  0  0
    4.5259    7.0480  -16.6531 C   0  0  0  0  0  0  0  0  0  0  0  0
    5.0511    5.0174  -17.9758 C   0  0  2  0  0  0  0  0  0  0  0  0
    9.6223    1.0212  -13.6244 C   0  0  0  0  0  0  0  0  0  0  0  0
    9.4887   -4.3001  -16.9534 C   0  0  0  0  0  0  0  0  0  0  0  0
    3.8784   -3.4441  -17.6135 C   0  0  0  0  0  0  0  0  0  0  0  0
    4.6160    2.0304  -20.4822 C   0  0  0  0  0  0  0  0  0  0  0  0
    8.6179   -4.0744  -18.2042 C   0  0  0  0  0  0  0  0  0  0  0  0
    4.8510   -4.6233  -17.7974 C   0  0  0  0  0  0  0  0  0  0  0  0
    7.5487   -2.9978  -17.9486 C   0  0  0  0  0  0  0  0  0  0  0  0
    5.9667   -4.6018  -16.7397 C   0  0  0  0  0  0  0  0  0  0  0  0
    4.3538    4.0135  -18.9203 C   0  0  2  0  0  0  0  0  0  0  0  0
    5.3167    2.9280  -19.4409 C   0  0  1  0  0  0  0  0  0  0  0  0
    6.7246    6.8350  -17.7484 N   0  0  0  0  0  0  0  0  0  0  0  0
    5.7602    2.0777  -18.3247 N   0  0  0  0  0  0  0  0  0  0  0  0
    6.7085   -3.3095  -16.7560 N   0  0  0  0  0  0  0  0  0  0  0  0
    4.0096    5.9759  -17.5285 N   0  0  0  0  0  0  0  0  0  0  0  0
    7.8599    2.9442  -18.1340 O   0  0  0  0  0  0  0  0  0  0  0  0
    6.0369   -2.7575  -14.6347 O   0  0  0  0  0  0  0  0  0  0  0  0
    3.7860    4.7260  -20.0212 O   0  0  0  0  0  0  0  0  0  0  0  0
    8.8700    0.2972  -22.2648 F   0  0  0  0  0  0  0  0  0  0  0  0
    5.4689   -2.7902  -20.9199 F   0  0  0  0  0  0  0  0  0  0  0  0
    6.0760   -0.4124  -17.4521 H   0  0  0  0  0  0  0  0  0  0  0  0
    8.7734    2.4927  -15.7511 H   0  0  0  0  0  0  0  0  0  0  0  0
    8.3468   -1.3743  -13.9143 H   0  0  0  0  0  0  0  0  0  0  0  0
    7.1350    2.1451  -21.5597 H   0  0  0  0  0  0  0  0  0  0  0  0
    4.0890   -0.6403  -20.3026 H   0  0  0  0  0  0  0  0  0  0  0  0
    7.8421   -2.0962  -21.8416 H   0  0  0  0  0  0  0  0  0  0  0  0
    5.2982    8.3233  -18.2277 H   0  0  0  0  0  0  0  0  0  0  0  0
    6.1098    8.5290  -16.6385 H   0  0  0  0  0  0  0  0  0  0  0  0
    7.0250    5.0930  -18.9093 H   0  0  0  0  0  0  0  0  0  0  0  0
    5.8434    6.2653  -19.5846 H   0  0  0  0  0  0  0  0  0  0  0  0
    4.8905    6.6045  -15.7148 H   0  0  0  0  0  0  0  0  0  0  0  0
    3.7142    7.7569  -16.4326 H   0  0  0  0  0  0  0  0  0  0  0  0
    5.4523    4.4726  -17.1084 H   0  0  0  0  0  0  0  0  0  0  0  0
    9.0874    1.4780  -12.7787 H   0  0  0  0  0  0  0  0  0  0  0  0
   10.1665    0.1310  -13.2761 H   0  0  0  0  0  0  0  0  0  0  0  0
   10.3356    1.7470  -14.0420 H   0  0  0  0  0  0  0  0  0  0  0  0
   10.2422   -5.0729  -17.1651 H   0  0  0  0  0  0  0  0  0  0  0  0
    9.9931   -3.3605  -16.6835 H   0  0  0  0  0  0  0  0  0  0  0  0
    8.8523   -4.6276  -16.1180 H   0  0  0  0  0  0  0  0  0  0  0  0
    3.0953   -3.4904  -18.3846 H   0  0  0  0  0  0  0  0  0  0  0  0
    3.4157   -3.5025  -16.6173 H   0  0  0  0  0  0  0  0  0  0  0  0
    4.4293   -2.4966  -17.7070 H   0  0  0  0  0  0  0  0  0  0  0  0
    4.3764    2.6294  -21.3732 H   0  0  0  0  0  0  0  0  0  0  0  0
    3.6874    1.6307  -20.0486 H   0  0  0  0  0  0  0  0  0  0  0  0
    9.2611   -3.7515  -19.0361 H   0  0  0  0  0  0  0  0  0  0  0  0
    8.1204   -5.0186  -18.4706 H   0  0  0  0  0  0  0  0  0  0  0  0
    4.2912   -5.5660  -17.7077 H   0  0  0  0  0  0  0  0  0  0  0  0
    5.3048   -4.5601  -18.7974 H   0  0  0  0  0  0  0  0  0  0  0  0
    8.0501   -2.0323  -17.7860 H   0  0  0  0  0  0  0  0  0  0  0  0
    6.8975   -2.9286  -18.8323 H   0  0  0  0  0  0  0  0  0  0  0  0
    5.5193   -4.7449  -15.7450 H   0  0  0  0  0  0  0  0  0  0  0  0
    6.6711   -5.4211  -16.9462 H   0  0  0  0  0  0  0  0  0  0  0  0
    3.5533    3.5147  -18.3542 H   0  0  0  0  0  0  0  0  0  0  0  0
    6.1843    3.4135  -19.9117 H   0  0  0  0  0  0  0  0  0  0  0  0
    7.4573    7.3347  -18.2106 H   0  0  0  0  0  0  0  0  0  0  0  0
    5.1001    1.4359  -17.9345 H   0  0  0  0  0  0  0  0  0  0  0  0
    3.3086    5.4690  -17.0269 H   0  0  0  0  0  0  0  0  0  0  0  0
    3.6009    6.3982  -18.3375 H   0  0  0  0  0  0  0  0  0  0  0  0
    3.3552    4.1142  -20.6066 H   0  0  0  0  0  0  0  0  0  0  0  0
  1  7  2  0
  1  8  1  0
  2  7  1  0
  2  9  2  0
  3  8  2  0
  3  9  1  0
  4 10  2  0
  4 11  1  0
  5 10  1  0
  5 12  2  0
  6 11  2  0
  6 12  1  0
  7 13  1  0
  8 14  1  0
  9 19  1  0
 10 22  1  0
 11 36  1  0
 12 37  1  0
 13 30  1  0
 13 33  2  0
 14 31  1  0
 14 34  2  0
 15 17  1  0
 15 29  1  0
 16 18  1  0
 16 29  1  0
 17 32  1  0
 18 27  1  0
 18 32  1  0
 20 23  1  0
 21 24  1  0
 22 28  1  0
 23 25  1  0
 24 26  1  0
 25 31  1  0
 26 31  1  0
 27 28  1  0
 27 35  1  0
 28 30  1  0
  1 38  1  0
  2 39  1  0
  3 40  1  0
  4 41  1  0
  5 42  1  0
  6 43  1  0
 15 44  1  0
 15 45  1  0
 16 46  1  0
 16 47  1  0
 17 48  1  0
 17 49  1  0
 18 50  1  1
 19 51  1  0
 19 52  1  0
 19 53  1  0
 20 54  1  0
 20 55  1  0
 20 56  1  0
 21 57  1  0
 21 58  1  0
 21 59  1  0
 22 60  1  0
 22 61  1  0
 23 62  1  0
 23 63  1  0
 24 64  1  0
 24 65  1  0
 25 66  1  0
 25 67  1  0
 26 68  1  0
 26 69  1  0
 27 70  1  1
 28 71  1  6
 29 72  1  0
 30 73  1  0
 32 74  1  0
 32 75  1  0
 35 76  1  0
M  CHG  1  32   1
M  END
>  <OMEGA_C>  (11) 
A7TZQInWCr4OoIXB0PYEQYs7wj9blHvBOjwBQTd5LL9cDWvBPI7ZQESBkD/qUqvBn0GiQOse5b6L
raXBcEHmQHWxor/Lp6zBQ2DsQMM+kz+CzIXB1oTlQDWAh7/tNHvBPRYKQU2cHj/zDGvBL3CwQEUa
YT+oEKfB3Xr0QFMfYD39D67B8AW9QDeVwr+FiajBgifhQI7+BkDFOo7BUwzTQHlvGsCiu3rBrcG1
QLWM+UBzt4rBItTGQGxiuUDJTJXB4dOQQEeJ4UCgOYXBuaKhQNaOoEBezo/B1fQZQZW2gj+F/VnB
ltEXQRCaicCDoIfBATd4QAFsXMB26IzB6bWTQAjyAUCS26PBCuMJQaRhgsA4opHBRDubQHbyk8D/
YI7BMI/xQODbP8Ctlo/BL+++QB5Ck8Da6oXBKVKLQFRugEDbXJfBYiKqQA5kO0APh5vBAzDXQKC4
2kCx/I3B6lO4QEb5BEARmZLBDqzWQCvOU8A7DIbBqU6AQHg6v0BKOozBl4T7QINtPEB+EpHBAS7B
QER6MMDjJ2rBJ05yQAo7l0BpK6DBU+sNQfgsmD44HrLBlQGvQMySMsD6W6fBbG7CQOQp077UnYvB
y18MQa6IH0BsBHzBXowFQcTor7/YoF7Bh1HkQK5ICUAqeqzBx9iCQIDrI7+pa6LBGfL6QL4oBsCC
u67B8YqpQCUsBUFt0pHBS4PDQKR2CEGkG4XBoszgQHv5okAsRpfBI/26QKR9yEA6rZzBmH6cQE5Y
00D8b3vBabVtQJc4+EDfdYPBDXmuQMcfj0AW3ojB6WURQSgvvT+CdUzBHqoiQWIkBj7MalTBlV4l
QT6d3z8ZrGDBKOAjQWhVosAcUonBnOMfQWISV8Dmd4XBN6MNQYgVlMC88YDB0hhGQOhhX8C3E5PB
NZpaQMkoYMAn8ITBnLyNQCTIH8DXp43BjwuMQDtIKEBA/KrBZf5rQNK60D+CY6DBgy0UQUMYcMDq
SZjBH+0BQXiYoMDAw5PBtlGJQNAcssBVqY3BN8GpQH3skcAEYZbBPc0AQQYRAsDMSY7B7rfcQIBt
O8CiqJbBSJ6wQNPVl8B663vBcnnVQKF5rcC/kYfBrGljQD7xYEBh1ZLBbeXFQFZ2WkA7S5/B6KHu
QHi16kA5r5HB7jOjQNDLtz/geY/BYr9TQMgBr0AWN4jBY3RmQG2+zEAys5LB7btWQI2ng0BE2qTB
sr3ZQLORDL6WwIXBZiwFQc3CwD8F3XvBwWgBQdF5ML/teWvBRILZQKysjj9DaavBNP6hQHYV6L7P
vqXBquflQCXPpL/pr6zBxIrsQB7Okj8r6IXBWKrlQKCKiL8XlXvBBVgKQUsFGj8Fb2vBBFywQFoF
Xz9LJafB8kr0QOvZEj15Ia7B/py8QAvaw7/5lKjBXDPhQGIZB0D6So7BpP7SQI/IGsCnJHvBvNi1
QKHN+EBdgorBaJnGQMdSuUChZZXBlluRQCJB4ECB+4TBYMKhQOAdoEBH3I/BmVgaQTEPfj98blrB
03p3QFvEWMCb8ozBLa0XQUQMiMAkSIfBEL6TQNKiAUCs86PB6MmZQJr0ksCifo7BoTEKQTkhgsDF
fZHBPA++QHcQk8DSLobB2DXxQFqqQMDI0o/BtFKLQFsjgEBPbJfBpiyqQAICO0C4npvBFDzXQJZb
2kCTCI7BhHO4QMOXBECqs5LBkh7WQB7aU8CwTIbB/oqAQIKBvkBZGozBqGz7QO/zPEAVGJHB/EDB
QE3hMMBDiWrBaRlyQM0Hl0D6MqDB/9ENQX7Yij6AOLLBwGGuQDoMM8AyZqfBE0fCQGzO0L4at4vB
M6QMQcCwHkByRnzBw7wFQb9wsr8mHl/B5WbkQHRCCEB/lazB5oqCQIMhJL98fqLBpYT6QFhuB8D3
ua7B/SGpQEYBBUFOf5HB1dPDQGXvB0Hv2oTBPojgQEkXo0CahZfBB1e6QFrAyEBVsJzB0IydQFB8
0UChMnvBCN1uQCez9kAu/4LBgQOvQFd9jkB6AInBWecRQRIyuT+ozkzBAwUjQRICyD00/lTBK8Yl
QXvO2z9uHWHBzYFEQFaqWsBLA5PB+dFaQEttW8Cx6oTBpRiOQGIXHcBVzo3BbRYkQfhWoMCytojB
Q0wfQYD4UsC7JoXBSEUNQZ+JksDZr4DBDy6MQLH6J0D4FavBwO9rQCmD0D8CfqDB+ySHQL6gsMCQ
qo3Bo9SnQMl1kcA0jpbBY7YUQf2Rb8BDDpjBaK8CQV7WoMBhl5PBMUCwQPfnl8DQW3zBKD3UQG1m
rcAgA4jBvjAAQYzGAcDCs47BhrPcQBb9PsDo+JbBiI1jQNkyYEAp45LBauLFQOQ9WkCgY5/BI1Tu
QJ+z6kB3xZHB62+jQKk6tj/YnY/B8mVUQFsHrkDZH4jBi5tmQMV9zED2fZLB/WFWQOmBg0Dz4aTB
F3HeQESbFD1qgYXB2sAFQdmo3D9UbXrBHagCQZba+r7NQ2rBUBTcQCAzkj8xMqvBpCmmQCjX+L5g
p6XBdv3qQKVCn793mqzBDD/vQKn9qj/ac4XBFHvqQFLWYr/qHnvB0ccKQQVDUj+0zmnBQTCzQIjk
Wj+M9KbBRgX4QKKXwD3r7q3BqPrBQGxGxL8KiKjBW0TjQO+1EEDhCI7Bo17aQGf3D8CEYHzBO8Oy
QFwj+EBb24nBlofEQGd9ukDhRJXB3yWOQOh33kBcsITBWl+gQK3Yn0Ao54/BlfUZQUVWnT9NN1jB
mFx5QMjEqMAgTY3BPPYNQQv+mcA8v4fBt16VQHGu/T/zxaPBzoGoQK9rmcDym4nBW9AQQSpWWMBQ
CYzBsaCqQOCeUsBYS4vB5E33QLFwM8DrbZDBcymLQOEJf0A8lpfB4TqrQEO8O0ATtZvBFKLUQBac
2kCtlo3BA/O6QF2mCECippLB6rzUQGuzM8CDSojBArN8QO8uvUDgGIzB8v/8QDiBRkBfGZHBEpzI
QO3jLsBSrGzBikFxQCEjlkAZXqDB9aUPQSRKvz484bHBy0i1QBtZNMClbafB3ibIQNYuhL6BrIvB
wrkMQXaSLUAliHrB3LcGQVoOmL86uF3BbuTlQES+CkBVVqzB+N2GQO9/Nb+Yc6LBRTkAQfciA8DJ
tK7BQj6mQPMtBUFstJDBw0TAQAMxB0Fp7oPBcNLeQFgbpUDGpZfBFMq3QG3OykDpYpzBY/GZQNMf
z0BDrXrBG31nQOVX9EDcsoLBQPutQOhPjkCsEonBeNQQQeI21D/Q0krBNt4iQbzOsT5rn1LBrEEl
QTdp/T+IX17BXpB0QJSXy8CMKozBcVRHQL26mMCZlYjBLNpwQCsQocBb0pXBZl0dQVrmpcD/s4TB
HCECQTfmmcCNO4HB51gIQcDtrsCHPY7BUWGMQMtBI0AW9qrBlfBwQMgyxz9aFKDBUeusQEXpoMDu
FIHBLq7BQLM+qcCwUY7B84UWQRYdL8C3f4XBvr0cQSksWcCygZLBlaWkQCveQ8CcxJPBLTuSQLAq
M8DwUIbBkeD8QHZQ4r8ADJPBNAntQJZJWsABTpfB7r1jQJ5PXUBQJpPBlgzGQJxwXEDNrZ/B4KHr
QE2960BnI5HBCSynQOWLuT+0ko/BCR9QQIflq0C3UYjBNIhiQBmYy0B2cpLB/wxXQMFegkBZH6XB
OKjcQJzmVb4aXIXBn6kGQVQMvj/mjXzBNLIDQSF5Lb9X2mrBVYfWQEimjj+GTKvB35qgQIJ6/b7O
ZqXBiw7jQHLSor90iq3B2NPuQLociz9a9IXB92vpQJiYjL/8SnrBTGwMQQSpHj8fzmvB5jCuQMDc
Vj/8rabB2BnxQNjObj0zm67BKua6QAQsxr846qjBwgjiQJp6AkDLXI7BVC7UQL4OGsB1xHfBK9i2
QMvl+UBShIvBva7GQClUuEDIvJXBVFSTQKFE4kD+Y4XB32aiQFgmoEBZsI/BdXYcQfTDiT/YQVvB
I+SOQAqrXsAbuo7B8rABQfx+MsD+rpbB/nKRQFRf/D9zHaPBCjaVQGn0jsAQcoXBcG8LQRQTfMB5
O5DBJPvEQFj+l8CZpILBC7MHQSBob8BoMITB2cuKQCZmfkCkxZbBTvCoQGQjOEACDZvB2/HXQHzu
2kBR647Bi0a4QP/7AUAmK5LBb1jhQER7Y8AOkYHBgquBQAczv0DA9ovBgvv7QOJiN0BXlpHBkuG0
QFBtHMDJ/WvBi9VtQMk6lUAre5/BvfALQUrYpD6M6bLBwnytQMXcNMBq7afBcBLFQBWhBL+pK4vB
4vYNQWOCHUDirH3B9IEIQeYTrb+kPl7Be/DgQPDBCECwSazBqRGCQMlNNb9zu6HBdxj3QN1OBcAg
RrDBcxepQJTKBEHmmpLByGPFQIgVCUFGSIbBbn3gQNO9oUAZuJfB17a5QNMyxkCzJZ3BZamgQPbm
1EAx7XvBcy9zQNH1+EAqbYPBxWewQKR3j0CdxojB6wAUQeflxj8Q2U3BWIMlQfmPVT5UVVXBQI4n
QdY85j87i2LB7/NYQGWEVcDPLZDBYJmdQH7iIMC6qIzBqhWeQP1ReMAS/ZXBO5gEQRguPcB3Qp/B
qLfgQAqmL8B3MpXBOR0JQRqF67+MOpTBTxeIQFNfJEDIIKrBElRpQP33xj8sTp/Bn3iFQBG7gcDF
mnzB6PSFQNFyrcC8oYfBEP4DQbtNnMDxv5LBdL8cQfi3fsAGyJHBs7XFQHNhqcC9/HXBQ0jSQEJm
rMDm/ojBSasNQTQKlMDPz3/Ba5kQQZd4NsC7i4HBFS1kQC1dX0Bl2ZHBCUrEQEeaVkDuEp/BtHbu
QEyg6kASCJPBs1CjQEgGtT8WrY7Bd/dXQHtrr0CXmYfB/edmQAP8y0D5YJLBjJpQQPw8gUCj46PB

>  <OMEGA_E>  (11) 
oNSOPqCqjD7Yo+8+iFj0Pg==

>  <OMEGA_NBR>  (11) 
      5042

$$$$
50147873
     RDKit          3D

 77 79  0  0  1  0  0  0  0  0999 V2000
    6.8203   -0.1231  -16.7130 C   0  0  0  0  0  0  0  0  0  0  0  0
    8.3436    1.5127  -15.7293 C   0  0  0  0  0  0  0  0  0  0  0  0
    8.0854   -0.6793  -14.7014 C   0  0  0  0  0  0  0  0  0  0  0  0
    6.8184    1.1347  -21.4196 C   0  0  0  0  0  0  0  0  0  0  0  0
    5.1014   -0.4559  -20.7186 C   0  0  0  0  0  0  0  0  0  0  0  0
    7.2269   -1.2617  -21.6064 C   0  0  0  0  0  0  0  0  0  0  0  0
    7.4160    1.1581  -16.7307 C   0  0  0  0  0  0  0  0  0  0  0  0
    7.1785   -1.0534  -15.7137 C   0  0  0  0  0  0  0  0  0  0  0  0
    8.6535    0.6084  -14.6986 C   0  0  0  0  0  0  0  0  0  0  0  0
    5.5372    0.8747  -20.8831 C   0  0  0  0  0  0  0  0  0  0  0  0
    7.6645    0.0676  -21.7722 C   0  0  0  0  0  0  0  0  0  0  0  0
    5.9411   -1.5215  -21.0902 C   0  0  0  0  0  0  0  0  0  0  0  0
    7.0628    2.1259  -17.7759 C   0  0  0  0  0  0  0  0  0  0  0  0
    6.5860   -2.4030  -15.6910 C   0  0  0  0  0  0  0  0  0  0  0  0
    6.7488    6.9552  -17.8429 C   0  0  0  0  0  0  0  0  0  0  0  0
    5.5983    7.8651  -17.3817 C   0  0  0  0  0  0  0  0  0  0  0  0
    6.1961    5.8361  -18.7405 C   0  0  0  0  0  0  0  0  0  0  0  0
    4.5369    7.0335  -16.6441 C   0  0  0  0  0  0  0  0  0  0  0  0
    5.0832    5.0338  -17.9979 C   0  0  2  0  0  0  0  0  0  0  0  0
    9.6516    0.9973  -13.6330 C   0  0  0  0  0  0  0  0  0  0  0  0
    3.8474   -3.4136  -17.6368 C   0  0  0  0  0  0  0  0  0  0  0  0
    9.4566   -4.2918  -16.9323 C   0  0  0  0  0  0  0  0  0  0  0  0
    4.6337    2.0189  -20.4732 C   0  0  0  0  0  0  0  0  0  0  0  0
    4.8166   -4.5940  -17.8287 C   0  0  0  0  0  0  0  0  0  0  0  0
    8.6107   -4.0681  -18.2004 C   0  0  0  0  0  0  0  0  0  0  0  0
    5.9319   -4.5811  -16.7706 C   0  0  0  0  0  0  0  0  0  0  0  0
    7.5348   -2.9924  -17.9700 C   0  0  0  0  0  0  0  0  0  0  0  0
    4.3738    4.0019  -18.9055 C   0  0  2  0  0  0  0  0  0  0  0  0
    5.3372    2.9240  -19.4392 C   0  0  1  0  0  0  0  0  0  0  0  0
    5.7917    2.0774  -18.3282 N   0  0  0  0  0  0  0  0  0  0  0  0
    6.6825   -3.2933  -16.7836 N   0  0  0  0  0  0  0  0  0  0  0  0
    4.0297    5.9573  -17.5144 N   0  0  0  0  0  0  0  0  0  0  0  0
    7.8725    2.9816  -18.1151 O   0  0  0  0  0  0  0  0  0  0  0  0
    6.0305   -2.7499  -14.6542 O   0  0  0  0  0  0  0  0  0  0  0  0
    3.7582    4.6855  -19.9986 O   0  0  0  0  0  0  0  0  0  0  0  0
    8.8918    0.3206  -22.2803 F   0  0  0  0  0  0  0  0  0  0  0  0
    5.5087   -2.7951  -20.9569 F   0  0  0  0  0  0  0  0  0  0  0  0
    6.0914   -0.3903  -17.4638 H   0  0  0  0  0  0  0  0  0  0  0  0
    8.8177    2.4828  -15.7545 H   0  0  0  0  0  0  0  0  0  0  0  0
    8.3453   -1.3836  -13.9250 H   0  0  0  0  0  0  0  0  0  0  0  0
    7.1483    2.1536  -21.5590 H   0  0  0  0  0  0  0  0  0  0  0  0
    4.1232   -0.6570  -20.3074 H   0  0  0  0  0  0  0  0  0  0  0  0
    7.8768   -2.0814  -21.8748 H   0  0  0  0  0  0  0  0  0  0  0  0
    7.4810    7.5499  -18.4088 H   0  0  0  0  0  0  0  0  0  0  0  0
    7.2383    6.5108  -16.9638 H   0  0  0  0  0  0  0  0  0  0  0  0
    5.9926    8.6368  -16.7042 H   0  0  0  0  0  0  0  0  0  0  0  0
    5.1400    8.3463  -18.2584 H   0  0  0  0  0  0  0  0  0  0  0  0
    5.7728    6.2809  -19.6532 H   0  0  0  0  0  0  0  0  0  0  0  0
    7.0146    5.1528  -19.0111 H   0  0  0  0  0  0  0  0  0  0  0  0
    4.9862    6.5896  -15.7434 H   0  0  0  0  0  0  0  0  0  0  0  0
    3.7020    7.6878  -16.3530 H   0  0  0  0  0  0  0  0  0  0  0  0
    5.5363    4.5069  -17.1452 H   0  0  0  0  0  0  0  0  0  0  0  0
    9.1231    1.4586  -12.7857 H   0  0  0  0  0  0  0  0  0  0  0  0
   10.1864    0.1004  -13.2869 H   0  0  0  0  0  0  0  0  0  0  0  0
   10.3724    1.7157  -14.0505 H   0  0  0  0  0  0  0  0  0  0  0  0
    3.0639   -3.4527  -18.4080 H   0  0  0  0  0  0  0  0  0  0  0  0
    3.3848   -3.4773  -16.6409 H   0  0  0  0  0  0  0  0  0  0  0  0
    4.4008   -2.4670  -17.7242 H   0  0  0  0  0  0  0  0  0  0  0  0
   10.2148   -5.0644  -17.1283 H   0  0  0  0  0  0  0  0  0  0  0  0
    9.9549   -3.3516  -16.6535 H   0  0  0  0  0  0  0  0  0  0  0  0
    8.8041   -4.6190  -16.1094 H   0  0  0  0  0  0  0  0  0  0  0  0
    4.3798    2.6152  -21.3620 H   0  0  0  0  0  0  0  0  0  0  0  0
    3.7132    1.6115  -20.0297 H   0  0  0  0  0  0  0  0  0  0  0  0
    4.2546   -5.5359  -17.7450 H   0  0  0  0  0  0  0  0  0  0  0  0
    5.2706   -4.5255  -18.8283 H   0  0  0  0  0  0  0  0  0  0  0  0
    9.2705   -3.7459  -19.0195 H   0  0  0  0  0  0  0  0  0  0  0  0
    8.1197   -5.0133  -18.4754 H   0  0  0  0  0  0  0  0  0  0  0  0
    5.4831   -4.7233  -15.7765 H   0  0  0  0  0  0  0  0  0  0  0  0
    6.6312   -5.4045  -16.9784 H   0  0  0  0  0  0  0  0  0  0  0  0
    8.0309   -2.0231  -17.8131 H   0  0  0  0  0  0  0  0  0  0  0  0
    6.8935   -2.9359  -18.8619 H   0  0  0  0  0  0  0  0  0  0  0  0
    3.6006    3.4993  -18.3060 H   0  0  0  0  0  0  0  0  0  0  0  0
    6.1978    3.4147  -19.9172 H   0  0  0  0  0  0  0  0  0  0  0  0
    5.1409    1.4223  -17.9444 H   0  0  0  0  0  0  0  0  0  0  0  0
    3.3566    5.4262  -16.9997 H   0  0  0  0  0  0  0  0  0  0  0  0
    3.5880    6.3753  -18.3082 H   0  0  0  0  0  0  0  0  0  0  0  0
    3.3205    4.0564  -20.5600 H   0  0  0  0  0  0  0  0  0  0  0  0
  1  7  2  0
  1  8  1  0
  2  7  1  0
  2  9  2  0
  3  8  2  0
  3  9  1  0
  4 10  2  0
  4 11  1  0
  5 10  1  0
  5 12  2  0
  6 11  2  0
  6 12  1  0
  7 13  1  0
  8 14  1  0
  9 20  1  0
 10 23  1  0
 11 36  1  0
 12 37  1  0
 13 30  1  0
 13 33  2  0
 14 31  1  0
 14 34  2  0
 15 16  1  0
 15 17  1  0
 16 18  1  0
 17 19  1  0
 18 32  1  0
 19 28  1  0
 19 32  1  0
 21 24  1  0
 22 25  1  0
 23 29  1  0
 24 26  1  0
 25 27  1  0
 26 31  1  0
 27 31  1  0
 28 29  1  0
 28 35  1  0
 29 30  1  0
  1 38  1  0
  2 39  1  0
  3 40  1  0
  4 41  1  0
  5 42  1  0
  6 43  1  0
 15 44  1  0
 15 45  1  0
 16 46  1  0
 16 47  1  0
 17 48  1  0
 17 49  1  0
 18 50  1  0
 18 51  1  0
 19 52  1  1
 20 53  1  0
 20 54  1  0
 20 55  1  0
 21 56  1  0
 21 57  1  0
 21 58  1  0
 22 59  1  0
 22 60  1  0
 22 61  1  0
 23 62  1  0
 23 63  1  0
 24 64  1  0
 24 65  1  0
 25 66  1  0
 25 67  1  0
 26 68  1  0
 26 69  1  0
 27 70  1  0
 27 71  1  0
 28 72  1  1
 29 73  1  6
 30 74  1  0
 32 75  1  0
 32 76  1  0
 35 77  1  0
M  CHG  1  32   1
M  END
>  <OMEGA_C>  (12) 
GkDaQN4G/L1QtIXBTH8FQeegwT9Uq3vBuF0BQTroLb8dOWvBNDDaQHc+kT9MW6vBhj6jQCZs6b6r
v6XBFkPnQE5+ob/S2azB0U/tQLg7lD9g2IXBB7blQKfUhr9xa3vBvXQKQQ3DGz9rLWvBcjCxQNbp
Xz+jEKfBP0P1QDuGij10La7B4B2+QLTAwr+luKjBTgLiQBkOCEAiNY7BgcDSQOTKGcBHDnvBFPbX
QCqR3kA9vo7B3ySzQCmv+0DNDYvBuUbGQGnBukCA7JXBmi6RQHcS4UAbJ4XB6qmiQK8UoUCw+4/B
5mwaQexLfz/BIFrBETt2QGF4WsA/GI3BOU4XQcFWicBtdYfBaUeUQNk1AUADyaPBPyGaQPsBk8A1
oY7BVsUJQR0ugsBwmpHBX9K9QKiYksBKKobBex3xQL6CP8B5wo/BNvaLQMgPgECGPpfBIMqqQKgi
O0CGg5vBc1W5QJX0BEAooJLBENfVQGrFUsDkRIbBS/OAQCmivkB3HYzBvev7QKDSPkC365DBlvnA
QNf+L8Ced2rBnYZwQNLvlUAk/Z/BvUQOQXInpD4cPrLBRkewQJjiMsChp6fBq+zCQFbbx77VtYvB
JhUNQd/lHkBTEnzBW4YFQYoasb/1zF7Bw77kQLTUCUDGeKzBEPGDQLIzKL+ZdaLBwQ78QFw2BcCK
/67BQmTvQK+Y8UA5RZPBkKDnQBNY0EDjtYfBx8O/QDEwCkE+ooXBNXukQJ2KBUEkEZLBK7u4QDX9
yECrOZ3BMnfgQJ7jpEDUFpjBnI6fQDDe0kAm5XvBR+1sQH8C9kDw0oLBuimxQEs4kEBkKYnBWvgR
Qee0uj9fkkzBTfsiQZGyzT1Xl1TBOPUlQU2b2z8Bz2DBcBdEQF74XMCgQ5PBLaBYQG2MXsB/IIXB
U9OMQBvjHcAmy43BrW8jQUMPosCzBonBIkcfQRyBVsBuOoXBft0MQSHPk8Ai4IDBuCeMQJ1fJ0BK
5arBe6RtQPZFzj/sPKDBUCWIQN8lscC49Y3BjKioQDbRkMBfoJbB0VMUQXO8b8DYJ5jBLeoBQc1s
oMCNzZPB73WvQPkkl8BrbHzBmTLUQHvxrMDE04fBdH4AQUd7AcBAgY7BdpfcQEnmO8AS5ZbBRnBm
QOHzX0CacpLBm1TGQBiKWkCAVp/BZ4KkQCQOtj8Ujo/ByNJWQKejrUBX/4fBh6JlQLQCzEBCd5LB
ooNUQFPOgUDpeqTBsQ7dQPDFcr0OlIXBNukFQXzyzz9nR3vBTMMCQQI5Er/OzmrBtwLcQM6olj/N
VavBIyGmQPyO476lpaXBX97qQBYHm7/ylazBfc7uQC1nnj8mt4XBPV7pQLR9eb8LJnvB3iILQcyN
Oz8prWrB4iGzQOzSZD+hEKfB6eP3QChfAD4nCa7BFe3BQJhFv79IcajBxNDiQMzwC0B3JI7BgBvW
QE63E8DaFXrBEvLVQFXK3kDnJI7BAquwQDBi+0BZe4rBOgfFQI1uu0AJlJXBNVKOQNkf4EB+6YTB
8E6hQAMDoUBK5Y/BX4MaQdxgkz8eSVnB/5UTQSrNlcAbdIjBgDF7QLzqkcC8YJPBenqVQFhgAUB/
16PBtUMQQapcUsCNaY3BrseMQCZZccAepYnBJe3wQOz3P8DZeo/B80O4QBUgisBT0IXBYaOLQD0E
gEBSWpfBLUKrQK4wPECei5vBkTC6QI30BkCcl5LBF7DWQEUFTcDotYXBSgF+QEoXvkDpIIzBDYD8
QGiUQkDQA5HBuiTDQOWYJsDGjWnBkM1wQJgflkBkH6DB+48PQRB9zD7qCLLBgmG1QFadMcDHF6fB
7BLGQORjs76OmIvBSgYNQT7yJkDnqXvBYCUHQYIOor+xU17B4trlQMLlDEC1hqzB2dmGQLjZKb/E
aqLB2iIAQVk1AcB3pq7BgZLtQOVR8kBWeJLBjjHlQIAe0ECWHIfB4La8QGTQCUGF24TBi4aiQI6t
BUFAe5HBLcu3QEkkykAz25zBk4jfQN/3pUBVwZfBNBacQFB80UCwX3vBt3tmQJC39EAQp4LBXnav
QK0QkEDPConBW4cRQZTcyz8/5kvBSmwjQQQ/iz5BmFPBxMslQSCA8j/rsV/BbMIkQdY9m8AvF4fB
QP4KQRKvl8C+yYDBUV8NQR5crsBz8I3B5xk9QAlShcCME5bBRS+VQLXIjsDV3JnBpTp0QJXbs8C3
NpHBnC2NQGcrJ0Bp+KrB71twQDWEzD++VaDB25kWQSu5IcAw5YfB7foYQUMTT8DlC5XBQTiQQGN6
LcCn0YvBnUxqQCKgd8CJK4PB3HDtQF1w+r9II5LBnlrlQKY4a8CqypXBcAy1QB9+l8D2bHvBf4LD
QBI3o8AGT4vBYWhlQDHbXkCCupLBy4/GQOWgXEBPV5/BSb2lQF+8uD+fgY/BrEZSQMOxrEChOojB
Te5iQALVy0AEg5LBeP9VQPASgkDqv6TBDZvcQABDhb58f4XBg20GQcBQtz+CZnzBJbEDQcvvPr+5
LmvBNZXWQPatkj+ZZKvB0BehQIIo7L4UNaXBGXTjQOD7nr+wW63BwXbuQNCXhT/Z74XBlajpQNIH
lb/lv3rBMkMMQTQ3Dj9M12vB7GeuQIFJXz+Gr6bBNkHxQMgZtD1SnK7BGIa7QCoRwr9/m6jBArLh
QMAlAUAJO47BSBvVQGtJH8D2ZXjBMabYQGxI30Dqd4/BGDm0QGsa/UCa4IvBBnTGQNI5ukDiLpbB
ErOSQBiI40Brj4XBL/KiQMzUoUBX3o/BqkIcQWxxgD++MFvBdmCNQIzzXsBBdo7Bo94CQcNqLcDq
q5bBs8qRQA1YAECOHqPBUnSVQLtykMByk4XBEvALQXk6e8A1y5DBUbHFQFXPmcBJiIPB7QsIQZuX
c8BetoTBZkCLQPcWgED5tZbBcDipQKpLOUCZ7JrBZu+3QK4jAkBvC5LB0g7iQDOAZ8D0J4LBCMGB
QOJGwEDLI4zBvKf7QCOyNkClSpHBR7y3QCynJMDFfmvBKpptQMxGlUB/eZ/B9/cLQSpwsj5h+7LB
3ImuQAfTMsCOXKfBexfFQJKCEL/vV4vBCaQNQQZeGkAmSn3BiYkIQfOktr9srV7B38rgQDbCCkCa
hKzBG6uCQFUTLL/5eKHBGIT3QNCBA8B+C7DBL7DvQHGE8UCBUJTBCOnoQAg90kCvYIjBEVrBQJVH
C0EUw4bBHQqlQIK8BUEU9ZLBda24QL0qx0Bfm53BW3LgQEbYo0C3KJjBsaShQK0/1kCeonzBLpBw
QMPo+EBjRIPBkbOxQDbNkUDr9IjBocETQfefuz9WrE3BjGUlQdc/CT4fd1XB+EcnQYxH3j/yT2LB
bXVVQFo1VcD9bI/B3p+cQArlIcCYTYzBgACbQKGCdsDOBZbBDdEFQXAbNMCRTp/BdhfjQHIoKcCB
NpXBqLgKQUwA5r97uJPBct2IQAszJ0AsHKrBY4FpQCaYyz8rap/B9EyHQEtIhMDGOnzBlq2FQBaX
rsCa1YfB0BIEQW28msAPypPBvD8dQY9Qf8AKTJLBXQfIQIE8rcAwb3jBeM3RQAtUrMBdYIrBxLkN
Qacvl8AKyoDBdBYRQWNnPMDgpIHB77JlQN/IYUDxoZHBU+/EQMlPV0DP157B95iiQNOatj98lY7B
16JYQM4ZsEAPyofBdrRmQN/czEC6jZLBUkFQQCvUgEDCvKPB

>  <OMEGA_E>  (12) 
INIgPgxCpD7QPcE+

>  <OMEGA_NBR>  (12) 
      8962

$$$$
50209141
     RDKit          3D

 88 91  0  0  1  0  0  0  0  0999 V2000
    6.8810   -0.0515  -16.7108 C   0  0  0  0  0  0  0  0  0  0  0  0
    8.4652    1.5532  -15.7765 C   0  0  0  0  0  0  0  0  0  0  0  0
    8.1731   -0.6263  -14.7245 C   0  0  0  0  0  0  0  0  0  0  0  0
    6.8565    1.1199  -21.4559 C   0  0  0  0  0  0  0  0  0  0  0  0
    5.1272   -0.4502  -20.7346 C   0  0  0  0  0  0  0  0  0  0  0  0
    7.2357   -1.2809  -21.6319 C   0  0  0  0  0  0  0  0  0  0  0  0
    7.5044    1.2139  -16.7540 C   0  0  0  0  0  0  0  0  0  0  0  0
    7.2344   -0.9816  -15.7135 C   0  0  0  0  0  0  0  0  0  0  0  0
    8.7763    0.6459  -14.7452 C   0  0  0  0  0  0  0  0  0  0  0  0
    5.5758    0.8706  -20.9145 C   0  0  0  0  0  0  0  0  0  0  0  0
    7.6893    0.0425  -21.8053 C   0  0  0  0  0  0  0  0  0  0  0  0
    5.9501   -1.5237  -21.1063 C   0  0  0  0  0  0  0  0  0  0  0  0
    7.1364    2.1727  -17.8049 C   0  0  0  0  0  0  0  0  0  0  0  0
    6.5990   -2.3094  -15.6751 C   0  0  0  0  0  0  0  0  0  0  0  0
    9.7591    9.5887  -19.5095 C   0  0  0  0  0  0  0  0  0  0  0  0
   10.5508    9.7397  -18.1958 C   0  0  0  0  0  0  0  0  0  0  0  0
    5.5625    7.7208  -17.3077 C   0  0  0  0  0  0  0  0  0  0  0  0
    6.1135    5.7495  -18.7386 C   0  0  0  0  0  0  0  0  0  0  0  0
    4.4885    6.8973  -16.5968 C   0  0  0  0  0  0  0  0  0  0  0  0
    9.7731    8.4667  -18.4780 C   0  0  0  0  0  0  0  0  0  0  0  0
    6.6748    6.7705  -17.7849 C   0  0  1  0  0  0  0  0  0  0  0  0
    5.0344    4.9339  -18.0041 C   0  0  2  0  0  0  0  0  0  0  0  0
    9.8077    1.0114  -13.7023 C   0  0  0  0  0  0  0  0  0  0  0  0
    9.3500   -4.3124  -16.9563 C   0  0  0  0  0  0  0  0  0  0  0  0
    3.7938   -3.1352  -17.6036 C   0  0  0  0  0  0  0  0  0  0  0  0
    4.6786    2.0106  -20.5185 C   0  0  0  0  0  0  0  0  0  0  0  0
    8.5154    8.2428  -17.6825 C   0  0  0  0  0  0  0  0  0  0  0  0
    8.5038   -4.0492  -18.2164 C   0  0  0  0  0  0  0  0  0  0  0  0
    4.6789   -4.3796  -17.8028 C   0  0  0  0  0  0  0  0  0  0  0  0
    7.4794   -2.9283  -17.9725 C   0  0  0  0  0  0  0  0  0  0  0  0
    5.8100   -4.4381  -16.7625 C   0  0  0  0  0  0  0  0  0  0  0  0
    4.3657    3.9347  -18.9469 C   0  0  2  0  0  0  0  0  0  0  0  0
    5.3742    2.9059  -19.4849 C   0  0  1  0  0  0  0  0  0  0  0  0
    5.8698    2.0774  -18.3737 N   0  0  0  0  0  0  0  0  0  0  0  0
    6.6291   -3.1935  -16.7763 N   0  0  0  0  0  0  0  0  0  0  0  0
    3.9801    5.8418  -17.4933 N   0  0  0  0  0  0  0  0  0  0  0  0
    7.9341    3.0372  -18.1504 O   0  0  0  0  0  0  0  0  0  0  0  0
    6.0421   -2.6320  -14.6314 O   0  0  0  0  0  0  0  0  0  0  0  0
    3.7650    4.6511  -20.0283 O   0  0  0  0  0  0  0  0  0  0  0  0
    7.6670    7.4659  -18.5072 O   0  0  0  0  0  0  0  0  0  0  0  0
    8.9184    0.2789  -22.3168 F   0  0  0  0  0  0  0  0  0  0  0  0
    5.4995   -2.7887  -20.9624 F   0  0  0  0  0  0  0  0  0  0  0  0
    6.1308   -0.3075  -17.4444 H   0  0  0  0  0  0  0  0  0  0  0  0
    8.9628    2.5107  -15.8198 H   0  0  0  0  0  0  0  0  0  0  0  0
    8.4307   -1.3318  -13.9484 H   0  0  0  0  0  0  0  0  0  0  0  0
    7.1949    2.1352  -21.6009 H   0  0  0  0  0  0  0  0  0  0  0  0
    4.1515   -0.6375  -20.3113 H   0  0  0  0  0  0  0  0  0  0  0  0
    7.8735   -2.1096  -21.9019 H   0  0  0  0  0  0  0  0  0  0  0  0
    8.8438   10.1766  -19.6728 H   0  0  0  0  0  0  0  0  0  0  0  0
   10.2920    9.4673  -20.4640 H   0  0  0  0  0  0  0  0  0  0  0  0
   11.6506    9.7280  -18.2112 H   0  0  0  0  0  0  0  0  0  0  0  0
   10.2024   10.4373  -17.4200 H   0  0  0  0  0  0  0  0  0  0  0  0
    5.1210    8.2381  -18.1723 H   0  0  0  0  0  0  0  0  0  0  0  0
    5.9820    8.4623  -16.6118 H   0  0  0  0  0  0  0  0  0  0  0  0
    5.6676    6.2581  -19.6060 H   0  0  0  0  0  0  0  0  0  0  0  0
    6.9167    5.0796  -19.0793 H   0  0  0  0  0  0  0  0  0  0  0  0
    4.9216    6.4335  -15.6982 H   0  0  0  0  0  0  0  0  0  0  0  0
    3.6583    7.5573  -16.3049 H   0  0  0  0  0  0  0  0  0  0  0  0
   10.3648    7.5749  -18.7321 H   0  0  0  0  0  0  0  0  0  0  0  0
    7.1096    6.2594  -16.9133 H   0  0  0  0  0  0  0  0  0  0  0  0
    5.4989    4.3906  -17.1680 H   0  0  0  0  0  0  0  0  0  0  0  0
    9.3105    1.4913  -12.8464 H   0  0  0  0  0  0  0  0  0  0  0  0
   10.3243    0.1015  -13.3630 H   0  0  0  0  0  0  0  0  0  0  0  0
   10.5393    1.7074  -14.1385 H   0  0  0  0  0  0  0  0  0  0  0  0
   10.0719   -5.1169  -17.1602 H   0  0  0  0  0  0  0  0  0  0  0  0
    9.8913   -3.3954  -16.6802 H   0  0  0  0  0  0  0  0  0  0  0  0
    8.6909   -4.6124  -16.1283 H   0  0  0  0  0  0  0  0  0  0  0  0
    2.9976   -3.1257  -18.3626 H   0  0  0  0  0  0  0  0  0  0  0  0
    3.3436   -3.1624  -16.6004 H   0  0  0  0  0  0  0  0  0  0  0  0
    4.4081   -2.2284  -17.7054 H   0  0  0  0  0  0  0  0  0  0  0  0
    4.4363    2.6075  -21.4101 H   0  0  0  0  0  0  0  0  0  0  0  0
    3.7518    1.6080  -20.0837 H   0  0  0  0  0  0  0  0  0  0  0  0
    8.7428    7.7031  -16.7514 H   0  0  0  0  0  0  0  0  0  0  0  0
    8.0388    9.2046  -17.4418 H   0  0  0  0  0  0  0  0  0  0  0  0
    9.1695   -3.7541  -19.0408 H   0  0  0  0  0  0  0  0  0  0  0  0
    7.9692   -4.9712  -18.4889 H   0  0  0  0  0  0  0  0  0  0  0  0
    4.0560   -5.2809  -17.7047 H   0  0  0  0  0  0  0  0  0  0  0  0
    5.1206   -4.3469  -18.8097 H   0  0  0  0  0  0  0  0  0  0  0  0
    8.0191   -1.9819  -17.8209 H   0  0  0  0  0  0  0  0  0  0  0  0
    6.8305   -2.8428  -18.8566 H   0  0  0  0  0  0  0  0  0  0  0  0
    5.3698   -4.5653  -15.7625 H   0  0  0  0  0  0  0  0  0  0  0  0
    6.4599   -5.2962  -16.9888 H   0  0  0  0  0  0  0  0  0  0  0  0
    3.5899    3.3943  -18.3848 H   0  0  0  0  0  0  0  0  0  0  0  0
    6.2104    3.4346  -19.9658 H   0  0  0  0  0  0  0  0  0  0  0  0
    5.2468    1.3915  -17.9976 H   0  0  0  0  0  0  0  0  0  0  0  0
    3.3102    5.2959  -16.9901 H   0  0  0  0  0  0  0  0  0  0  0  0
    3.5345    6.2790  -18.2746 H   0  0  0  0  0  0  0  0  0  0  0  0
    3.3460    4.0380  -20.6209 H   0  0  0  0  0  0  0  0  0  0  0  0
  1  7  2  0
  1  8  1  0
  2  7  1  0
  2  9  2  0
  3  8  2  0
  3  9  1  0
  4 10  2  0
  4 11  1  0
  5 10  1  0
  5 12  2  0
  6 11  2  0
  6 12  1  0
  7 13  1  0
  8 14  1  0
  9 23  1  0
 10 26  1  0
 11 41  1  0
 12 42  1  0
 13 34  1  0
 13 37  2  0
 14 35  1  0
 14 38  2  0
 15 16  1  0
 15 20  1  0
 16 20  1  0
 17 19  1  0
 17 21  1  0
 18 21  1  0
 18 22  1  0
 19 36  1  0
 20 27  1  0
 21 40  1  0
 22 32  1  0
 22 36  1  0
 24 28  1  0
 25 29  1  0
 26 33  1  0
 27 40  1  0
 28 30  1  0
 29 31  1  0
 30 35  1  0
 31 35  1  0
 32 33  1  0
 32 39  1  0
 33 34  1  0
  1 43  1  0
  2 44  1  0
  3 45  1  0
  4 46  1  0
  5 47  1  0
  6 48  1  0
 15 49  1  0
 15 50  1  0
 16 51  1  0
 16 52  1  0
 17 53  1  0
 17 54  1  0
 18 55  1  0
 18 56  1  0
 19 57  1  0
 19 58  1  0
 20 59  1  0
 21 60  1  1
 22 61  1  1
 23 62  1  0
 23 63  1  0
 23 64  1  0
 24 65  1  0
 24 66  1  0
 24 67  1  0
 25 68  1  0
 25 69  1  0
 25 70  1  0
 26 71  1  0
 26 72  1  0
 27 73  1  0
 27 74  1  0
 28 75  1  0
 28 76  1  0
 29 77  1  0
 29 78  1  0
 30 79  1  0
 30 80  1  0
 31 81  1  0
 31 82  1  0
 32 83  1  1
 33 84  1  6
 34 85  1  0
 36 86  1  0
 36 87  1  0
 39 88  1  0
M  CHG  1  36   1
M  END
>  <OMEGA_C>  (13) 
DDHcQID3Ur2xr4XBk3EHQcLNxj9sbHzB88QCQRRVIL+xl2vBO2jbQFhYjz+ipavBURKkQE965r6K
4KXB4YrnQIP1o78jDq3B2yPwQOdfmz8zCIbBLYDnQJhHe7+WanvBnmsMQeRbJT8t7GvBpmyyQMjh
Xj/ZUKfBnA72QCA1Lj1Vca7Bgme+QEwJw7+/2ajBJF3kQBcOC0CFcI7BDCvTQN7NE8AozXrBFyUc
QTVrGUFsE5zB8M8oQcvVG0EGkZHBRwCyQPUQ90A6dorB8qHDQNv7t0CT6JXB3qGPQJG23EAvxoTB
jV4cQZt3B0H00pPBwJfVQNun2ECGR47BahmhQJjinUByCJDBX+wcQdx2gT+KPFvBZpkVQdz+icB3
pofB9s1yQM2nSMA81IzBLLeVQIatAEDLJaTBMT8IQaXiA0HJdY3Bag8IQWKTgcAmu5HB7bmVQBQm
jMATbI7BZFfvQHNpO8C3x4/B5+u5QMQEjsCOGYbBN7SLQJfSe0Ask5fBr/mrQE/6OUAN4ZvBhdW7
QHv0BEBf/ZLBqSHUQIZhTMDFNYbBBLp+QNfvukBf8ovBA+T9QAFiQkACNJHBlljBQHVyKMBmGmrB
SvVwQKfVlEAJOqDBJlj1QJ/o7kC1DpTBl7EOQdjNjj7niLLBhfuvQMV5MsASs6fB6C/EQBB3nb4O
jovBr2cPQaGvIEDjHX3BB+QGQYF4qr/WLF/BdDzmQO6mCECuzqzBx9iEQAowI7+efaLB/vP7QJ8D
B8AJN6/BO4ANQVnTIkHXYZ3BO6wkQeZ5F0FatqPB12g6QcqlG0GasJHB1zwjQTz/JkEXXIvBE9+j
QDfPA0HYYJHByGy/QH5lB0EL5YTBsFy1QJhCyEAM2ZzBeFXdQNCLokB4opjBWn2dQCLfzUD4K3vB
pSFqQAjV8UBlcILBYNYlQdVl8kBh25XBJILjQA5NyEB8TofBmvavQLp/jEAjWInBn/cUQafivj/5
ik3BezAlQZzazz37zlXBIaEoQTiN2j9kN2LBaSYhQXu9o8AISInBnkIeQaBOWcAacYXB6Q0LQSCZ
k8C0BoHBVtk/QDgLSMCQ5pLB2fxVQI5lSsCRzYTBIw+NQI6eDsCbpI3B4fWNQLLgJkDcR6vBAx5w
QJzTzT9mq6DBeuILQXV/9kDkAobBG58AQeFFE0HHiIvBW7YSQfdDcMCWU5jBTQP/QMwTn8Aw6ZPB
4cqBQIX9qMA6o43BmNujQAUai8BFepbBak4AQaiu/b81kY7Bh5PaQD/wNcBR2pbBXdWrQJUWksAZ
M3zBxrfOQK96qcAg6YfBOcBlQCI8WUANFJPBlLvGQDDRW0DquZ/BIuanQK0dsj8Z+4/BGNtTQOd3
qUCl64fBFzViQETtyEBNMpLBriVWQEg3gUCc96TB

>  <OMEGA_E>  (13) 
wLOQPQ==

>  <OMEGA_NBR>  (13) 
     10717

$$$$
50209143
     RDKit          3D

 83 85  0  0  1  0  0  0  0  0999 V2000
    6.8433   -0.0960  -16.7117 C   0  0  0  0  0  0  0  0  0  0  0  0
    8.3997    1.5230  -15.7539 C   0  0  0  0  0  0  0  0  0  0  0  0
    8.1223   -0.6614  -14.7132 C   0  0  0  0  0  0  0  0  0  0  0  0
    6.8355    1.1260  -21.4197 C   0  0  0  0  0  0  0  0  0  0  0  0
    5.0988   -0.4451  -20.7210 C   0  0  0  0  0  0  0  0  0  0  0  0
    7.2169   -1.2749  -21.6000 C   0  0  0  0  0  0  0  0  0  0  0  0
    7.4563    1.1751  -16.7434 C   0  0  0  0  0  0  0  0  0  0  0  0
    7.1993   -1.0258  -15.7135 C   0  0  0  0  0  0  0  0  0  0  0  0
    8.7073    0.6186  -14.7214 C   0  0  0  0  0  0  0  0  0  0  0  0
    5.5503    0.8783  -20.8878 C   0  0  0  0  0  0  0  0  0  0  0  0
    7.6708    0.0491  -21.7665 C   0  0  0  0  0  0  0  0  0  0  0  0
    5.9263   -1.5193  -21.0880 C   0  0  0  0  0  0  0  0  0  0  0  0
    7.1012    2.1359  -17.7929 C   0  0  0  0  0  0  0  0  0  0  0  0
    6.5862   -2.3639  -15.6819 C   0  0  0  0  0  0  0  0  0  0  0  0
    8.5209    8.4504  -17.8855 C   0  0  0  0  0  0  0  0  0  0  0  0
    5.5268    7.8134  -17.3829 C   0  0  0  0  0  0  0  0  0  0  0  0
    6.1685    5.7880  -18.7012 C   0  0  0  0  0  0  0  0  0  0  0  0
    4.4817    6.9828  -16.6339 C   0  0  0  0  0  0  0  0  0  0  0  0
    6.7013    6.8995  -17.8022 C   0  0  1  0  0  0  0  0  0  0  0  0
    5.0570    4.9851  -17.9754 C   0  0  2  0  0  0  0  0  0  0  0  0
    9.7174    0.9965  -13.6637 C   0  0  0  0  0  0  0  0  0  0  0  0
    9.6083    9.1543  -18.6890 C   0  0  0  0  0  0  0  0  0  0  0  0
    3.8165   -3.3142  -17.6253 C   0  0  0  0  0  0  0  0  0  0  0  0
    9.4101   -4.2846  -16.9439 C   0  0  0  0  0  0  0  0  0  0  0  0
    4.6557    2.0250  -20.4856 C   0  0  0  0  0  0  0  0  0  0  0  0
    4.7558   -4.5198  -17.8110 C   0  0  0  0  0  0  0  0  0  0  0  0
    8.5575   -4.0569  -18.2066 C   0  0  0  0  0  0  0  0  0  0  0  0
    5.8764   -4.5252  -16.7582 C   0  0  0  0  0  0  0  0  0  0  0  0
    7.4977   -2.9670  -17.9725 C   0  0  0  0  0  0  0  0  0  0  0  0
    4.3738    3.9768  -18.9154 C   0  0  2  0  0  0  0  0  0  0  0  0
    5.3568    2.9221  -19.4491 C   0  0  1  0  0  0  0  0  0  0  0  0
    5.8254    2.0828  -18.3380 N   0  0  0  0  0  0  0  0  0  0  0  0
    6.6507   -3.2522  -16.7780 N   0  0  0  0  0  0  0  0  0  0  0  0
    3.9915    5.8946  -17.4941 N   0  0  0  0  0  0  0  0  0  0  0  0
    7.9174    2.9777  -18.1505 O   0  0  0  0  0  0  0  0  0  0  0  0
    6.0326   -2.6987  -14.6401 O   0  0  0  0  0  0  0  0  0  0  0  0
    8.4039    8.7425  -16.6991 O   0  0  0  0  0  0  0  0  0  0  0  0
    3.7849    4.6828  -20.0101 O   0  0  0  0  0  0  0  0  0  0  0  0
    7.6847    7.6190  -18.5759 O   0  0  0  0  0  0  0  0  0  0  0  0
    8.9037    0.2868  -22.2683 F   0  0  0  0  0  0  0  0  0  0  0  0
    5.4768   -2.7863  -20.9522 F   0  0  0  0  0  0  0  0  0  0  0  0
    6.1014   -0.3563  -17.4522 H   0  0  0  0  0  0  0  0  0  0  0  0
    8.8870    2.4862  -15.7892 H   0  0  0  0  0  0  0  0  0  0  0  0
    8.3817   -1.3667  -13.9375 H   0  0  0  0  0  0  0  0  0  0  0  0
    7.1761    2.1413  -21.5598 H   0  0  0  0  0  0  0  0  0  0  0  0
    4.1175   -0.6339  -20.3114 H   0  0  0  0  0  0  0  0  0  0  0  0
    7.8582   -2.1026  -21.8647 H   0  0  0  0  0  0  0  0  0  0  0  0
    5.0693    8.2581  -18.2789 H   0  0  0  0  0  0  0  0  0  0  0  0
    5.8998    8.6132  -16.7262 H   0  0  0  0  0  0  0  0  0  0  0  0
    5.7537    6.2321  -19.6181 H   0  0  0  0  0  0  0  0  0  0  0  0
    6.9929    5.1085  -18.9634 H   0  0  0  0  0  0  0  0  0  0  0  0
    4.9374    6.5544  -15.7290 H   0  0  0  0  0  0  0  0  0  0  0  0
    3.6387    7.6295  -16.3489 H   0  0  0  0  0  0  0  0  0  0  0  0
    7.1585    6.4594  -16.9036 H   0  0  0  0  0  0  0  0  0  0  0  0
    5.5012    4.4445  -17.1266 H   0  0  0  0  0  0  0  0  0  0  0  0
    9.2009    1.4674  -12.8143 H   0  0  0  0  0  0  0  0  0  0  0  0
   10.2421    0.0934  -13.3187 H   0  0  0  0  0  0  0  0  0  0  0  0
   10.4452    1.7039  -14.0880 H   0  0  0  0  0  0  0  0  0  0  0  0
   10.1497    9.8563  -18.0378 H   0  0  0  0  0  0  0  0  0  0  0  0
   10.3109    8.4076  -19.0874 H   0  0  0  0  0  0  0  0  0  0  0  0
    9.1490    9.7067  -19.5219 H   0  0  0  0  0  0  0  0  0  0  0  0
    3.0287   -3.3410  -18.3926 H   0  0  0  0  0  0  0  0  0  0  0  0
    3.3572   -3.3578  -16.6268 H   0  0  0  0  0  0  0  0  0  0  0  0
    4.3924   -2.3822  -17.7237 H   0  0  0  0  0  0  0  0  0  0  0  0
   10.1571   -5.0674  -17.1415 H   0  0  0  0  0  0  0  0  0  0  0  0
    9.9220   -3.3492  -16.6737 H   0  0  0  0  0  0  0  0  0  0  0  0
    8.7598   -4.5994  -16.1144 H   0  0  0  0  0  0  0  0  0  0  0  0
    4.4127    2.6234  -21.3760 H   0  0  0  0  0  0  0  0  0  0  0  0
    3.7289    1.6244  -20.0489 H   0  0  0  0  0  0  0  0  0  0  0  0
    4.1713   -5.4469  -17.7163 H   0  0  0  0  0  0  0  0  0  0  0  0
    5.2066   -4.4713  -18.8132 H   0  0  0  0  0  0  0  0  0  0  0  0
    9.2147   -3.7469  -19.0323 H   0  0  0  0  0  0  0  0  0  0  0  0
    8.0525   -4.9971  -18.4730 H   0  0  0  0  0  0  0  0  0  0  0  0
    5.4298   -4.6564  -15.7615 H   0  0  0  0  0  0  0  0  0  0  0  0
    6.5591   -5.3620  -16.9671 H   0  0  0  0  0  0  0  0  0  0  0  0
    8.0072   -2.0035  -17.8237 H   0  0  0  0  0  0  0  0  0  0  0  0
    6.8501   -2.9061  -18.8597 H   0  0  0  0  0  0  0  0  0  0  0  0
    3.5885    3.4568  -18.3471 H   0  0  0  0  0  0  0  0  0  0  0  0
    6.2083    3.4291  -19.9265 H   0  0  0  0  0  0  0  0  0  0  0  0
    5.1799    1.4269  -17.9468 H   0  0  0  0  0  0  0  0  0  0  0  0
    3.3288    5.3559  -16.9739 H   0  0  0  0  0  0  0  0  0  0  0  0
    3.5407    6.3002  -18.2892 H   0  0  0  0  0  0  0  0  0  0  0  0
    3.3611    4.0652  -20.5945 H   0  0  0  0  0  0  0  0  0  0  0  0
  1  7  2  0
  1  8  1  0
  2  7  1  0
  2  9  2  0
  3  8  2  0
  3  9  1  0
  4 10  2  0
  4 11  1  0
  5 10  1  0
  5 12  2  0
  6 11  2  0
  6 12  1  0
  7 13  1  0
  8 14  1  0
  9 21  1  0
 10 25  1  0
 11 40  1  0
 12 41  1  0
 13 32  1  0
 13 35  2  0
 14 33  1  0
 14 36  2  0
 15 22  1  0
 15 37  2  0
 15 39  1  0
 16 18  1  0
 16 19  1  0
 17 19  1  0
 17 20  1  0
 18 34  1  0
 19 39  1  0
 20 30  1  0
 20 34  1  0
 23 26  1  0
 24 27  1  0
 25 31  1  0
 26 28  1  0
 27 29  1  0
 28 33  1  0
 29 33  1  0
 30 31  1  0
 30 38  1  0
 31 32  1  0
  1 42  1  0
  2 43  1  0
  3 44  1  0
  4 45  1  0
  5 46  1  0
  6 47  1  0
 16 48  1  0
 16 49  1  0
 17 50  1  0
 17 51  1  0
 18 52  1  0
 18 53  1  0
 19 54  1  1
 20 55  1  1
 21 56  1  0
 21 57  1  0
 21 58  1  0
 22 59  1  0
 22 60  1  0
 22 61  1  0
 23 62  1  0
 23 63  1  0
 23 64  1  0
 24 65  1  0
 24 66  1  0
 24 67  1  0
 25 68  1  0
 25 69  1  0
 26 70  1  0
 26 71  1  0
 27 72  1  0
 27 73  1  0
 28 74  1  0
 28 75  1  0
 29 76  1  0
 29 77  1  0
 30 78  1  1
 31 79  1  6
 32 80  1  0
 34 81  1  0
 34 82  1  0
 38 83  1  0
M  CHG  1  34   1
M  END
>  <OMEGA_C>  (14) 
B/zaQAKXxL2jsYXBBmUGQT/xwj8SEHzB7/QBQdBPKb8caWvBnrzaQKohkD+CW6vBvSmjQObi476g
xKXB5PDmQK0wo7+9zKzB/pnuQDRqlj+H8oXBzWDmQDlNg7+PanvB7lALQYJcHj/uimvBDpyxQDDW
YD83GqfBeXf1QPoPST29Ia7BP6S9QM55wr9BtKjBYz3jQMqxCEDlV47BxMHSQNZKF8Dr6HrBslUI
Qds0B0F0FY/BP9uwQFQH+kAYEIvBUGTFQBw3uUAUnJXBxGmPQA5z30AkEoXBTXHWQFTI3EDiao7B
99KhQKCFn0CnzY/Bd3obQRocfz+vnlrBe7sZQd93EkEEg5XB/kB0QD4cVMCuAI3BmY8WQTAbicAZ
jYfBXvuUQIyZAUBz4qPBmC+YQE+ikMDmfI7BWesIQdjRgcAMp5HBWgu8QF7OkMDLEIbBEu3vQOfi
PcDGx4/B1vWLQLeDfkCvUpfBC2urQF0DO0Col5vBDGq6QD9MBUBNtJLBgdLUQEAjUMBnOYbB+nR/
QE6gvED084vBoFv9QCaSPkAnNJHBSQvBQDG3LMD6PWrBjHYGQXzhC0HDl4XBMjtyQEjZlUCaFKDB
4uj1QBLP80CCm5TBp3UOQRrbkj5vJbLBU0KvQNBSMsArnqfB3D7DQA5str4lnovB/zAOQS4dH0Cq
oHzBdRsGQRTvrr/2/17BwaLlQPgKCUBxeqzB88KDQHdKIr+6faLBEXb7QGGRBsD86q7BbDeiQFgh
BEEyO5LBhMu8QJ/PCUFZz4XBKh64QG5tx0Dc8ZzBe8XfQNx4o0ALtZfB6v6dQN690UDWqXvB8t9o
QIsk9ECZyoLBVhLlQKqzzkCoOofB0AmwQJo5jkA+A4nBBTcTQeDUuz98B03Btd8jQZZOvz1XGVXB
aB8nQdsX2j+kaGHBLGUiQX2zHUF/TZDBo/kkQaWFBkEWs5jBHmISQcROG0HnLJzBDdZBQFbSVcAJ
JJPBA9xWQNvlVsCYA4XBxI6MQJd2GMAZyo3BboMiQYAoosDUIYnBrcAeQX5ZVsDTY4XBKCgMQXou
k8BT6oDB7zSNQLHlJ0ASAqvBs6ZuQMTtzz8rZKDBb3uFQJ1MrsD2uo3BMZymQPsUj8B3gZbBnW8T
QQzNb8A1QpjBGNcAQUHon8C1yJPBycCtQBsBlcBCL3zB0uPRQMSVq8CxvIfBdR0AQX45AMAGl47B
VzTbQFz+OcCY4JbBuallQHA7XUDqxpLBC6rGQCh3W0BraZ/BpsGlQM6ktj//ko/BSgpVQM5jq0CQ
yofBhJpiQKCbyUBOUJLBCRxXQEcWgkB7waTBDN7cQMHTKb4GyoXBEHEIQWPOtz/AtH3ByOMDQUCP
Ob/vNGzBqg3YQBrJkj+t76vBfVWkQPf0+b7RTKXBeLXnQMo3nr8WIa3Bfg7xQJGFjD+tYobBDSjo
QKOjib+7QnvB1zkOQXyCBj9SjW3BmmCwQOzXWT+CEqfBhMfzQGK51D0C567Bm+2/QJ/hw78aW6jB
ABDkQCXsBEAsj47BsqLPQPGaFMA1jXjBv/sHQelEB0HkpY/BdNqxQGUZ+UDsH4vB0NnEQC9HuEAv
55XB9PeQQNyV3kAo7YTBrtvWQN+z20Cjy47BEC2iQEydnkCpwI/BsVEeQfZkbz/Xu1zBYxAZQYTf
EkH4IpbBHu6EQMoqTcCC/IzB6pAVQdyvdsDZwZfBtkSTQMfL+z8EfKPB1pOeQO+ikMCel4zBYH4D
QWSFScC5w5HB9Zq7QLgglMBckoLB5LcCQavXa8BmSIbBcHaLQNiGe0BQ8pbBSnyqQAiwN0CcWpvB
CZW6QBLxAUBBjZLBbOvaQB8GYcB9d4HBiYWAQNrXu0DXuIvBXGT9QP4JPEC2gJHBQCuwQBpSEsAf
32zBI9oHQQ7zCUE+64XB9Y5uQMnOk0AOm5/B5e31QFPg8kDOFJXBlAMNQaHhxz64aLPBuE60QJMQ
NMCNn6bBbcHEQNzu3r5Tl4vBIzkQQfSEGUAPlH7BQRoIQZ8utb+Fm1/BCBbhQM4bC0A6YK3BN/OF
QOe8Nr+FmaHBLPP8QGRvAsDQba/B13aiQFHKA0GdKZLBVI++QCxACUE57YXBC4G2QDObxkCwGJ3B
9eTeQASQokCtQ5jBIT+gQDDO0EB/knvBtpBsQNZU80BxeILBsBnmQGtZzUCouIfBeFuxQLPNjUBE
BInBkPwVQQ3Gtj/QYk/BwbomQbv8MD1ZyVbB8vUpQejx0D//yWPB9y8jQUllHEHQvJDBPAEjQRYV
B0F5YJrBqlMRQc2DHUFA+5vBuBliQL4NTMBJP5TBCoVgQGnCSMCA4oXBgimbQCOYFsAqG43BKE8W
QR2mXsAeBaDBL90kQWzpacCotZPB/YkSQUoEnsDF2pfBAM2JQH9SJEDId6rBMSVtQKPbxD/at5/B
n++HQH6Wq8BEjYzBnNayQFuBksDuxZPBwXwGQY4nBMDxopHBH1PoQLZGVsAOyJXBdwqnQBNklMAk
3HbBGXjNQGFmssB8CoPBUL8GQTwvmMAFYIbBmoYOQcgLScD7aoHBZiBmQOScWkB3HpLBJVLFQPz/
V0BdXp/BwDymQM3EsD+WNo/BAjZXQFaxqkCAcofBIDVjQKzjyEDUAJLBjlJSQCR7f0DCF6TB

>  <OMEGA_E>  (14) 
QG80PoQ7wz4=

>  <OMEGA_NBR>  (14) 
     13635

$$$$
50147861
     RDKit          3D

 84 86  0  0  1  0  0  0  0  0999 V2000
    6.9036   -0.0927  -16.7407 C   0  0  0  0  0  0  0  0  0  0  0  0
    8.3872    1.5583  -15.7213 C   0  0  0  0  0  0  0  0  0  0  0  0
    8.1624   -0.6553  -14.7309 C   0  0  0  0  0  0  0  0  0  0  0  0
    6.8680    1.1670  -21.4364 C   0  0  0  0  0  0  0  0  0  0  0  0
    5.2116   -0.4671  -20.6888 C   0  0  0  0  0  0  0  0  0  0  0  0
    7.3583   -1.2161  -21.5727 C   0  0  0  0  0  0  0  0  0  0  0  0
    7.4712    1.2003  -16.7327 C   0  0  0  0  0  0  0  0  0  0  0  0
    7.2684   -1.0307  -15.7563 C   0  0  0  0  0  0  0  0  0  0  0  0
    8.7070    0.6434  -14.7024 C   0  0  0  0  0  0  0  0  0  0  0  0
    5.5989    0.8718  -20.8901 C   0  0  0  0  0  0  0  0  0  0  0  0
    7.7495    0.1236  -21.7689 C   0  0  0  0  0  0  0  0  0  0  0  0
    6.0880   -1.5094  -21.0356 C   0  0  0  0  0  0  0  0  0  0  0  0
    7.0869    2.1759  -17.7586 C   0  0  0  0  0  0  0  0  0  0  0  0
    6.6253   -2.3550  -15.7091 C   0  0  0  0  0  0  0  0  0  0  0  0
    5.5729    7.7798  -17.3381 C   0  0  0  0  0  0  0  0  0  0  0  0
    6.1413    5.8005  -18.7690 C   0  0  0  0  0  0  0  0  0  0  0  0
    4.5139    6.9373  -16.6201 C   0  0  0  0  0  0  0  0  0  0  0  0
    6.7185    6.8700  -17.8411 C   0  0  1  0  0  0  0  0  0  0  0  0
    5.0596    4.9792  -18.0157 C   0  0  2  0  0  0  0  0  0  0  0  0
    9.6754    1.0399  -13.6114 C   0  0  0  0  0  0  0  0  0  0  0  0
    9.3399   -4.5238  -17.0039 C   0  0  0  0  0  0  0  0  0  0  0  0
    3.8681   -3.2676  -17.5668 C   0  0  0  0  0  0  0  0  0  0  0  0
    9.6157    9.0942  -18.6138 C   0  0  0  0  0  0  0  0  0  0  0  0
    4.6663    1.9878  -20.4861 C   0  0  0  0  0  0  0  0  0  0  0  0
    9.0130   -3.1978  -17.7136 C   0  0  0  0  0  0  0  0  0  0  0  0
    4.7298   -4.5371  -17.7060 C   0  0  0  0  0  0  0  0  0  0  0  0
    7.5067   -3.0502  -17.9922 C   0  0  0  0  0  0  0  0  0  0  0  0
    5.9134   -4.5471  -16.7186 C   0  0  0  0  0  0  0  0  0  0  0  0
    8.4211    8.5887  -17.8093 C   0  0  0  0  0  0  0  0  0  0  0  0
    4.3621    3.9491  -18.9199 C   0  0  2  0  0  0  0  0  0  0  0  0
    5.3507    2.8999  -19.4524 C   0  0  1  0  0  0  0  0  0  0  0  0
    5.8293    2.0708  -18.3378 N   0  0  0  0  0  0  0  0  0  0  0  0
    6.6776   -3.2760  -16.7807 N   0  0  0  0  0  0  0  0  0  0  0  0
    4.0057    5.8869  -17.5146 N   0  0  0  0  0  0  0  0  0  0  0  0
    7.8627    3.0723  -18.0701 O   0  0  0  0  0  0  0  0  0  0  0  0
    6.0242   -2.6374  -14.6781 O   0  0  0  0  0  0  0  0  0  0  0  0
    3.7325    4.6323  -20.0050 O   0  0  0  0  0  0  0  0  0  0  0  0
    7.6982    7.6154  -18.5874 O   0  0  0  0  0  0  0  0  0  0  0  0
    8.9712    0.4092  -22.2731 F   0  0  0  0  0  0  0  0  0  0  0  0
    5.7127   -2.7921  -20.8394 F   0  0  0  0  0  0  0  0  0  0  0  0
    6.1883   -0.3626  -17.5036 H   0  0  0  0  0  0  0  0  0  0  0  0
    8.8438    2.5370  -15.7296 H   0  0  0  0  0  0  0  0  0  0  0  0
    8.4302   -1.3673  -13.9642 H   0  0  0  0  0  0  0  0  0  0  0  0
    7.1608    2.1939  -21.5986 H   0  0  0  0  0  0  0  0  0  0  0  0
    4.2425   -0.6925  -20.2687 H   0  0  0  0  0  0  0  0  0  0  0  0
    8.0320   -2.0188  -21.8339 H   0  0  0  0  0  0  0  0  0  0  0  0
    5.1115    8.2925  -18.1950 H   0  0  0  0  0  0  0  0  0  0  0  0
    5.9799    8.5261  -16.6400 H   0  0  0  0  0  0  0  0  0  0  0  0
    5.6874    6.2845  -19.6463 H   0  0  0  0  0  0  0  0  0  0  0  0
    6.9476    5.1281  -19.0974 H   0  0  0  0  0  0  0  0  0  0  0  0
    4.9628    6.4709  -15.7307 H   0  0  0  0  0  0  0  0  0  0  0  0
    3.6808    7.5866  -16.3126 H   0  0  0  0  0  0  0  0  0  0  0  0
    7.1891    6.3798  -16.9761 H   0  0  0  0  0  0  0  0  0  0  0  0
    5.5336    4.4550  -17.1728 H   0  0  0  0  0  0  0  0  0  0  0  0
    9.1199    1.4755  -12.7679 H   0  0  0  0  0  0  0  0  0  0  0  0
   10.2250    0.1509  -13.2684 H   0  0  0  0  0  0  0  0  0  0  0  0
   10.3864    1.7816  -14.0042 H   0  0  0  0  0  0  0  0  0  0  0  0
   10.4234   -4.5871  -16.8250 H   0  0  0  0  0  0  0  0  0  0  0  0
    8.8066   -4.5663  -16.0428 H   0  0  0  0  0  0  0  0  0  0  0  0
    9.0231   -5.3660  -17.6366 H   0  0  0  0  0  0  0  0  0  0  0  0
    3.0392   -3.3055  -18.2889 H   0  0  0  0  0  0  0  0  0  0  0  0
    3.4626   -3.2099  -16.5459 H   0  0  0  0  0  0  0  0  0  0  0  0
    4.4874   -2.3806  -17.7660 H   0  0  0  0  0  0  0  0  0  0  0  0
   10.1693    9.8376  -18.0214 H   0  0  0  0  0  0  0  0  0  0  0  0
   10.2788    8.2502  -18.8549 H   0  0  0  0  0  0  0  0  0  0  0  0
    9.2601    9.5588  -19.5453 H   0  0  0  0  0  0  0  0  0  0  0  0
    4.4006    2.5797  -21.3744 H   0  0  0  0  0  0  0  0  0  0  0  0
    3.7544    1.5585  -20.0454 H   0  0  0  0  0  0  0  0  0  0  0  0
    9.3397   -2.3633  -17.0757 H   0  0  0  0  0  0  0  0  0  0  0  0
    9.5562   -3.1630  -18.6695 H   0  0  0  0  0  0  0  0  0  0  0  0
    4.0988   -5.4169  -17.5118 H   0  0  0  0  0  0  0  0  0  0  0  0
    5.1236   -4.5875  -18.7318 H   0  0  0  0  0  0  0  0  0  0  0  0
    7.3153   -2.0334  -18.3658 H   0  0  0  0  0  0  0  0  0  0  0  0
    7.2166   -3.7833  -18.7593 H   0  0  0  0  0  0  0  0  0  0  0  0
    5.5273   -4.6838  -15.6977 H   0  0  0  0  0  0  0  0  0  0  0  0
    6.5842   -5.3814  -16.9717 H   0  0  0  0  0  0  0  0  0  0  0  0
    8.7761    8.1236  -16.8778 H   0  0  0  0  0  0  0  0  0  0  0  0
    7.7574    9.4322  -17.5682 H   0  0  0  0  0  0  0  0  0  0  0  0
    3.6004    3.4286  -18.3209 H   0  0  0  0  0  0  0  0  0  0  0  0
    6.1977    3.4133  -19.9308 H   0  0  0  0  0  0  0  0  0  0  0  0
    5.2049    1.3817  -17.9701 H   0  0  0  0  0  0  0  0  0  0  0  0
    3.3316    5.3436  -17.0141 H   0  0  0  0  0  0  0  0  0  0  0  0
    3.5654    6.3243  -18.2987 H   0  0  0  0  0  0  0  0  0  0  0  0
    3.2992    4.0017  -20.5682 H   0  0  0  0  0  0  0  0  0  0  0  0
  1  7  2  0
  1  8  1  0
  2  7  1  0
  2  9  2  0
  3  8  2  0
  3  9  1  0
  4 10  2  0
  4 11  1  0
  5 10  1  0
  5 12  2  0
  6 11  2  0
  6 12  1  0
  7 13  1  0
  8 14  1  0
  9 20  1  0
 10 24  1  0
 11 39  1  0
 12 40  1  0
 13 32  1  0
 13 35  2  0
 14 33  1  0
 14 36  2  0
 15 17  1  0
 15 18  1  0
 16 18  1  0
 16 19  1  0
 17 34  1  0
 18 38  1  0
 19 30  1  0
 19 34  1  0
 21 25  1  0
 22 26  1  0
 23 29  1  0
 24 31  1  0
 25 27  1  0
 26 28  1  0
 27 33  1  0
 28 33  1  0
 29 38  1  0
 30 31  1  0
 30 37  1  0
 31 32  1  0
  1 41  1  0
  2 42  1  0
  3 43  1  0
  4 44  1  0
  5 45  1  0
  6 46  1  0
 15 47  1  0
 15 48  1  0
 16 49  1  0
 16 50  1  0
 17 51  1  0
 17 52  1  0
 18 53  1  1
 19 54  1  1
 20 55  1  0
 20 56  1  0
 20 57  1  0
 21 58  1  0
 21 59  1  0
 21 60  1  0
 22 61  1  0
 22 62  1  0
 22 63  1  0
 23 64  1  0
 23 65  1  0
 23 66  1  0
 24 67  1  0
 24 68  1  0
 25 69  1  0
 25 70  1  0
 26 71  1  0
 26 72  1  0
 27 73  1  0
 27 74  1  0
 28 75  1  0
 28 76  1  0
 29 77  1  0
 29 78  1  0
 30 79  1  1
 31 80  1  6
 32 81  1  0
 34 82  1  0
 34 83  1  0
 37 84  1  0
M  CHG  1  34   1
M  END
>  <OMEGA_C>  (15) 
mOrcQNfgvb0L7YXB+zEGQX93xz+binvBGpkCQc7CJ7+psWvB48bbQEphlT/RfavBRcWmQMkj777A
gqXBA3frQACqm7/SlKzB8hPvQJaimT+f3IXB7JboQFvtg7/kGXzBz08LQeu3JD81PWvBhSqzQEcw
Xz/hHqfBgvv3QNkv/T28Jq7BANHCQGIywb/mSKjBfMfiQH9CC0CdEY7BwALUQBO5FsBsWHvBlVWy
QPvz+EBytIrB0YXEQOKduUD1JpbBnXGQQK7+3UDp9YTB5f3WQO/W20CQuo7BROihQHVVn0BAIJDB
Zc4aQUkahT9vyFnBSXAVQRHDkMD6B4jBAI93QCwgUcDWiIzBAtoZQbyBEUEh6ZTBM1KVQK9v/j9x
46PBDDUQQfOnTMB9tY3BvFqXQOsvkcDPpY3BfjbwQH02Q8AQ8I/BOTq9QCKCkcC2v4XBprwGQSZr
CUFueY7BhJaLQE69fEAGXJfBkDirQGOXOUCNnpvBzom6QMWHBEDCs5LBPq/VQD2pUcDGPobBYC6A
QD1hvEDlHYzBcpv7QOKgREB3j5DBkcbAQGXKKMB/2WrBmuBuQJE7lEA9CqDBilf2QJGx80AKs5TB
GIoPQYh/0T5HL7LBf862QJmxMsAOt6bBvAbGQI+lub5LB4zBFIANQfleIkB/rHvBRuIGQasCr79o
bV/BayXlQExoDEDbyazBtsKHQHRFMb9QJqLBP4MAQUMzAcDFq67BxZGjQOGtBEFhj5HBaVu/QBRr
CEHCHoXB0/61QLIayUCtK53BsVLeQMAZpECJx5jBJs+eQLQRz0AasXvB4JJrQEnF8kAwgILB4Qzm
QAcnzEAHz4fB3BKxQIKPjkDRYYnB/eoRQU/dvD8oSUzBkJkjQVaGGj5KS1TBxC4mQXwL5D83EWDB
VMYmQYjJksCUmYbB5OcMQW8fksCSV4DBg14QQVa2q8DDF43BnoFCQGeNU8CuT5LBl5pdQK5vTcAP
XoTB0piPQEBbGMC0II7BRrUiQcpmHUHqK5DB7nUkQQIBBEHm1pbBiykUQfjwGEHNXJzBBtKMQE4Z
JUC2/qrBfkhwQFB7xz/1XKDBZm8VQedAF8D0mojBBuYYQbZuSsAlW5XBCCmDQD5XrcAiGIzBjvSj
QAfNksDH2pXBqxbqQLwjAsAg7ZLBwu7mQLUhcsAYE5bBht+wQHThlcC7KXvBgbHSQFg0rMD0xYfB
5moMQS76AUHFBYfBBj34QCTqFkGsi4zBKWxmQI5tW0BKkZLBxlPGQO9yWkBdcp/BcI6mQJnasD+3
wo/BrjhVQMj+qkDqHIjB1C9kQA5hykC3Y5LBoyZTQJgNgECVi6TBLqzaQMAb4r23qYXBFiIGQSiE
wT/U9HvBjucBQTCHLb83amvBSH7aQCDhkj/2c6vBGuCjQC326b7w4aXB5g/oQBpan7/4+6zBwATu
QF0QlT+y4oXBEUfmQJldhb/manvBbigLQbLlGj+XfmvBg4exQGTnXz9qMKfBh9P1QC56sz0CRq7B
lO++QHjVwb8w4KjBY0PiQHhfCEBVOY7BSsnSQEtgGMBo/nrBfwyzQF0Y+UBl6IrBjOjEQIHHuEDP
+ZXBcqiQQDP/3kDlFoXB7oLXQPs120C2q47BlKihQGhKn0Do/I/BXTQbQaT+fD/HfVrBAHx0QBb3
UcBiII3BLI4WQRNMicBneIfBUXAaQeFcEEFgSpXB6UyUQJ07AEBf5qPBS92XQPTZj8D/tI7BWyAJ
QYDbgcB4opHB4b27QPzSkMCwSobBXDzwQEEaPsCz0I/BmhkHQfsDCUHZzI7BszKLQBRMfUB4SpfB
dYqqQPiUOUAFlZvBCKq5QPqwA0DttZLBt9fUQJ+hUMDjUYbB8SeAQHbjvEDkE4zBi9P7QNXYP0Dg
6ZDB59rAQPoELsDyZmrBYhZvQMvKlEAQAaDBI2H3QCzj8UAXv5TBoYoOQS5dsz6XT7LBqDSxQJCB
MsAC3qfB+/bCQA/Ovr7NlovBSOANQYWDHkCFfXzB/iEGQdhFsb+LDl/B/MvkQBHWCkBWi6zBK6OE
QKtNKr9ZlaLBqwb9QNbWA8D0JK/B2LekQCiCBEEE5JHB8B7AQNCsCEFuboXBTfC2QMv/x0DNGZ3B
Y4zeQFTCokBLb5jBuKSeQEmN0ECFu3vBSVlsQBRL9EDny4LBtRnmQArly0AHo4fBnkewQHVRjkA5
M4nBy9MSQbv0uT/+6UzBhrEjQWgrtT2R+VTB48gmQabr2T9HNGHBeg5CQEidUsA5RJPBRg1XQLwL
VcBKJIXBiQONQGmvFsDz1o3BaI0iQcRMosDsA4nB0q8eQX3HVsCeO4XBDQQMQQCCk8C15oDBNDwj
QZeoHEH5yJDBsQQlQYyhAkEd0JbBOAAVQVEXF0E+9JzB/COMQGu4JkD6+qrBJcZtQPMJyz+LZ6DB
bc+EQGhSrcAdBo7BU0ymQD8kjsDHuJbBN8cTQWibb8BuLJjBcRsBQfXrn8CE15PBa3CtQItWlcA5
qXzBI1nRQHGyq8B0D4jBzDkAQVVpAMABk47Ba77bQIslOsAE9JbBToMMQZZEAkHwIofBq/34QFy6
FkERR43BegtlQGpPXEBVj5LB283FQLwTWkBbY5/Bv0mlQIRIsT/zsY/BpxZVQMXuq0Bf+YfBBR9k
QMt8ykB3Z5LB7jhTQH3KgECti6TB3nHcQGp4SL6YN4XBVSwHQc7+uj/QOXzB2NEDQQjZNr9582rB
477WQAoKkD+DNavBvp+gQDFB+L4cbaXBmtniQP0qob+yra3B/znvQBi4iz9ru4XB1wPpQExmjb9g
RXrBO/cMQTCWEj9TyGvBQWyuQIjnWD9pmKbB3R/xQICekD27n67BebK6QIyUxL9/C6nB70/iQGfH
A0CoBI7BIqvSQD9XGcAo0XfBGha0QFgs+kDIVYvBUIzFQIM3uEA47pXBCmySQOyt4ED7H4XBembY
QMMK3EAwDo/BU2CiQLe2n0Dio4/B/5EdQZPUfD9VglvBKyaNQOY2W8AK2o7BtMMAQTfKMsDtopbB
G0YaQTmqEEEn0ZbBtceRQFVp/D+d9aLB7GCSQEthjcCPjoXBD/IJQZsUfsBESpDBn8vBQBFrl8Ab
k4LBiXMGQS2sccDIOITBBFkHQeebCUHI8o/BjPWKQE5KfUCNopbBQ1SpQEOeN0C14ZrBu9C4QNmr
AUB9AZLBghHfQJ+rY8CXhYHBDFGBQO/4vUB1z4vBEfn7QO3VOUCbFpHBndSyQOmiGcAbZWzBvCRu
QEtflED+ZJ/BgFT3QCpZ8kBYhJXB2/oLQQOcqz745LLBdRytQJD4M8C2HKjBxX3EQIzB977EAIvB
Zq4OQaahG0DzMX3BWJAIQaKus7+thl7BEUbhQKd1CUDhG6zB/BWCQMe3Mr8iwqHB8bT2QK5sBMBz
grDBAwqlQMeLBEGvXJLBOnrBQEeaCUHbIYbBBW63QG8ixkC+M53BmSbfQLnIoUDGK5jBQzKhQEvu
0kB21HvB109wQBYo9kAUyILBSubnQLf2zUBN+4fBCzixQB1Fj0AdzYjBPp8VQc5muz/Zx03Bqmkm
QUipzT2RBlbBDMUoQVSm2T9S4GLBZNBVQNK/UMBvapDBaVScQKYDHsAkuozBk3qcQNNjdcDqEJbB
K3oDQYlKPcBLO5/BpvfeQF2sLcBwGJXBD7sIQZOK7r9VJJTBpkcjQZc6HUEinJLBrNAkQcXjAkGx
TpjBUV0UQRf1FkFhfJ7B4k+IQILCJECB7qnBWh1qQGCAxj/1JZ/B5X+CQJK9f8DU7nzBEKaCQN+O
q8AwzofB9PUBQVaynMCL2JLBMDUbQc1+gcBw5JHBM7fBQBVwqMBNvnXBU+fOQP50rMCT0ojBqSEM
QX2PlcCGAIDBprkPQRS/OcAxkIHBkToNQWNLA0FTR4jBa475QLRcF0EDdY7B2adkQBkdXkC4s5HB
e5bEQHJtVkAZ557BUB6kQMTosT8LpI7Bo6tXQIafrUDAg4fBdeJlQDr6ykDyLJLBaQVRQJ43gEBe
xKPB

>  <OMEGA_E>  (15) 
QOVWPYAw6DxwcI4+

>  <OMEGA_NBR>  (15) 
     17839

$$$$
50209157
     RDKit          3D

 74 76  0  0  1  0  0  0  0  0999 V2000
    6.7906   -0.1224  -16.7489 C   0  0  0  0  0  0  0  0  0  0  0  0
    8.2740    1.5396  -15.7450 C   0  0  0  0  0  0  0  0  0  0  0  0
    8.0296   -0.6501  -14.7125 C   0  0  0  0  0  0  0  0  0  0  0  0
    6.8322    1.1487  -21.4290 C   0  0  0  0  0  0  0  0  0  0  0  0
    5.0992   -0.4266  -20.7342 C   0  0  0  0  0  0  0  0  0  0  0  0
    7.2377   -1.2530  -21.5724 C   0  0  0  0  0  0  0  0  0  0  0  0
    7.3698    1.1675  -16.7621 C   0  0  0  0  0  0  0  0  0  0  0  0
    7.1443   -1.0413  -15.7361 C   0  0  0  0  0  0  0  0  0  0  0  0
    8.5778    0.6445  -14.7041 C   0  0  0  0  0  0  0  0  0  0  0  0
    5.5390    0.9025  -20.9139 C   0  0  0  0  0  0  0  0  0  0  0  0
    7.6806    0.0724  -21.7530 C   0  0  0  0  0  0  0  0  0  0  0  0
    5.9444   -1.5015  -21.0707 C   0  0  0  0  0  0  0  0  0  0  0  0
    7.0278    2.1276  -17.8192 C   0  0  0  0  0  0  0  0  0  0  0  0
    6.5583   -2.3922  -15.6931 C   0  0  0  0  0  0  0  0  0  0  0  0
    6.3078    7.0176  -17.7140 C   0  0  0  0  0  0  0  0  0  0  0  0
    6.1552    5.8552  -18.6721 C   0  0  0  0  0  0  0  0  0  0  0  0
    4.8700    7.2885  -17.2587 C   0  0  0  0  0  0  0  0  0  0  0  0
    5.0673    5.0158  -17.9833 C   0  0  2  0  0  0  0  0  0  0  0  0
    9.5455    1.0496  -13.6168 C   0  0  0  0  0  0  0  0  0  0  0  0
    3.9207   -3.5222  -17.6946 C   0  0  0  0  0  0  0  0  0  0  0  0
    9.4943   -4.2808  -16.8319 C   0  0  0  0  0  0  0  0  0  0  0  0
    4.6314    2.0608  -20.5304 C   0  0  0  0  0  0  0  0  0  0  0  0
    4.8953   -4.7117  -17.7784 C   0  0  0  0  0  0  0  0  0  0  0  0
    8.6598   -4.1078  -18.1157 C   0  0  0  0  0  0  0  0  0  0  0  0
    5.9819   -4.6268  -16.6946 C   0  0  0  0  0  0  0  0  0  0  0  0
    7.5637   -3.0423  -17.9311 C   0  0  0  0  0  0  0  0  0  0  0  0
    4.3330    4.0267  -18.9176 C   0  0  2  0  0  0  0  0  0  0  0  0
    5.3066    2.9607  -19.4707 C   0  0  1  0  0  0  0  0  0  0  0  0
    5.7539    2.0981  -18.3666 N   0  0  0  0  0  0  0  0  0  0  0  0
    6.7026   -3.3221  -16.7460 N   0  0  0  0  0  0  0  0  0  0  0  0
    4.1217    6.0122  -17.4265 N   0  0  0  0  0  0  0  0  0  0  0  0
    7.8531    2.9614  -18.1752 O   0  0  0  0  0  0  0  0  0  0  0  0
    5.9811   -2.7111  -14.6592 O   0  0  0  0  0  0  0  0  0  0  0  0
    3.7223    4.7454  -19.9897 O   0  0  0  0  0  0  0  0  0  0  0  0
    8.9170    0.3117  -22.2459 F   0  0  0  0  0  0  0  0  0  0  0  0
    5.5127   -2.7730  -20.9131 F   0  0  0  0  0  0  0  0  0  0  0  0
    6.0795   -0.4043  -17.5114 H   0  0  0  0  0  0  0  0  0  0  0  0
    8.7347    2.5162  -15.7660 H   0  0  0  0  0  0  0  0  0  0  0  0
    8.2885   -1.3482  -13.9302 H   0  0  0  0  0  0  0  0  0  0  0  0
    7.1701    2.1641  -21.5744 H   0  0  0  0  0  0  0  0  0  0  0  0
    4.1132   -0.6194  -20.3380 H   0  0  0  0  0  0  0  0  0  0  0  0
    7.8892   -2.0784  -21.8185 H   0  0  0  0  0  0  0  0  0  0  0  0
    6.9465    6.7444  -16.8612 H   0  0  0  0  0  0  0  0  0  0  0  0
    6.7320    7.8954  -18.2235 H   0  0  0  0  0  0  0  0  0  0  0  0
    5.8283    6.1961  -19.6655 H   0  0  0  0  0  0  0  0  0  0  0  0
    7.0945    5.2908  -18.7688 H   0  0  0  0  0  0  0  0  0  0  0  0
    4.8584    7.5991  -16.2035 H   0  0  0  0  0  0  0  0  0  0  0  0
    4.4183    8.0774  -17.8781 H   0  0  0  0  0  0  0  0  0  0  0  0
    5.5269    4.4474  -17.1613 H   0  0  0  0  0  0  0  0  0  0  0  0
    8.9911    1.5048  -12.7828 H   0  0  0  0  0  0  0  0  0  0  0  0
   10.0850    0.1612  -13.2566 H   0  0  0  0  0  0  0  0  0  0  0  0
   10.2652    1.7776  -14.0192 H   0  0  0  0  0  0  0  0  0  0  0  0
    3.1589   -3.6154  -18.4826 H   0  0  0  0  0  0  0  0  0  0  0  0
    3.4308   -3.5184  -16.7097 H   0  0  0  0  0  0  0  0  0  0  0  0
    4.4764   -2.5827  -17.8313 H   0  0  0  0  0  0  0  0  0  0  0  0
   10.2665   -5.0468  -16.9963 H   0  0  0  0  0  0  0  0  0  0  0  0
    9.9748   -3.3251  -16.5754 H   0  0  0  0  0  0  0  0  0  0  0  0
    8.8373   -4.5938  -16.0070 H   0  0  0  0  0  0  0  0  0  0  0  0
    4.4139    2.6603  -21.4266 H   0  0  0  0  0  0  0  0  0  0  0  0
    3.6923    1.6621  -20.1191 H   0  0  0  0  0  0  0  0  0  0  0  0
    4.3306   -5.6464  -17.6461 H   0  0  0  0  0  0  0  0  0  0  0  0
    5.3762   -4.7107  -18.7677 H   0  0  0  0  0  0  0  0  0  0  0  0
    9.3245   -3.7997  -18.9363 H   0  0  0  0  0  0  0  0  0  0  0  0
    8.1869   -5.0684  -18.3679 H   0  0  0  0  0  0  0  0  0  0  0  0
    5.5110   -4.7366  -15.7066 H   0  0  0  0  0  0  0  0  0  0  0  0
    6.7051   -5.4412  -16.8486 H   0  0  0  0  0  0  0  0  0  0  0  0
    8.0421   -2.0607  -17.7979 H   0  0  0  0  0  0  0  0  0  0  0  0
    6.9323   -3.0233  -18.8316 H   0  0  0  0  0  0  0  0  0  0  0  0
    3.5595    3.5111  -18.3296 H   0  0  0  0  0  0  0  0  0  0  0  0
    6.1701    3.4664  -19.9274 H   0  0  0  0  0  0  0  0  0  0  0  0
    5.0965    1.4478  -17.9858 H   0  0  0  0  0  0  0  0  0  0  0  0
    3.7766    5.6991  -16.5417 H   0  0  0  0  0  0  0  0  0  0  0  0
    3.3554    6.1451  -18.0551 H   0  0  0  0  0  0  0  0  0  0  0  0
    3.2714    4.1368  -20.5632 H   0  0  0  0  0  0  0  0  0  0  0  0
  1  7  2  0
  1  8  1  0
  2  7  1  0
  2  9  2  0
  3  8  2  0
  3  9  1  0
  4 10  2  0
  4 11  1  0
  5 10  1  0
  5 12  2  0
  6 11  2  0
  6 12  1  0
  7 13  1  0
  8 14  1  0
  9 19  1  0
 10 22  1  0
 11 35  1  0
 12 36  1  0
 13 29  1  0
 13 32  2  0
 14 30  1  0
 14 33  2  0
 15 16  1  0
 15 17  1  0
 16 18  1  0
 17 31  1  0
 18 27  1  0
 18 31  1  0
 20 23  1  0
 21 24  1  0
 22 28  1  0
 23 25  1  0
 24 26  1  0
 25 30  1  0
 26 30  1  0
 27 28  1  0
 27 34  1  0
 28 29  1  0
  1 37  1  0
  2 38  1  0
  3 39  1  0
  4 40  1  0
  5 41  1  0
  6 42  1  0
 15 43  1  0
 15 44  1  0
 16 45  1  0
 16 46  1  0
 17 47  1  0
 17 48  1  0
 18 49  1  1
 19 50  1  0
 19 51  1  0
 19 52  1  0
 20 53  1  0
 20 54  1  0
 20 55  1  0
 21 56  1  0
 21 57  1  0
 21 58  1  0
 22 59  1  0
 22 60  1  0
 23 61  1  0
 23 62  1  0
 24 63  1  0
 24 64  1  0
 25 65  1  0
 25 66  1  0
 26 67  1  0
 26 68  1  0
 27 69  1  1
 28 70  1  6
 29 71  1  0
 31 72  1  0
 31 73  1  0
 34 74  1  0
M  CHG  1  31   1
M  END
>  <OMEGA_C>  (16) 
Q0zZQFCs+r3N/YXBVmIEQbMRxT9U63vBN3kAQVtsJr87ZmvBIKHaQCAJkz+nbqvB7CyjQEdq2r6R
36XB1ZrnQDJjoL9ClKzBG9XrQHZvlT/JGIbByp3kQE5Khb8Lx3vB1T4JQa/8JD/1Q2vBvj+xQG0K
Zz+WT6fBV8f1QHpClD0fBq7BiDi+QIsvwL+9kKjBZOPgQEYrCEDBjY7BM93RQAUaGcAQF3vBH9nJ
QCmQ4EBSto3BuffEQABeu0BnYJXBDNebQKg76UDeEYrBaSeiQGeBoEDa3Y/BS7oYQU9Yhj853lnB
/+x6QBxrYcCAjo3BxugXQZ78iMCjp4bBZDSUQJfkA0AzPqTB9aWcQBzGlsA/Oo7Bpo4KQQJzg8AG
7ZDB8Wu/QLYOlMB+joXBzwnyQHu0QsDeco/BI6iKQPfagEBHV5fBcc+pQHJ8PUD+w5vBpx+4QGFH
BkDk7pLBqHvWQI6dVMDe94XBn+SDQO1jwECLaYvBq0z7QO2HPUDPZpHBcGW/QFyDLcAqjGrBhTpu
QD7al0Dw6p/BEqwOQQKYnz6y97HBaWiwQNp4McAfTqfBLovCQO0Bz75EF4zBg8ELQeYIIUBmQXzB
kJ0EQU+SrL/l4V7BmnHlQO6ACkB5mKzBMp+DQCyUHr9QtKLBhHT8QCYFBcAzjK7BykneQOzR10Cy
44bBf2zXQMmm/EC0yZHBeIG6QDZGxkD7Up3BxAXjQKFOqUCAJpbBLnibQAIs80DdoIHBTmKNQO08
AUFjBo/BY9ywQBRRjkBhSonBqtsPQbqcwD9chkzBU1whQeQRJT44G1TBWj4kQUyI4z+UTmDBFitK
QEliZ8BK3JPBbJJbQLctYcB5rYXBnT6PQGtLJcBypo7BjEMkQZN/ocBb+IfB5pgfQRPPVMBzmoTB
i2UNQcoAk8BoDoDBTz6NQAJDKkC3aavBwk5sQAO/1D/+86DBp5SKQGGvtMBQK43BDgqsQDu+lsBJ
JJbB/jAVQRQuc8CMfZfBpP0CQUswosCC8ZLBGFqwQP+Rl8ASTnvBWpDWQGUersDnyYbBfqwAQTLj
A8ArYo7BldXdQFl9QcA2p5bB585jQJu1YEAAo5LBh3HFQALaXUBJa5/BlRajQHZSuT/74o/BKrNx
QDJftkBzVYTBJ75WQFmkxEDncJDBQ19RQN1ghEBggaTB29rdQEBO9jsJvIXBKl0EQbGG3D+uHXrB
B5gBQVYc/r6SJmrBYV/eQKOklz9n8qrBl1+nQK5+4b61EabBNVbtQDwUmr9PP6zBd7LtQNEJqT9j
gYXBA63pQN3daL8Ma3vBDT4JQegsUz88aWnBSa60QMq/Zj96L6fBGbD6QGTVCD4paK3BL6HDQD+0
vr/Vo6jBpxziQPIrEECHFI7Bc87aQNJeEsA63XzBj7bGQD8a4UCQkI3BYPDCQDNAvECkWZXB/0qY
QIS96EAxHorBVaWgQOFcoEAg9Y/B6tgXQfvUnz+WblfB3x2DQGsJr8Biho3Bxg8QQa/VmcBQFofB
PmqWQMwSAkBXNKTBQ7WtQOlXncB3lYnBvowSQZIhWMAoeovBnkiuQKD1WsASxovBqfX6QM7NNcA1
U5DBGXqKQP4XgEBegZfB8uyqQFjaPUCaxpvBHgy6QIbTCEDy0ZLBUyrXQBgtN8BFiIjBg1mBQJZj
v0BWl4vBKbT7QDwXR0Dn5pDBXc7IQOxUMsAKXG3BXLdtQFt8lkACLKDBHFQRQdxH0T4f67DBs7a2
QCqHMcBSrqfBeo7IQIu7mb7jE4zB3PwKQcwZLkAu+XnB0IIFQZ1QmL+Xf13B54XoQAlrDUB276vB
6H+HQH+dKb/XPaPB7okBQRmhAMDAH67Bxc/aQOFe2ECMrYbBTxfUQCOe/UBPfpHBnWW4QHVLx0B/
R53Bv23hQGHxqkCKIpbBaR6XQKiS8kBfrIHB1aKJQPnbAEGtHo/Bs4yvQL+UjkD3VonBgkAOQYjc
1D8kQErBd+cgQSEqwT55qFHBCwsjQXLyAEDWRl3B2tyBQE600cBcCIzBBIpRQAU4n8DHO4nBU+V/
QCT1qMALKJbBAmcfQSOrpMDruoPBCsUDQcsfmsAVyoDBrzoLQVVqr8Adm43BVN2OQFVsJ0DNa6vB
iJNxQLuIzT/+5aDB1QWxQBs0o8BC8oDBfDPIQDvxrMCG3o3B+nwXQYGrLcAa6ITBnvIeQZRAWMAi
uZHB9XGpQIStT8AXYJTBvXGUQKvsO8BxOofByAkAQT3y5r9H+5LBsUTyQGK/XcDuPJfBMtJjQH7R
XUDh5JLBHgbGQEPQX0AOdJ/BbxymQMLDuD+c8I/B7DdsQGn8tEAkkYTB1RhSQJUnw0DQtZDBkX5S
QHGXgkCFzaTB

>  <OMEGA_E>  (16) 
YNxCPrh5zT4=

>  <OMEGA_NBR>  (16) 
     20501

$$$$
50209162
     RDKit          3D

 87 89  0  0  1  0  0  0  0  0999 V2000
    6.8777   -0.0938  -16.7462 C   0  0  0  0  0  0  0  0  0  0  0  0
    8.4490    1.5291  -15.8261 C   0  0  0  0  0  0  0  0  0  0  0  0
    8.1832   -0.6468  -14.7599 C   0  0  0  0  0  0  0  0  0  0  0  0
    6.8050    1.2473  -21.5415 C   0  0  0  0  0  0  0  0  0  0  0  0
    5.2112   -0.4208  -20.7357 C   0  0  0  0  0  0  0  0  0  0  0  0
    7.3088   -1.1265  -21.7621 C   0  0  0  0  0  0  0  0  0  0  0  0
    7.4852    1.1785  -16.7948 C   0  0  0  0  0  0  0  0  0  0  0  0
    7.2424   -1.0115  -15.7389 C   0  0  0  0  0  0  0  0  0  0  0  0
    8.8033    0.6145  -14.8157 C   0  0  0  0  0  0  0  0  0  0  0  0
    5.5730    0.9265  -20.9297 C   0  0  0  0  0  0  0  0  0  0  0  0
    7.6744    0.2211  -21.9505 C   0  0  0  0  0  0  0  0  0  0  0  0
    6.0728   -1.4452  -21.1651 C   0  0  0  0  0  0  0  0  0  0  0  0
    7.1131    2.1323  -17.8468 C   0  0  0  0  0  0  0  0  0  0  0  0
    6.6271   -2.3416  -15.6969 C   0  0  0  0  0  0  0  0  0  0  0  0
    5.5994    7.7626  -17.2322 C   0  0  0  0  0  0  0  0  0  0  0  0
    6.1359    5.8106  -18.7374 C   0  0  0  0  0  0  0  0  0  0  0  0
    4.5483    6.9024  -16.5253 C   0  0  0  0  0  0  0  0  0  0  0  0
    6.7144    6.8694  -17.8102 C   0  0  1  0  0  0  0  0  0  0  0  0
    5.0561    4.9891  -17.9928 C   0  0  2  0  0  0  0  0  0  0  0  0
    9.8032    1.0080  -13.7553 C   0  0  0  0  0  0  0  0  0  0  0  0
    3.1298   -4.2159  -17.7022 C   0  0  0  0  0  0  0  0  0  0  0  0
    9.3560   -4.3736  -16.7629 C   0  0  0  0  0  0  0  0  0  0  0  0
    9.8056    8.5506  -19.0617 C   0  0  0  0  0  0  0  0  0  0  0  0
    8.8771    8.6456  -16.7333 C   0  0  0  0  0  0  0  0  0  0  0  0
    4.6376    2.0235  -20.4844 C   0  0  0  0  0  0  0  0  0  0  0  0
    4.4060   -3.3892  -17.7147 C   0  0  0  0  0  0  0  0  0  0  0  0
    8.5481   -4.1961  -18.0596 C   0  0  0  0  0  0  0  0  0  0  0  0
    5.5405   -4.1441  -17.0091 C   0  0  0  0  0  0  0  0  0  0  0  0
    7.5914   -3.0001  -17.9427 C   0  0  0  0  0  0  0  0  0  0  0  0
    4.3553    3.9886  -18.9244 C   0  0  2  0  0  0  0  0  0  0  0  0
    5.3353    2.9318  -19.4593 C   0  0  1  0  0  0  0  0  0  0  0  0
    8.9264    7.8242  -18.0360 C   0  0  0  0  0  0  0  0  0  0  0  0
    5.8175    2.1024  -18.3454 N   0  0  0  0  0  0  0  0  0  0  0  0
    6.6371   -3.1875  -16.8200 N   0  0  0  0  0  0  0  0  0  0  0  0
    4.0172    5.8960  -17.4590 N   0  0  0  0  0  0  0  0  0  0  0  0
    7.9411    2.9347  -18.2642 O   0  0  0  0  0  0  0  0  0  0  0  0
    6.0152   -2.6568  -14.6816 O   0  0  0  0  0  0  0  0  0  0  0  0
    3.7636    4.6980  -20.0142 O   0  0  0  0  0  0  0  0  0  0  0  0
    7.6084    7.6781  -18.5923 O   0  0  0  0  0  0  0  0  0  0  0  0
    8.8481    0.5302  -22.5458 F   0  0  0  0  0  0  0  0  0  0  0  0
    5.7030   -2.7364  -21.0253 F   0  0  0  0  0  0  0  0  0  0  0  0
    6.1334   -0.3652  -17.4802 H   0  0  0  0  0  0  0  0  0  0  0  0
    8.9166    2.5020  -15.8596 H   0  0  0  0  0  0  0  0  0  0  0  0
    8.4299   -1.3351  -13.9650 H   0  0  0  0  0  0  0  0  0  0  0  0
    7.0791    2.2807  -21.6951 H   0  0  0  0  0  0  0  0  0  0  0  0
    4.2741   -0.6663  -20.2582 H   0  0  0  0  0  0  0  0  0  0  0  0
    7.9763   -1.9156  -22.0754 H   0  0  0  0  0  0  0  0  0  0  0  0
    5.1214    8.3223  -18.0496 H   0  0  0  0  0  0  0  0  0  0  0  0
    6.0364    8.4687  -16.5108 H   0  0  0  0  0  0  0  0  0  0  0  0
    5.6826    6.3004  -19.6119 H   0  0  0  0  0  0  0  0  0  0  0  0
    6.9406    5.1383  -19.0698 H   0  0  0  0  0  0  0  0  0  0  0  0
    5.0099    6.3950  -15.6654 H   0  0  0  0  0  0  0  0  0  0  0  0
    3.7269    7.5445  -16.1745 H   0  0  0  0  0  0  0  0  0  0  0  0
    7.2527    6.3808  -16.9847 H   0  0  0  0  0  0  0  0  0  0  0  0
    5.5320    4.4393  -17.1674 H   0  0  0  0  0  0  0  0  0  0  0  0
    9.2781    1.4836  -12.9139 H   0  0  0  0  0  0  0  0  0  0  0  0
   10.3309    0.1113  -13.3983 H   0  0  0  0  0  0  0  0  0  0  0  0
   10.5296    1.7158  -14.1812 H   0  0  0  0  0  0  0  0  0  0  0  0
    2.3278   -3.6610  -18.2112 H   0  0  0  0  0  0  0  0  0  0  0  0
    3.3048   -5.1683  -18.2241 H   0  0  0  0  0  0  0  0  0  0  0  0
    2.8334   -4.4168  -16.6621 H   0  0  0  0  0  0  0  0  0  0  0  0
   10.0337   -5.2338  -16.8673 H   0  0  0  0  0  0  0  0  0  0  0  0
    9.9446   -3.4645  -16.5703 H   0  0  0  0  0  0  0  0  0  0  0  0
    8.6675   -4.5493  -15.9232 H   0  0  0  0  0  0  0  0  0  0  0  0
    9.8426    7.9663  -19.9929 H   0  0  0  0  0  0  0  0  0  0  0  0
    9.3821    9.5444  -19.2691 H   0  0  0  0  0  0  0  0  0  0  0  0
   10.8229    8.6625  -18.6585 H   0  0  0  0  0  0  0  0  0  0  0  0
    8.2471    8.1269  -15.9958 H   0  0  0  0  0  0  0  0  0  0  0  0
    9.8951    8.7574  -16.3318 H   0  0  0  0  0  0  0  0  0  0  0  0
    8.4542    9.6393  -16.9424 H   0  0  0  0  0  0  0  0  0  0  0  0
    4.3387    2.6228  -21.3570 H   0  0  0  0  0  0  0  0  0  0  0  0
    3.7447    1.5751  -20.0242 H   0  0  0  0  0  0  0  0  0  0  0  0
    4.6973   -3.1885  -18.7562 H   0  0  0  0  0  0  0  0  0  0  0  0
    4.2259   -2.4370  -17.1943 H   0  0  0  0  0  0  0  0  0  0  0  0
    9.2411   -4.0239  -18.8963 H   0  0  0  0  0  0  0  0  0  0  0  0
    7.9640   -5.1087  -18.2492 H   0  0  0  0  0  0  0  0  0  0  0  0
    5.1954   -4.5209  -16.0350 H   0  0  0  0  0  0  0  0  0  0  0  0
    5.8772   -4.9873  -17.6301 H   0  0  0  0  0  0  0  0  0  0  0  0
    8.1782   -2.0864  -17.7670 H   0  0  0  0  0  0  0  0  0  0  0  0
    7.0268   -2.8985  -18.8812 H   0  0  0  0  0  0  0  0  0  0  0  0
    3.5723    3.4724  -18.3494 H   0  0  0  0  0  0  0  0  0  0  0  0
    6.1819    3.4390  -19.9450 H   0  0  0  0  0  0  0  0  0  0  0  0
    9.3638    6.8381  -17.8213 H   0  0  0  0  0  0  0  0  0  0  0  0
    5.1680    1.4737  -17.9176 H   0  0  0  0  0  0  0  0  0  0  0  0
    3.3327    5.3473  -16.9790 H   0  0  0  0  0  0  0  0  0  0  0  0
    3.5856    6.3709  -18.2260 H   0  0  0  0  0  0  0  0  0  0  0  0
    3.3286    4.0837  -20.5937 H   0  0  0  0  0  0  0  0  0  0  0  0
  1  7  2  0
  1  8  1  0
  2  7  1  0
  2  9  2  0
  3  8  2  0
  3  9  1  0
  4 10  2  0
  4 11  1  0
  5 10  1  0
  5 12  2  0
  6 11  2  0
  6 12  1  0
  7 13  1  0
  8 14  1  0
  9 20  1  0
 10 25  1  0
 11 40  1  0
 12 41  1  0
 13 33  1  0
 13 36  2  0
 14 34  1  0
 14 37  2  0
 15 17  1  0
 15 18  1  0
 16 18  1  0
 16 19  1  0
 17 35  1  0
 18 39  1  0
 19 30  1  0
 19 35  1  0
 21 26  1  0
 22 27  1  0
 23 32  1  0
 24 32  1  0
 25 31  1  0
 26 28  1  0
 27 29  1  0
 28 34  1  0
 29 34  1  0
 30 31  1  0
 30 38  1  0
 31 33  1  0
 32 39  1  0
  1 42  1  0
  2 43  1  0
  3 44  1  0
  4 45  1  0
  5 46  1  0
  6 47  1  0
 15 48  1  0
 15 49  1  0
 16 50  1  0
 16 51  1  0
 17 52  1  0
 17 53  1  0
 18 54  1  1
 19 55  1  1
 20 56  1  0
 20 57  1  0
 20 58  1  0
 21 59  1  0
 21 60  1  0
 21 61  1  0
 22 62  1  0
 22 63  1  0
 22 64  1  0
 23 65  1  0
 23 66  1  0
 23 67  1  0
 24 68  1  0
 24 69  1  0
 24 70  1  0
 25 71  1  0
 25 72  1  0
 26 73  1  0
 26 74  1  0
 27 75  1  0
 27 76  1  0
 28 77  1  0
 28 78  1  0
 29 79  1  0
 29 80  1  0
 30 81  1  1
 31 82  1  6
 32 83  1  0
 33 84  1  0
 35 85  1  0
 35 86  1  0
 38 87  1  0
M  CHG  1  35   1
M  END
>  <OMEGA_C>  (17) 
1xXcQNYawL0w+IXB+C4HQQS4wz/MN33Bje4CQRSVJb9wKGzBzsLZQM6onz8YVazBPMKmQLN0177I
4qXByOHpQIgwkL/JGK7BJofvQBTalj+oW4bBWsHnQGB3gb9z0nvBPNoMQY1NHT8HDW3B4lWyQGkv
bT8OcKfBc5T1QGhfYj6mmq/BDFTCQPr6uL8nUqnBsJ7jQDV3CEBAxo7BjhHUQMDcFcCiJnvBhi6z
QCFn+EB224nBS1nEQMjwuUA15pXBnIuRQHPg3EDUM4TBXNzWQILS20A6e47BgsuhQHamn0A78Y/B
7dkcQYIGgT/nFVzB/U1IQKTohsAYno3BJbIVQbX0i8BSGobBweMcQWbPCEFOfpjBsggOQXhUCkHb
3YXBC2eUQD+AAUD136PBqP2MQNjoWMC6t43B7MQIQXBGhsAlepDBKkyxQCWchMCZEojBEe3yQCgC
QMC0io/BZl6LQJNEf0ATZZfBibqqQAqjO0CwrJvBaNIOQTJg+kCtSZDBkCi6QAyNBkBow5LBKWPU
QOP/S8Bnj4bBtoyAQDmsvEAarIvBxR3+QMTSO0AUHZLBZHzAQH4IKsC852rBJN9wQFhWlkD+HKDB
FXjzQGez9UAJvZTB8ZENQTS4Bz/bXbTB+362QF0hL8DYM6jBlETEQO76ur5x14vBT6oOQbcgIEDW
wH3B2OAGQRblqr+4cF/BmYfiQC72EUCSj63Bn8WIQHeTKr/hEKLBkj3/QHkz9b9hmrDBkeKjQEIo
BUGNZZDBUirBQOF/B0EHFoTBBdi1QJecyUAi5ZzBOBneQCNtpEDujpjBTFGgQLyjzECApXrBcIVu
QEhs8UBqZYHBfhboQLwvzECf4IfB6wWxQPkOjkDEVonBEHMUQb3nvT9Tn07BdUslQW774z2TX1bB
ZnkoQU+e2z9O5mLBavsUQKNOasCEsJHBToJTQHtipcDcypHB5FU1QHNWjcD9S4XB/YkgQeN6p8Ay
8IbB+hwfQU+6XcAMkITB5q0KQfWTkcBXxX7BJHsdQQns/kB68Z/B7BwWQei1GEEVJ5rBvCotQZaZ
CkGoRJXBG/QDQdIHAkGl7n/BU1IeQWUeDEGGp4LBhEQHQbg6GkHziYfBptaKQGTbJ0Af26rBnKhv
QGKdyT+nMaDBglCWQJwPTMDMDJbBTTqHQIv3G8DtjYnBktsTQfzDgMC1K5fB/Nj+QMp6o8BU/pHB
xECmQJqrkMCuR4DBERK8QKWXn8B2Co3BxdkCQduHBcDVIo7BVtvgQJ2AOcDLDJfBcqBkQI48XkCU
y5LBLdLFQGEZXEB2j5/BP9IVQXTR2kADko7BlWClQL+hvD84V4/BU0tVQDQdq0D51IfBU3plQCPe
y0DgzpHBKQhVQIWtgkDZv6TBFjjcQNjuLb4LuIXBTgQIQU9UtD/2vHzBn6QCQWfOQb/qmmvByiLa
QNHtkT/ot6vB1mWkQO9b7b5Nm6XBuvrnQO9FoL+YCa3BIdrwQGJIiz+CHobBx0zmQLlYi7+0FHvB
pjcNQQxH+T5miWzB4a+xQMjhXT+rLafBgVX1QM46pD38l67Bd3a/QCDKwr8JkajBJ33kQOw/BUAB
QI7BRoTMQJ/cE8B/k3jBSGWxQFwB+UBwdovBmxzFQLfhuEBmbJbBFhiTQORo3UAlyoTBbcrWQHEs
3UCwk4/BByekQHlbnkDp34/Bud4cQTIlYT8JNVvBqHCCQGYMTcA4jY3BFuEQQR/He8BDepjBc0Yb
QbC+DUFg45jBX5IIQcesEEEHRYfBZQKVQANb/z/OsqPBchucQEOCkMAjx4zB1YEBQWsaR8Anm5HB
jB+3QH6Jk8BpaILBJq4AQbWhbcDXTobBIfGMQLFoekCa0ZbBDwisQE+pN0AKX5vB4iwNQRnEAUGt
0JDBgsC7QDqqAECeqZLBJkTXQOFlYcAXSoHBzm2CQM5jukDFaYvBYmL9QBuGPkDgwZDBfDesQMDX
DsApiW3BMoBuQHPBkkBuU5/B91DzQNRl9kCIGZbBdR4OQWpQrz4I1rLBHZKyQAwDM8D6CqfB4qrE
QNbl2r5VsovBGv8PQVpuF0DrTn3BT24GQdV7ur8/AF/BqCXkQExZCkBn+qzBM3SFQECOK7/DIaLB
5878QG1QBMDGRa/BIuafQPFEA0HdTpLBVBO+QK2QCUFCfYbBWky1QJVZxkAmh53Bq4vfQBXyo0Cv
8pjBqYmkQG8M0EBR1HvBc6xwQAcn8UAx54HBkAjoQJWkz0DmsIjBdwK1QK/MjUAeWonBRjkUQaKL
rz9/DU7BavckQeBepLyVHlXBsNEoQWNOyT9B1mHBHPhfQE5vTMBzC5XBDNVYQN1kSMAutobBd5iY
QGBZFsDPco3BB48RQbSQYMAilqDBA/EgQR5cesBy4pTBDDMLQXIpn8Bc55jB4K8eQVRFA0FawJ/B
r9sSQW4pHEHKrJvBfGMqQfVkEkEmBpXBv+78QNRGCEE7aoHBdr8XQZRQFUHpdoPBqTcAQQ0VH0GN
HYrBIKaMQDYHJ0CNsKrBYVNvQPJTyj8FJaDB0ZKFQHOKq8Ba9ozBwsCxQLSEksD7spPB2SsHQQmL
BMCQKZHBw9viQM+BSMB7LpXBkFChQJsmksCcBHfBeBbIQBthssATaYLBDwwEQddNmcDt0obBIe0M
QUuATsDOU4HBU/BqQNPtWEAZxZHBSwDHQBCzWEAKPJ/Bte0VQadM50C6543Bo6mnQMmjqT/YtI/B
YM1dQHCFqEDh6obB8NdjQBMTx0AifZHBJZpRQFzFfEC+qKPB

>  <OMEGA_E>  (17) 
gNRyPoTPsD4=

>  <OMEGA_NBR>  (17) 
     23531

$$$$
50209145
     RDKit          3D

 97100  0  0  1  0  0  0  0  0999 V2000
    6.9002   -0.0616  -16.7040 C   0  0  0  0  0  0  0  0  0  0  0  0
    8.5619    1.5145  -15.8565 C   0  0  0  0  0  0  0  0  0  0  0  0
    8.1904   -0.6029  -14.7067 C   0  0  0  0  0  0  0  0  0  0  0  0
    6.8145    1.0764  -21.5598 C   0  0  0  0  0  0  0  0  0  0  0  0
    5.2139   -0.4802  -20.5638 C   0  0  0  0  0  0  0  0  0  0  0  0
    7.2684   -1.3182  -21.5725 C   0  0  0  0  0  0  0  0  0  0  0  0
    7.5685    1.1788  -16.8038 C   0  0  0  0  0  0  0  0  0  0  0  0
    7.2077   -0.9487  -15.6541 C   0  0  0  0  0  0  0  0  0  0  0  0
    8.8822    0.6177  -14.8172 C   0  0  0  0  0  0  0  0  0  0  0  0
    5.5918    0.8331  -20.9009 C   0  0  0  0  0  0  0  0  0  0  0  0
    7.6536   -0.0001  -21.8934 C   0  0  0  0  0  0  0  0  0  0  0  0
    6.0489   -1.5559  -20.9054 C   0  0  0  0  0  0  0  0  0  0  0  0
    7.2005    2.1243  -17.8707 C   0  0  0  0  0  0  0  0  0  0  0  0
    6.4323   -2.1862  -15.4799 C   0  0  0  0  0  0  0  0  0  0  0  0
   11.9752    9.9044  -19.2281 C   0  0  0  0  0  0  0  0  0  0  0  0
   11.2486   10.7008  -18.1265 C   0  0  0  0  0  0  0  0  0  0  0  0
   10.9738    9.2429  -20.1938 C   0  0  0  0  0  0  0  0  0  0  0  0
   10.2900    9.7962  -17.3554 C   0  0  0  0  0  0  0  0  0  0  0  0
   10.0180    8.3306  -19.4257 C   0  0  0  0  0  0  0  0  0  0  0  0
    5.4726    7.6284  -17.1437 C   0  0  0  0  0  0  0  0  0  0  0  0
    6.1202    5.7572  -18.7012 C   0  0  0  0  0  0  0  0  0  0  0  0
    4.4419    6.7224  -16.4905 C   0  0  0  0  0  0  0  0  0  0  0  0
    9.2967    9.1395  -18.3214 C   0  0  0  0  0  0  0  0  0  0  0  0
    6.6233    6.7646  -17.6949 C   0  0  1  0  0  0  0  0  0  0  0  0
    5.0482    4.8919  -18.0169 C   0  0  2  0  0  0  0  0  0  0  0  0
    9.9026    1.0014  -13.7698 C   0  0  0  0  0  0  0  0  0  0  0  0
    3.6655   -3.0763  -17.4907 C   0  0  0  0  0  0  0  0  0  0  0  0
    9.6813   -4.3295  -17.9314 C   0  0  0  0  0  0  0  0  0  0  0  0
    4.7023    1.9796  -20.5206 C   0  0  0  0  0  0  0  0  0  0  0  0
    8.4318    8.2312  -17.4990 C   0  0  0  0  0  0  0  0  0  0  0  0
    4.4662   -4.3910  -17.4520 C   0  0  0  0  0  0  0  0  0  0  0  0
    8.6982   -3.9054  -16.8462 C   0  0  0  0  0  0  0  0  0  0  0  0
    5.5178   -4.3706  -16.3304 C   0  0  0  0  0  0  0  0  0  0  0  0
    7.4569   -3.2684  -17.4882 C   0  0  0  0  0  0  0  0  0  0  0  0
    4.4018    3.9242  -18.9982 C   0  0  2  0  0  0  0  0  0  0  0  0
    5.4111    2.8905  -19.5078 C   0  0  1  0  0  0  0  0  0  0  0  0
    5.9038    2.0836  -18.3764 N   0  0  0  0  0  0  0  0  0  0  0  0
    6.4052   -3.1903  -16.4643 N   0  0  0  0  0  0  0  0  0  0  0  0
    3.9694    5.7442  -17.4770 N   0  0  0  0  0  0  0  0  0  0  0  0
    8.0276    2.9252  -18.2929 O   0  0  0  0  0  0  0  0  0  0  0  0
    5.8128   -2.3199  -14.4307 O   0  0  0  0  0  0  0  0  0  0  0  0
    3.8532    4.6584  -20.0955 O   0  0  0  0  0  0  0  0  0  0  0  0
    7.5285    7.5893  -18.3754 O   0  0  0  0  0  0  0  0  0  0  0  0
    8.8258    0.2327  -22.5249 F   0  0  0  0  0  0  0  0  0  0  0  0
    5.6810   -2.8157  -20.5859 F   0  0  0  0  0  0  0  0  0  0  0  0
    6.1516   -0.3305  -17.4346 H   0  0  0  0  0  0  0  0  0  0  0  0
    9.0772    2.4608  -15.9290 H   0  0  0  0  0  0  0  0  0  0  0  0
    8.4138   -1.2765  -13.8926 H   0  0  0  0  0  0  0  0  0  0  0  0
    7.1051    2.0868  -21.8072 H   0  0  0  0  0  0  0  0  0  0  0  0
    4.2844   -0.6599  -20.0440 H   0  0  0  0  0  0  0  0  0  0  0  0
    7.9082   -2.1467  -21.8380 H   0  0  0  0  0  0  0  0  0  0  0  0
   12.6228   10.5881  -19.7966 H   0  0  0  0  0  0  0  0  0  0  0  0
   12.5901    9.1224  -18.7586 H   0  0  0  0  0  0  0  0  0  0  0  0
   11.9920   11.1169  -17.4307 H   0  0  0  0  0  0  0  0  0  0  0  0
   10.6794   11.5209  -18.5885 H   0  0  0  0  0  0  0  0  0  0  0  0
   10.3948   10.0246  -20.7073 H   0  0  0  0  0  0  0  0  0  0  0  0
   11.5252    8.6475  -20.9364 H   0  0  0  0  0  0  0  0  0  0  0  0
   10.8646    9.0145  -16.8368 H   0  0  0  0  0  0  0  0  0  0  0  0
    9.7377   10.3960  -16.6170 H   0  0  0  0  0  0  0  0  0  0  0  0
    9.2728    7.9149  -20.1198 H   0  0  0  0  0  0  0  0  0  0  0  0
   10.5875    7.5102  -18.9646 H   0  0  0  0  0  0  0  0  0  0  0  0
    5.0035    8.1867  -17.9673 H   0  0  0  0  0  0  0  0  0  0  0  0
    5.8665    8.3356  -16.3989 H   0  0  0  0  0  0  0  0  0  0  0  0
    5.6824    6.2795  -19.5646 H   0  0  0  0  0  0  0  0  0  0  0  0
    6.9517    5.1218  -19.0401 H   0  0  0  0  0  0  0  0  0  0  0  0
    4.9001    6.1962  -15.6402 H   0  0  0  0  0  0  0  0  0  0  0  0
    3.5938    7.3257  -16.1345 H   0  0  0  0  0  0  0  0  0  0  0  0
    8.6774    9.9179  -18.7911 H   0  0  0  0  0  0  0  0  0  0  0  0
    7.1128    6.2401  -16.8611 H   0  0  0  0  0  0  0  0  0  0  0  0
    5.5159    4.3211  -17.2011 H   0  0  0  0  0  0  0  0  0  0  0  0
    9.4024    1.5343  -12.9477 H   0  0  0  0  0  0  0  0  0  0  0  0
   10.3851    0.0937  -13.3782 H   0  0  0  0  0  0  0  0  0  0  0  0
   10.6633    1.6552  -14.2213 H   0  0  0  0  0  0  0  0  0  0  0  0
    2.9234   -3.1221  -18.3014 H   0  0  0  0  0  0  0  0  0  0  0  0
    3.1501   -2.9325  -16.5296 H   0  0  0  0  0  0  0  0  0  0  0  0
    4.3512   -2.2347  -17.6686 H   0  0  0  0  0  0  0  0  0  0  0  0
   10.5680   -4.7848  -17.4661 H   0  0  0  0  0  0  0  0  0  0  0  0
    9.1998   -5.0614  -18.5966 H   0  0  0  0  0  0  0  0  0  0  0  0
    9.9856   -3.4481  -18.5151 H   0  0  0  0  0  0  0  0  0  0  0  0
    4.4550    2.5612  -21.4209 H   0  0  0  0  0  0  0  0  0  0  0  0
    3.7776    1.5881  -20.0715 H   0  0  0  0  0  0  0  0  0  0  0  0
    9.0545    7.4822  -16.9881 H   0  0  0  0  0  0  0  0  0  0  0  0
    7.8765    8.8176  -16.7521 H   0  0  0  0  0  0  0  0  0  0  0  0
    3.7734   -5.2277  -17.2786 H   0  0  0  0  0  0  0  0  0  0  0  0
    4.9744   -4.5298  -18.4176 H   0  0  0  0  0  0  0  0  0  0  0  0
    8.3955   -4.7875  -16.2628 H   0  0  0  0  0  0  0  0  0  0  0  0
    9.1813   -3.1743  -16.1813 H   0  0  0  0  0  0  0  0  0  0  0  0
    5.0068   -4.3294  -15.3572 H   0  0  0  0  0  0  0  0  0  0  0  0
    6.1243   -5.2865  -16.3877 H   0  0  0  0  0  0  0  0  0  0  0  0
    7.7007   -2.2589  -17.8507 H   0  0  0  0  0  0  0  0  0  0  0  0
    7.1130   -3.8872  -18.3301 H   0  0  0  0  0  0  0  0  0  0  0  0
    3.5963    3.3883  -18.4749 H   0  0  0  0  0  0  0  0  0  0  0  0
    6.2478    3.4064  -20.0016 H   0  0  0  0  0  0  0  0  0  0  0  0
    5.2570    1.4591  -17.9385 H   0  0  0  0  0  0  0  0  0  0  0  0
    3.2887    5.1562  -17.0401 H   0  0  0  0  0  0  0  0  0  0  0  0
    3.5452    6.2383  -18.2359 H   0  0  0  0  0  0  0  0  0  0  0  0
    3.4492    4.0564  -20.7095 H   0  0  0  0  0  0  0  0  0  0  0  0
  1  7  2  0
  1  8  1  0
  2  7  1  0
  2  9  2  0
  3  8  2  0
  3  9  1  0
  4 10  2  0
  4 11  1  0
  5 10  1  0
  5 12  2  0
  6 11  2  0
  6 12  1  0
  7 13  1  0
  8 14  1  0
  9 26  1  0
 10 29  1  0
 11 44  1  0
 12 45  1  0
 13 37  1  0
 13 40  2  0
 14 38  1  0
 14 41  2  0
 15 16  1  0
 15 17  1  0
 16 18  1  0
 17 19  1  0
 18 23  1  0
 19 23  1  0
 20 22  1  0
 20 24  1  0
 21 24  1  0
 21 25  1  0
 22 39  1  0
 23 30  1  0
 24 43  1  0
 25 35  1  0
 25 39  1  0
 27 31  1  0
 28 32  1  0
 29 36  1  0
 30 43  1  0
 31 33  1  0
 32 34  1  0
 33 38  1  0
 34 38  1  0
 35 36  1  0
 35 42  1  0
 36 37  1  0
  1 46  1  0
  2 47  1  0
  3 48  1  0
  4 49  1  0
  5 50  1  0
  6 51  1  0
 15 52  1  0
 15 53  1  0
 16 54  1  0
 16 55  1  0
 17 56  1  0
 17 57  1  0
 18 58  1  0
 18 59  1  0
 19 60  1  0
 19 61  1  0
 20 62  1  0
 20 63  1  0
 21 64  1  0
 21 65  1  0
 22 66  1  0
 22 67  1  0
 23 68  1  0
 24 69  1  1
 25 70  1  1
 26 71  1  0
 26 72  1  0
 26 73  1  0
 27 74  1  0
 27 75  1  0
 27 76  1  0
 28 77  1  0
 28 78  1  0
 28 79  1  0
 29 80  1  0
 29 81  1  0
 30 82  1  0
 30 83  1  0
 31 84  1  0
 31 85  1  0
 32 86  1  0
 32 87  1  0
 33 88  1  0
 33 89  1  0
 34 90  1  0
 34 91  1  0
 35 92  1  1
 36 93  1  6
 37 94  1  0
 39 95  1  0
 39 96  1  0
 42 97  1  0
M  CHG  1  39   1
M  END
>  <OMEGA_C>  (18) 
Qc7cQHBdfL3eoYXBdf0IQQ7awT9GtH3BwwsDQe9WGr99TmvByhDaQPTHiT98eqzBMtimQLji9b6m
gqTBbpboQHq5qL9rlKzBXzHyQH7klj9BbobBkqXmQLbdcr9Hd3rBqx0OQWchHj81E23BW/CyQGZG
VT8SNafBBOr0QAAAgbiiJa/B0JDBQPomx79PPqfBImrmQOrzB0Ah947BFNXNQPTpC8DOrXfBbpo/
QUB4HkE405nBHfozQWA2K0EMA5HBiJQvQfbiE0HajKHB76MkQQi9HEHO14rB3kkgQTRKBUHRZ5vB
ix+vQAgc9EBNJonB6tjDQCs7uEAPnJXBKCSOQKQd10Ck7IPBL78UQXQ7EkFFkpLBLvLTQOp32EAf
j43BiIqhQDWKnECIIpDBKnEeQdEsgD8ZUVzBxpdqQKfhRMAF7YvBx+YaQeeKisCGc4/BgnmWQB5j
/T8uKqTBd+gGQTOzA0EJ/ovBw+qOQAyDjMCcnYvByysLQZjyecD9xIbB6pGwQJfbi8DCpILBK5/u
QAwuUcDG54vB7duMQMUme0Bf/JfBBSitQMn9OED7D5zBPey8QMZZBUDNApPBOPfMQNwtTMDvtoPB
Ewt+QMTQt0DP0IvB3nAAQTg3O0DwV5LB1QK6QOd5FMAj5GbB0Jp2QJERlUChw6DBqOnwQIzb8kC7
AJPBRzYNQds8bj4QM7TBEcu1QIk0NMDZr6TBiNnEQBAzqb4AeovBBzwRQYh+HUAq3X7BBp8GQa1j
o7/4R17B51zjQF6NBUAjda7BGBqJQDXvKL8DWqDBGBD9QMZjCcAntK7BK/dJQbtoKUFXX57B43BJ
QU31EUGWEZbBMN8/Qf7eMUEScovBrd4qQXdVOEFEtZTBDlEmQdZkIEGUqKXBQGc4QU9cCkGsfafB
fNUtQXw7EEHPsYbBlc0bQeJVJkGu74TBkV0UQXtG/UBr9aDBfGYpQYhT8ECFt5fBCB2gQNP8AkH+
vI/Brbq7QK5eBUEAMYPB/tW1QALyyEBPhJzBPHTeQI3lo0AxUpjBqs2cQORGxkAYPnrBawFmQERs
6kCNE4HB1dYKQeivHkEvVJbBTpzjQJSux0CJ44bBkYKwQNlGikDcm4nBYXAWQbhkxD/7KU/BKykm
QVXNvz1ADVbB4JwqQcnd0z+KimPBvBg7QAPQR8A5aZLBZJtJQDyuO8C2PITBoDyLQBwFD8BJWY3B
bRYpQR0dmcCCuovBcjITQbP2ocDHxZTB4MQfQa2tXMDdHpTBo4+OQC7rI0D9XavB18RxQFtFyz+I
kqDBHt8QQfJt70CK54fBBQz8QM0UDUFdBIbBIH9xQApJp8CXOorBfi6fQHr0kMApV5PBGFQGQXcz
mcBLGoLBhuYSQTQnS8Bgc4HB2TegQECKisAkt3XBffrDQJsqqcDzGYPBBWz2QKuREMAqzo7Byp3j
QDrIeMAFpJLBaSlmQBPaWECqzJPB5O3HQPcBWkBdA6DBjDmoQGbFuj8kgo/Bv3pSQIn/pEAMUojB
6ORiQMqfx0Af45HBnL9cQDvOgUD2rKXB

>  <OMEGA_E>  (18) 
tGW4Pg==

>  <OMEGA_NBR>  (18) 
     25430

$$$$
50147876
     RDKit          3D

 90 93  0  0  1  0  0  0  0  0999 V2000
    5.5414   10.2045  -21.7889 C   0  0  0  0  0  0  0  0  0  0  0  0
    6.0456    8.9250  -22.0966 C   0  0  0  0  0  0  0  0  0  0  0  0
    5.7341   10.7490  -20.5035 C   0  0  0  0  0  0  0  0  0  0  0  0
    6.7442    8.1899  -21.1196 C   0  0  0  0  0  0  0  0  0  0  0  0
    6.4296   10.0141  -19.5249 C   0  0  0  0  0  0  0  0  0  0  0  0
    6.8516   -0.0287  -16.7684 C   0  0  0  0  0  0  0  0  0  0  0  0
    8.4299    1.5806  -15.8299 C   0  0  0  0  0  0  0  0  0  0  0  0
    8.1605   -0.6091  -14.7940 C   0  0  0  0  0  0  0  0  0  0  0  0
    6.7711    1.0387  -21.3819 C   0  0  0  0  0  0  0  0  0  0  0  0
    4.9467   -0.4458  -20.7183 C   0  0  0  0  0  0  0  0  0  0  0  0
    7.0548   -1.3788  -21.5148 C   0  0  0  0  0  0  0  0  0  0  0  0
    7.4662    1.2439  -16.8052 C   0  0  0  0  0  0  0  0  0  0  0  0
    7.2218   -0.9653  -15.7809 C   0  0  0  0  0  0  0  0  0  0  0  0
    6.9347    8.7298  -19.8271 C   0  0  0  0  0  0  0  0  0  0  0  0
    8.7532    0.6669  -14.8081 C   0  0  0  0  0  0  0  0  0  0  0  0
    5.4597    0.8551  -20.8897 C   0  0  0  0  0  0  0  0  0  0  0  0
    7.5717   -0.0783  -21.6807 C   0  0  0  0  0  0  0  0  0  0  0  0
    5.7387   -1.5601  -21.0433 C   0  0  0  0  0  0  0  0  0  0  0  0
    7.0864    2.2148  -17.8442 C   0  0  0  0  0  0  0  0  0  0  0  0
    6.6246   -2.3110  -15.7565 C   0  0  0  0  0  0  0  0  0  0  0  0
    5.4974    7.8205  -17.2970 C   0  0  0  0  0  0  0  0  0  0  0  0
    6.0472    5.9104  -18.8595 C   0  0  0  0  0  0  0  0  0  0  0  0
    4.5698    6.8827  -16.5195 C   0  0  0  0  0  0  0  0  0  0  0  0
    6.6413    7.0063  -17.9536 C   0  0  1  0  0  0  0  0  0  0  0  0
    5.0639    5.0237  -18.0550 C   0  0  2  0  0  0  0  0  0  0  0  0
    9.7960    1.0249  -13.7750 C   0  0  0  0  0  0  0  0  0  0  0  0
    3.9306   -3.3484  -17.6515 C   0  0  0  0  0  0  0  0  0  0  0  0
    9.5786   -4.1028  -17.0614 C   0  0  0  0  0  0  0  0  0  0  0  0
    7.6223    7.9127  -18.7436 C   0  0  0  0  0  0  0  0  0  0  0  0
    4.6044    2.0467  -20.5277 C   0  0  0  0  0  0  0  0  0  0  0  0
    4.8900   -4.5392  -17.8400 C   0  0  0  0  0  0  0  0  0  0  0  0
    8.6792   -3.9299  -18.2988 C   0  0  0  0  0  0  0  0  0  0  0  0
    6.0336   -4.5168  -16.8110 C   0  0  0  0  0  0  0  0  0  0  0  0
    7.5759   -2.8913  -18.0393 C   0  0  0  0  0  0  0  0  0  0  0  0
    4.3446    3.9961  -18.9457 C   0  0  2  0  0  0  0  0  0  0  0  0
    5.3237    2.9515  -19.5080 C   0  0  1  0  0  0  0  0  0  0  0  0
    5.8208    2.1164  -18.4058 N   0  0  0  0  0  0  0  0  0  0  0  0
    6.7606   -3.2169  -16.8322 N   0  0  0  0  0  0  0  0  0  0  0  0
    4.0219    5.8650  -17.4308 N   0  0  0  0  0  0  0  0  0  0  0  0
    7.8619    3.1063  -18.1738 O   0  0  0  0  0  0  0  0  0  0  0  0
    6.0447   -2.6457  -14.7291 O   0  0  0  0  0  0  0  0  0  0  0  0
    3.6746    4.6693  -20.0135 O   0  0  0  0  0  0  0  0  0  0  0  0
    8.8329    0.0989  -22.1342 F   0  0  0  0  0  0  0  0  0  0  0  0
    5.2344   -2.8053  -20.8997 F   0  0  0  0  0  0  0  0  0  0  0  0
    5.0067   10.7684  -22.5390 H   0  0  0  0  0  0  0  0  0  0  0  0
    5.8963    8.5084  -23.0817 H   0  0  0  0  0  0  0  0  0  0  0  0
    5.3481   11.7301  -20.2693 H   0  0  0  0  0  0  0  0  0  0  0  0
    7.1350    7.2117  -21.3581 H   0  0  0  0  0  0  0  0  0  0  0  0
    6.5775   10.4332  -18.5406 H   0  0  0  0  0  0  0  0  0  0  0  0
    6.0972   -0.2843  -17.4978 H   0  0  0  0  0  0  0  0  0  0  0  0
    8.9208    2.5419  -15.8676 H   0  0  0  0  0  0  0  0  0  0  0  0
    8.4264   -1.3176  -14.0235 H   0  0  0  0  0  0  0  0  0  0  0  0
    7.1585    2.0361  -21.5287 H   0  0  0  0  0  0  0  0  0  0  0  0
    3.9459   -0.5864  -20.3375 H   0  0  0  0  0  0  0  0  0  0  0  0
    7.6673   -2.2369  -21.7490 H   0  0  0  0  0  0  0  0  0  0  0  0
    4.9216    8.3367  -18.0793 H   0  0  0  0  0  0  0  0  0  0  0  0
    5.9269    8.5625  -16.6079 H   0  0  0  0  0  0  0  0  0  0  0  0
    5.5099    6.3821  -19.6954 H   0  0  0  0  0  0  0  0  0  0  0  0
    6.8613    5.2843  -19.2536 H   0  0  0  0  0  0  0  0  0  0  0  0
    5.1373    6.3885  -15.7172 H   0  0  0  0  0  0  0  0  0  0  0  0
    3.7452    7.4638  -16.0809 H   0  0  0  0  0  0  0  0  0  0  0  0
    7.2091    6.5131  -17.1509 H   0  0  0  0  0  0  0  0  0  0  0  0
    5.6259    4.4887  -17.2753 H   0  0  0  0  0  0  0  0  0  0  0  0
    9.3081    1.4944  -12.9081 H   0  0  0  0  0  0  0  0  0  0  0  0
   10.3196    0.1132  -13.4516 H   0  0  0  0  0  0  0  0  0  0  0  0
   10.5200    1.7276  -14.2132 H   0  0  0  0  0  0  0  0  0  0  0  0
    3.1294   -3.3997  -18.4035 H   0  0  0  0  0  0  0  0  0  0  0  0
    3.4909   -3.3878  -16.6440 H   0  0  0  0  0  0  0  0  0  0  0  0
    4.4868   -2.4070  -17.7722 H   0  0  0  0  0  0  0  0  0  0  0  0
   10.3573   -4.8499  -17.2749 H   0  0  0  0  0  0  0  0  0  0  0  0
   10.0515   -3.1408  -16.8147 H   0  0  0  0  0  0  0  0  0  0  0  0
    8.9697   -4.4411  -16.2101 H   0  0  0  0  0  0  0  0  0  0  0  0
    8.3850    7.2759  -19.2156 H   0  0  0  0  0  0  0  0  0  0  0  0
    8.1069    8.6034  -18.0379 H   0  0  0  0  0  0  0  0  0  0  0  0
    4.3924    2.6274  -21.4376 H   0  0  0  0  0  0  0  0  0  0  0  0
    3.6593    1.6920  -20.0906 H   0  0  0  0  0  0  0  0  0  0  0  0
    4.3238   -5.4750  -17.7234 H   0  0  0  0  0  0  0  0  0  0  0  0
    5.3197   -4.4942  -18.8516 H   0  0  0  0  0  0  0  0  0  0  0  0
    9.2950   -3.5958  -19.1469 H   0  0  0  0  0  0  0  0  0  0  0  0
    8.2132   -4.8962  -18.5423 H   0  0  0  0  0  0  0  0  0  0  0  0
    5.6140   -4.6755  -15.8066 H   0  0  0  0  0  0  0  0  0  0  0  0
    6.7410   -5.3260  -17.0449 H   0  0  0  0  0  0  0  0  0  0  0  0
    8.0445   -1.9068  -17.8940 H   0  0  0  0  0  0  0  0  0  0  0  0
    6.9114   -2.8555  -18.9152 H   0  0  0  0  0  0  0  0  0  0  0  0
    3.6049    3.4685  -18.3256 H   0  0  0  0  0  0  0  0  0  0  0  0
    6.1599    3.4657  -20.0043 H   0  0  0  0  0  0  0  0  0  0  0  0
    5.2013    1.4258  -18.0326 H   0  0  0  0  0  0  0  0  0  0  0  0
    3.4037    5.2738  -16.9128 H   0  0  0  0  0  0  0  0  0  0  0  0
    3.5111    6.3284  -18.1550 H   0  0  0  0  0  0  0  0  0  0  0  0
    3.2315    4.0322  -20.5616 H   0  0  0  0  0  0  0  0  0  0  0  0
  1  2  2  0
  1  3  1  0
  2  4  1  0
  3  5  2  0
  4 14  2  0
  5 14  1  0
  6 12  2  0
  6 13  1  0
  7 12  1  0
  7 15  2  0
  8 13  2  0
  8 15  1  0
  9 16  2  0
  9 17  1  0
 10 16  1  0
 10 18  2  0
 11 17  2  0
 11 18  1  0
 12 19  1  0
 13 20  1  0
 14 29  1  0
 15 26  1  0
 16 30  1  0
 17 43  1  0
 18 44  1  0
 19 37  1  0
 19 40  2  0
 20 38  1  0
 20 41  2  0
 21 23  1  0
 21 24  1  0
 22 24  1  0
 22 25  1  0
 23 39  1  0
 24 29  1  0
 25 35  1  0
 25 39  1  0
 27 31  1  0
 28 32  1  0
 30 36  1  0
 31 33  1  0
 32 34  1  0
 33 38  1  0
 34 38  1  0
 35 36  1  0
 35 42  1  0
 36 37  1  0
  1 45  1  0
  2 46  1  0
  3 47  1  0
  4 48  1  0
  5 49  1  0
  6 50  1  0
  7 51  1  0
  8 52  1  0
  9 53  1  0
 10 54  1  0
 11 55  1  0
 21 56  1  0
 21 57  1  0
 22 58  1  0
 22 59  1  0
 23 60  1  0
 23 61  1  0
 24 62  1  1
 25 63  1  1
 26 64  1  0
 26 65  1  0
 26 66  1  0
 27 67  1  0
 27 68  1  0
 27 69  1  0
 28 70  1  0
 28 71  1  0
 28 72  1  0
 29 73  1  0
 29 74  1  0
 30 75  1  0
 30 76  1  0
 31 77  1  0
 31 78  1  0
 32 79  1  0
 32 80  1  0
 33 81  1  0
 33 82  1  0
 34 83  1  0
 34 84  1  0
 35 85  1  1
 36 86  1  6
 37 87  1  0
 39 88  1  0
 39 89  1  0
 42 90  1  0
M  CHG  1  39   1
M  END
>  <OMEGA_C>  (19) 
IFOxQMJFI0GbT67B3nXBQPrMDkHYxbDBXH23QMr7K0FEB6TBHdDXQLAJA0Hn9KjBKL/NQN85IEEB
M5zBf0DbQNRv67ylJYbB8uAGQYZQyj9UR33BNZECQUXvG78NtGzB2azYQPX0hD82DqvBg0ueQI09
5L4Ov6XBMsHhQOB7sL9SHqzBYuvuQOQ3nz8ScYbBFxnnQP8fd7+ifnzB9ejdQFOtC0HdnZ7B+AwM
Qdu7Kj/o7WzB1bWuQCDmWj8KHqfB/0ryQFdEoL0Icq3BXaO3QMKxx7+9WKjB48PiQO6/DUDewI7B
lPzTQPDmE8DUGnzBouqvQEBB+kBYYIrBioLBQNAhvUBV4JbBITySQBA/3EDdJ4TBeoXUQMYz4EAR
oY/BbQuiQBDCoECdcJDBb7wcQRkvgz9+ZlzBxY97QG9LVsBQNo3BCUIZQUtKg8DHfYjB6enzQHk0
/UDc8pXBOFeTQFb9AkCzOKTBqHqcQPZAkcA+uI7BEt4KQSiEe8ADZJLBDRPBQJWJkMDofIbBY23y
QK4LOcCBUJDB9QaLQCrAf0DKkJfBZ1uqQAjmPEBUEJzBSkS6QINzB0AeP5PBD1fYQMLhTcBrqIbB
abOAQDiuu0BacovB5JT7QBrORkD7Y5HB7G3BQAhTKcBCqmvBkixrQL1qlUC7G6DBrFMNQTWayj3l
ErHBjYCnQImJM8CBMqfBSDegQEpLLEHGT7TB2668QDkiCEFkp7jBbCOrQFOuO0F1J6LBF1LkQKDG
5kB13arBkXrSQGDuJkEWU5TBYhzDQIGJkb5l+4vBhbsOQaytIkCU4X3BstIGQf2nqL8XYGDBpBLl
QHJPAkDWOqzBpYl8QAAgFr89s6LBtFr1QNUpD8Dr/a3BEn6dQD9jBUF6opDBVKm9QO7/CEH83ITB
xVCwQGI6zEBDkJ3Boo/bQFAZqUB3B5rBJmWkQIduzEB7eXvBuLFvQJTX7kDBpYDBNrHmQJ5r0EAi
NYnBeAe0QKmjj0DDM4rB6O0UQTVHvz+rh07BRB0lQa7A5z3pOVfBu1EoQeUi3T9waWPBqUhIQEWV
WcBJOpPBe2pfQCTSWMD4JoXBtZOPQEMMGsCBLY7BaLclQUcym8AKM4rB5NIgQXcCScB+hIbB5IMP
QXkdjsA7roHBGSkGQUHU6ECMuZnB17UBQaOnCUGYTZDBho6MQOYmKEAkgKvBszJqQN6U2D9zuaDB
Q1yKQG8zr8B4yY3BuzqqQH/Qj8AB0JbBWLgUQU8iZsDPLJnBWGkDQWStnMCMVpTBLKazQICdlcDR
53zBC7bXQNpuqsABXIjBXrYAQSQT9L8DJ4/BCyrdQPG/NsBWUpfBVLdmQIb8XUC8mpLB0h3FQL/O
XUC+CKDBT3GmQCqBtj/QQpDBitZZQCHDqEB2TYfBm7ZgQDOCykBwPZHBm9FOQNAHgUAafqTB

>  <OMEGA_E>  (19) 
ANPdPA==

>  <OMEGA_NBR>  (19) 
      1787

$$$$
50209132
     RDKit          3D

 86 88  0  0  1  0  0  0  0  0999 V2000
    6.8469   -0.0284  -16.7512 C   0  0  0  0  0  0  0  0  0  0  0  0
    8.4363    1.5710  -15.8150 C   0  0  0  0  0  0  0  0  0  0  0  0
    8.1438   -0.6109  -14.7693 C   0  0  0  0  0  0  0  0  0  0  0  0
    6.7819    1.0655  -21.4012 C   0  0  0  0  0  0  0  0  0  0  0  0
    4.9928   -0.4519  -20.7169 C   0  0  0  0  0  0  0  0  0  0  0  0
    7.1072   -1.3456  -21.5442 C   0  0  0  0  0  0  0  0  0  0  0  0
    7.4722    1.2395  -16.7916 C   0  0  0  0  0  0  0  0  0  0  0  0
    7.2045   -0.9625  -15.7565 C   0  0  0  0  0  0  0  0  0  0  0  0
    8.7478    0.6591  -14.7878 C   0  0  0  0  0  0  0  0  0  0  0  0
    5.4805    0.8592  -20.8932 C   0  0  0  0  0  0  0  0  0  0  0  0
    7.5998   -0.0356  -21.7081 C   0  0  0  0  0  0  0  0  0  0  0  0
    5.8006   -1.5520  -21.0569 C   0  0  0  0  0  0  0  0  0  0  0  0
    7.0980    2.2139  -17.8311 C   0  0  0  0  0  0  0  0  0  0  0  0
    6.5948   -2.3015  -15.7244 C   0  0  0  0  0  0  0  0  0  0  0  0
    5.4671    7.8990  -17.4036 C   0  0  0  0  0  0  0  0  0  0  0  0
    6.0356    5.9928  -18.9886 C   0  0  0  0  0  0  0  0  0  0  0  0
    4.6560    6.9146  -16.5560 C   0  0  0  0  0  0  0  0  0  0  0  0
    6.6063    7.1545  -18.1423 C   0  0  1  0  0  0  0  0  0  0  0  0
    5.1284    5.0752  -18.1128 C   0  0  2  0  0  0  0  0  0  0  0  0
    9.7855    1.0140  -13.7489 C   0  0  0  0  0  0  0  0  0  0  0  0
    6.0979    8.7470  -21.0904 C   0  0  0  0  0  0  0  0  0  0  0  0
    9.5395   -4.1636  -17.0392 C   0  0  0  0  0  0  0  0  0  0  0  0
    3.9190   -3.4143  -17.7186 C   0  0  0  0  0  0  0  0  0  0  0  0
    4.6164    2.0408  -20.5140 C   0  0  0  0  0  0  0  0  0  0  0  0
    7.5025    8.1281  -18.9741 C   0  0  0  0  0  0  0  0  0  0  0  0
    6.8013    9.2453  -19.8139 C   0  0  0  0  0  0  0  0  0  0  0  0
    8.6292   -3.9703  -18.2656 C   0  0  0  0  0  0  0  0  0  0  0  0
    4.9171   -4.5800  -17.8501 C   0  0  0  0  0  0  0  0  0  0  0  0
    7.5582   -2.9009  -17.9946 C   0  0  0  0  0  0  0  0  0  0  0  0
    6.0028   -4.5154  -16.7626 C   0  0  0  0  0  0  0  0  0  0  0  0
    4.3827    4.0064  -18.9344 C   0  0  2  0  0  0  0  0  0  0  0  0
    5.3463    2.9518  -19.5029 C   0  0  1  0  0  0  0  0  0  0  0  0
    5.8388    2.1127  -18.4029 N   0  0  0  0  0  0  0  0  0  0  0  0
    6.7290   -3.2146  -16.7931 N   0  0  0  0  0  0  0  0  0  0  0  0
    4.0942    5.8770  -17.4305 N   0  0  0  0  0  0  0  0  0  0  0  0
    7.8676    3.1152  -18.1482 O   0  0  0  0  0  0  0  0  0  0  0  0
    6.0201   -2.6286  -14.6915 O   0  0  0  0  0  0  0  0  0  0  0  0
    3.6543    4.6365  -19.9889 O   0  0  0  0  0  0  0  0  0  0  0  0
    8.8584    0.1671  -22.1580 F   0  0  0  0  0  0  0  0  0  0  0  0
    5.3239   -2.8078  -20.9080 F   0  0  0  0  0  0  0  0  0  0  0  0
    6.0944   -0.2820  -17.4832 H   0  0  0  0  0  0  0  0  0  0  0  0
    8.9367    2.5272  -15.8556 H   0  0  0  0  0  0  0  0  0  0  0  0
    8.4017   -1.3184  -13.9952 H   0  0  0  0  0  0  0  0  0  0  0  0
    7.1488    2.0697  -21.5540 H   0  0  0  0  0  0  0  0  0  0  0  0
    4.0006   -0.6112  -20.3214 H   0  0  0  0  0  0  0  0  0  0  0  0
    7.7309   -2.1917  -21.7919 H   0  0  0  0  0  0  0  0  0  0  0  0
    4.8048    8.3744  -18.1421 H   0  0  0  0  0  0  0  0  0  0  0  0
    5.9008    8.6701  -16.7499 H   0  0  0  0  0  0  0  0  0  0  0  0
    5.4409    6.4059  -19.8167 H   0  0  0  0  0  0  0  0  0  0  0  0
    6.8670    5.3983  -19.3953 H   0  0  0  0  0  0  0  0  0  0  0  0
    5.3109    6.4486  -15.8050 H   0  0  0  0  0  0  0  0  0  0  0  0
    3.8401    7.4505  -16.0489 H   0  0  0  0  0  0  0  0  0  0  0  0
    7.2511    6.7063  -17.3720 H   0  0  0  0  0  0  0  0  0  0  0  0
    5.7586    4.5713  -17.3651 H   0  0  0  0  0  0  0  0  0  0  0  0
    9.2947    1.4913  -12.8879 H   0  0  0  0  0  0  0  0  0  0  0  0
   10.2997    0.0999  -13.4174 H   0  0  0  0  0  0  0  0  0  0  0  0
   10.5180    1.7091  -14.1851 H   0  0  0  0  0  0  0  0  0  0  0  0
    5.6365    9.5987  -21.6117 H   0  0  0  0  0  0  0  0  0  0  0  0
    6.8349    8.2680  -21.7518 H   0  0  0  0  0  0  0  0  0  0  0  0
    5.3200    8.0180  -20.8194 H   0  0  0  0  0  0  0  0  0  0  0  0
   10.2947   -4.9324  -17.2600 H   0  0  0  0  0  0  0  0  0  0  0  0
   10.0415   -3.2141  -16.8020 H   0  0  0  0  0  0  0  0  0  0  0  0
    8.9327   -4.4824  -16.1789 H   0  0  0  0  0  0  0  0  0  0  0  0
    3.1584   -3.4911  -18.5096 H   0  0  0  0  0  0  0  0  0  0  0  0
    3.4300   -3.4597  -16.7343 H   0  0  0  0  0  0  0  0  0  0  0  0
    4.4557   -2.4592  -17.8177 H   0  0  0  0  0  0  0  0  0  0  0  0
    4.3820    2.6212  -21.4185 H   0  0  0  0  0  0  0  0  0  0  0  0
    3.6832    1.6746  -20.0612 H   0  0  0  0  0  0  0  0  0  0  0  0
    8.1817    8.6288  -18.2684 H   0  0  0  0  0  0  0  0  0  0  0  0
    8.0884    7.5139  -19.6738 H   0  0  0  0  0  0  0  0  0  0  0  0
    7.5636    9.9817  -20.1083 H   0  0  0  0  0  0  0  0  0  0  0  0
    6.0487    9.7317  -19.1759 H   0  0  0  0  0  0  0  0  0  0  0  0
    9.2427   -3.6557  -19.1228 H   0  0  0  0  0  0  0  0  0  0  0  0
    8.1338   -4.9241  -18.4997 H   0  0  0  0  0  0  0  0  0  0  0  0
    4.3716   -5.5305  -17.7551 H   0  0  0  0  0  0  0  0  0  0  0  0
    5.3973   -4.5300  -18.8385 H   0  0  0  0  0  0  0  0  0  0  0  0
    8.0575   -1.9336  -17.8361 H   0  0  0  0  0  0  0  0  0  0  0  0
    6.8975   -2.8330  -18.8714 H   0  0  0  0  0  0  0  0  0  0  0  0
    5.5295   -4.6376  -15.7771 H   0  0  0  0  0  0  0  0  0  0  0  0
    6.7227   -5.3307  -16.9272 H   0  0  0  0  0  0  0  0  0  0  0  0
    3.6792    3.4939  -18.2618 H   0  0  0  0  0  0  0  0  0  0  0  0
    6.1850    3.4556  -20.0057 H   0  0  0  0  0  0  0  0  0  0  0  0
    5.2200    1.4165  -18.0391 H   0  0  0  0  0  0  0  0  0  0  0  0
    3.5303    5.2645  -16.8765 H   0  0  0  0  0  0  0  0  0  0  0  0
    3.5247    6.3186  -18.1237 H   0  0  0  0  0  0  0  0  0  0  0  0
    3.1948    3.9769  -20.4951 H   0  0  0  0  0  0  0  0  0  0  0  0
  1  7  2  0
  1  8  1  0
  2  7  1  0
  2  9  2  0
  3  8  2  0
  3  9  1  0
  4 10  2  0
  4 11  1  0
  5 10  1  0
  5 12  2  0
  6 11  2  0
  6 12  1  0
  7 13  1  0
  8 14  1  0
  9 20  1  0
 10 24  1  0
 11 39  1  0
 12 40  1  0
 13 33  1  0
 13 36  2  0
 14 34  1  0
 14 37  2  0
 15 17  1  0
 15 18  1  0
 16 18  1  0
 16 19  1  0
 17 35  1  0
 18 25  1  0
 19 31  1  0
 19 35  1  0
 21 26  1  0
 22 27  1  0
 23 28  1  0
 24 32  1  0
 25 26  1  0
 27 29  1  0
 28 30  1  0
 29 34  1  0
 30 34  1  0
 31 32  1  0
 31 38  1  0
 32 33  1  0
  1 41  1  0
  2 42  1  0
  3 43  1  0
  4 44  1  0
  5 45  1  0
  6 46  1  0
 15 47  1  0
 15 48  1  0
 16 49  1  0
 16 50  1  0
 17 51  1  0
 17 52  1  0
 18 53  1  1
 19 54  1  1
 20 55  1  0
 20 56  1  0
 20 57  1  0
 21 58  1  0
 21 59  1  0
 21 60  1  0
 22 61  1  0
 22 62  1  0
 22 63  1  0
 23 64  1  0
 23 65  1  0
 23 66  1  0
 24 67  1  0
 24 68  1  0
 25 69  1  0
 25 70  1  0
 26 71  1  0
 26 72  1  0
 27 73  1  0
 27 74  1  0
 28 75  1  0
 28 76  1  0
 29 77  1  0
 29 78  1  0
 30 79  1  0
 30 80  1  0
 31 81  1  1
 32 82  1  6
 33 83  1  0
 35 84  1  0
 35 85  1  0
 38 86  1  0
M  CHG  1  35   1
M  END
>  <OMEGA_C>  (20) 
1xnbQHy/6LyCAobB5foGQdAVyT8QCn3BJk0CQbRgHL84T2zBUgXZQMdiiD+0NavBSMWfQDRi575B
vKXB123jQAA7rL91WqzB3BvvQIGpnj80VYbBFovmQIhkdr+FGnzBCPcLQR+6KD/xmmzBKmCvQLDx
Wz8/JafBWDHzQMC6Eb0rqq3BJp65QFupxr+MdKjBiCLjQJ2wDUAGpo7BnwjTQEFLE8AXl3vBq/Ku
QGXE/ECTOovBWiPBQKnEv0C46JfBVv6UQIFE3UCZcoTBJGfTQOfx5EBkI5HBCRykQCpookDu5pDB
RJEcQeXKgT+x+1vB4iHDQL3zC0EkuajB3KEYQY88hcBIUIjBTtB6QJODWsC2v43B6LmTQNGcAkCb
HKTBhhTwQKIMAkHzypfBI6TZQOzsE0HVgp7BNxEKQRYZfsD2H5LBoVidQCWPksAFzY7B8tzxQJin
OcD39I/BKRfAQAV+kMC8GYbBHT+MQC80gEC7eZfBqRSrQJfqPED9BZzBbde6QMU2B0AQOZPBQlTX
QFu7TcAwWIbB6wODQBwQvECScYvBpMP7QKhfR0CIL5HB3KTAQDI7KMCOEGvB0eBpQDlelEBL6Z/B
3bsNQWwZKz5/Q7HBI12qQFOzM8CXQ6fBUAXDQPVbkL6v3YvBiPwOQYm9IUCZsH3BYm0GQW/BqL9l
7F/BKMPkQEh2BECWbqzBlgSAQNV6HL9MkqLBOGP3QDBFDMDgVa7BA8GZQF/9BUH7IpHBFdO8QNW4
CkHe/4XB1RuuQFX9zECPiJ7BWb7bQL2+rEB7KZvBO/OpQIxazkBe4XzBMsR1QCZq7kApZIDBWgno
QCWa1kDa+YrBI0a4QOhHkkDB64rBNbcUQcbjvj/9NE7BvcskQVydzD2BrVbBmUkoQSPF2j8m9mLB
MF60QDOUGUHL5KzBK7faQMRJBEGpA67BJz2qQNBJAEE4jqbBKbckQdDVncCFFIrBMKogQTSzTcCC
aobBOOwOQTdwj8BoboHBOCNKQENuX8CgE5TBN4VbQEBrXcDa34XB9ZSOQB9kHcCuio7BlTmMQLTB
J0AgWavB/rlrQFda1j9OfaDBM+gCQagPCkG8JZLBHGoBQTpy8EDlY53B1QjyQCS1H0G03aDB0o7B
QC+1G0FCaJnB9+ETQVT3acBp+5jB/yMCQUeSncBP/5PBKuSLQJT5sMBnCo7Bg7asQAP2kMA7tZbB
sOsAQemA9788sI7BFrjcQBJQNcCv+JbB1PGwQBpnlMAzb3zBWiDXQMWUqsDsaofBvndrQEWbX0BC
GJLBWOvFQGYoXUCtC6DB9gmnQC9QtT8GUJDBYfBhQN12qEANA4fBX5RhQEQyykBF/ZDBondMQK6F
fkAH9qPBKCnbQKB93bwFDYbBVQoHQfgIyT+dHn3Bg3gCQb/sHb+8g2zBdG7ZQGBAhz9aPKvBlg2g
QJgG6r5NxqXBlpvjQO10rb+XaKzBPAXvQHgcnz9BVobBqLLmQLr/dr+0QnzBVo0MQTIaJD++Gm3B
MruvQDIwWj8NMqfBnoPzQCRLPr3qsq3Bjsu5QPx3x78WgKjBfOXiQCUSDkDyoI7BzjHTQLKOE8Az
33vBgAyuQCpq+0C53YrBFhPBQDRSv0APtZfBilSUQDlj20ATM4TBWt7SQEkr5EAYxZDBesCjQHR9
oUA45JDBAXocQU5Egj/O7FvB2srFQHipC0GgrqjBs+d5QK0eVcBTLY3Bq64YQSWrhMB4aYjBOP2T
QOsfAkCfOqTBppDvQE/6AUGpOJfBGiTZQPenE0GSE57BPoabQMvDkMD9rI7BLlIKQZa/fMAuS5LB
cPG/QIpHkMD7Y4bBtvDxQPInOcDaJJDBjBWMQCD2f0AHspfB/B6rQLaPPECNJJzBcrS6QBk9B0A5
RZPBVJHXQDu3TcBEhobBcIWCQJ2dukD5VovBEoz7QCqwR0CWLJHB9ILAQBK8KMC6cmvB8WhrQJX6
lECoK6DBUegNQakZHD6jS7HBuGqqQF/7M8CxTKfBBhjDQBY6j76p6YvBG7kOQUVpIkD9gH3BLFgG
QaaiqL9j8l/BWEblQNjZA0CubqzBuk+AQDg6Hb+9mKLByXX3QIr7DMAvaq7BttKYQJhNBUEqxZDB
HIq7QNYGCkEdkIXBKFquQFPUzEChWZ7BU+fbQM6KrEAe75rB3mWpQIctzEC0hnzBmk90QF4f7EDz
D4DBfVrnQHqY1UBGnIrBXby3QA3KkECr+IrBGQMUQTE6vj/Hb07BZM4kQe4P6j1uUVbBszQoQeUE
3T8thWLBfc+2QDsjGUEk7azBcTzfQL3DBEHOsK3BjIOtQIS8/kAYAafBlt5GQHsKWMBFOpPBvmhd
QAa/V8AKI4XB3eOOQAX+GMARGI7BPO0kQcX1nMCqKorBDYUgQa9oTMBhZIbBcdwOQdtUj8AMnYHB
zp6MQHIWJ0AFfavBMSBsQPFq1T8xo6DBWS4CQeQvCkGkbZHBBqYBQbS78EAbs5zBx/TwQKkQIEFK
8p/B4ju/QC2rGkGUQpnBY0WJQFanrsCZyo3B4XSpQNVGj8Cgv5bBfz8UQROxZ8AcEZnB4pYCQQ35
nMDHSZTBhkmyQDI8lcD5v3zBGWzWQKhaqsCVOYjBisIAQYej9b/M5Y7Bd8HcQJWBNcAxKJfBBOZp
QKoHX0C+fpLB5QnGQIrGXECjIqDBTN2mQM12tT80XZDBYQ9hQF+kpkDu/4bBU4pgQPMNyUCs1JDB
DidOQAJRgEC8YKTBFRbdQNfS1L1PJIbBe6MIQXzPvT8EJH7B/6wDQdVuLr+ezWzB6mvYQEQPiT+l
eKvBt1mhQKax8r5AJaXBtwXlQGiyqr9GBqzBMqrxQJLekz9fsYbB++3nQIycgr9uAnzBoiQOQV6y
ED+U9m3BHnivQKnVVz+YDafBEVHzQIdGh7zA163Bcga8QDTIx7+QsKfBs8DkQKUNCUBq2I7BChTP
QBq/EMCTgnnBg8GsQP2h/UAh4ozBLsvBQHSdvECg3pfBAeSUQNnB30BJOYXBvT/SQPZh5UC3JZLB
rZKkQKANoUCggZDBlBkeQX5Idj+n71zBh9LAQH36H0F0jaLBenGFQBmOUsB1p43BKFwXQRndacBW
iZfB1Y6TQPKfAEBK2aPBprvsQJQTAUGa75nBx2bVQMDHCUHPI6TBxPKgQMAIksCF1YzBs/kDQUyE
Q8BN1ZHBanC8QFU7k8CViILBxd0CQd1zaMCbeIbB22uMQFNxfEDO2ZbBDiarQCIIOkBMtZvB/9e7
QNCBA0CQF5PBbyDbQNUGXsBFp4HBKluDQEGyu0AkW4vB3Q/9QMkaQ0BFcZHB6suuQFVwDcA8am7B
3NxmQBnYkUDnFp/BG34NQRGMUj5sxrHBf2yuQFCnNMCg3aXByPzEQA9Lur6n+YvB9IwQQURIHEBB
4n7BIbcHQZRXsL8SOmDBUhLjQNkYBUD7Bq3BRBeCQHv3Jb8dvKHBZn/5QGTZCsA/9K3B5aGWQFl0
BEHYHpPBgEO5QCOcDEF+ZojB7WivQF82xkDv+p7B53LdQNg3qUAqWJrBaiGrQDy000BzNX7BglV1
QGhP8UAaU4HB8/TnQIkI20CnuIvBWH+4QEqdkUAhXYrBa64VQQ43uj9spE/BhVUmQRCogz2O91bB
fOcpQfHv0z/NzmPBSSGxQKwBJUGLBKrBwu+oQLIdH0FjGpzBfrjZQOWmK0HGZqDBclNlQJtHVMAI
GJXBREhfQKktT8AbwobB32CaQOb1GcCSsY3BPl0YQTnxT8Drs5/BxQAmQcZkWcAQHJPB3qsVQWjw
l8Cq5pfBUauLQKuFJkB2/6rB0NBrQKWt0D9rNKDBMAr4QHv8DkFAWJXBCC8EQYlD70CGqJzBfBy8
QHvC/ECxXqbBOOXsQHDqCkEUq6rB3aOLQDgNrsAD34zBmmC2QFdxk8B7zpPBPKAFQVP/+r/sb5HB
qZbqQLP7U8CGOpbBuN2mQFtGksAFK3fBV63OQDBWscBNc4LBM7kGQYSLlsB1zYbBeLAOQehOR8A1
cIHBsx9uQBnYWkDdQZHB847FQE5iW0AixJ/B1kCoQL0prj8eEJDBbs9kQIk0qUCUY4bBfztgQNJS
x0CmDJHB7SdJQH3KeECT/aLB

>  <OMEGA_E>  (20) 
UINwPrD0az6QkeE+

>  <OMEGA_NBR>  (20) 
      6071

$$$$
50209144
     RDKit          3D

 93 96  0  0  1  0  0  0  0  0999 V2000
    5.3929   10.5323  -21.6590 C   0  0  0  0  0  0  0  0  0  0  0  0
    5.8373   10.8528  -20.3609 C   0  0  0  0  0  0  0  0  0  0  0  0
    5.7298    9.2918  -22.2343 C   0  0  0  0  0  0  0  0  0  0  0  0
    6.6480    9.9472  -19.6499 C   0  0  0  0  0  0  0  0  0  0  0  0
    6.5226    8.3775  -21.5177 C   0  0  0  0  0  0  0  0  0  0  0  0
    6.8770   -0.0515  -16.7474 C   0  0  0  0  0  0  0  0  0  0  0  0
    8.5070    1.5222  -15.8377 C   0  0  0  0  0  0  0  0  0  0  0  0
    8.2144   -0.6642  -14.8025 C   0  0  0  0  0  0  0  0  0  0  0  0
    6.7866    1.0581  -21.3656 C   0  0  0  0  0  0  0  0  0  0  0  0
    4.9924   -0.4488  -20.6704 C   0  0  0  0  0  0  0  0  0  0  0  0
    7.0787   -1.3550  -21.5484 C   0  0  0  0  0  0  0  0  0  0  0  0
    7.5164    1.2068  -16.7931 C   0  0  0  0  0  0  0  0  0  0  0  0
    7.2475   -0.9967  -15.7700 C   0  0  0  0  0  0  0  0  0  0  0  0
    6.9932    8.7024  -20.2267 C   0  0  0  0  0  0  0  0  0  0  0  0
    8.8330    0.5992  -14.8251 C   0  0  0  0  0  0  0  0  0  0  0  0
    5.4909    0.8573  -20.8421 C   0  0  0  0  0  0  0  0  0  0  0  0
    7.5850   -0.0487  -21.7033 C   0  0  0  0  0  0  0  0  0  0  0  0
    5.7793   -1.5524  -21.0385 C   0  0  0  0  0  0  0  0  0  0  0  0
    7.1364    2.1827  -17.8234 C   0  0  0  0  0  0  0  0  0  0  0  0
    6.6248   -2.3287  -15.7407 C   0  0  0  0  0  0  0  0  0  0  0  0
    5.4894    7.7750  -17.2091 C   0  0  0  0  0  0  0  0  0  0  0  0
    6.1192    5.8060  -18.6118 C   0  0  0  0  0  0  0  0  0  0  0  0
    4.3871    6.9387  -16.5463 C   0  0  0  0  0  0  0  0  0  0  0  0
    6.6436    6.8309  -17.5919 C   0  0  1  0  0  0  0  0  0  0  0  0
    4.9939    4.9819  -17.9452 C   0  0  2  0  0  0  0  0  0  0  0  0
    9.9052    0.9307  -13.8136 C   0  0  0  0  0  0  0  0  0  0  0  0
    3.8931   -3.3569  -17.6162 C   0  0  0  0  0  0  0  0  0  0  0  0
    9.5359   -4.1772  -17.1104 C   0  0  0  0  0  0  0  0  0  0  0  0
    8.0426    7.8093  -19.5930 C   0  0  0  0  0  0  0  0  0  0  0  0
    4.6297    2.0360  -20.4657 C   0  0  0  0  0  0  0  0  0  0  0  0
    7.9064    7.5901  -18.0689 C   0  0  0  0  0  0  0  0  0  0  0  0
    4.8518   -4.5459  -17.8149 C   0  0  0  0  0  0  0  0  0  0  0  0
    8.6133   -3.9780  -18.3263 C   0  0  0  0  0  0  0  0  0  0  0  0
    5.9964   -4.5275  -16.7876 C   0  0  0  0  0  0  0  0  0  0  0  0
    7.5403   -2.9164  -18.0355 C   0  0  0  0  0  0  0  0  0  0  0  0
    4.3432    3.9844  -18.9140 C   0  0  2  0  0  0  0  0  0  0  0  0
    5.3458    2.9491  -19.4520 C   0  0  1  0  0  0  0  0  0  0  0  0
    5.8483    2.1254  -18.3428 N   0  0  0  0  0  0  0  0  0  0  0  0
    6.7364   -3.2351  -16.8184 N   0  0  0  0  0  0  0  0  0  0  0  0
    3.9192    5.8855  -17.4685 N   0  0  0  0  0  0  0  0  0  0  0  0
    7.9411    3.0317  -18.1902 O   0  0  0  0  0  0  0  0  0  0  0  0
    6.0549   -2.6557  -14.7053 O   0  0  0  0  0  0  0  0  0  0  0  0
    3.7559    4.6972  -20.0038 O   0  0  0  0  0  0  0  0  0  0  0  0
    8.8348    0.1442  -22.1811 F   0  0  0  0  0  0  0  0  0  0  0  0
    5.2863   -2.8027  -20.8986 F   0  0  0  0  0  0  0  0  0  0  0  0
    4.7931   11.2388  -22.2136 H   0  0  0  0  0  0  0  0  0  0  0  0
    5.5562   11.7936  -19.9111 H   0  0  0  0  0  0  0  0  0  0  0  0
    5.3796    9.0427  -23.2251 H   0  0  0  0  0  0  0  0  0  0  0  0
    7.0063   10.2029  -18.6637 H   0  0  0  0  0  0  0  0  0  0  0  0
    6.7726    7.4229  -21.9567 H   0  0  0  0  0  0  0  0  0  0  0  0
    6.1032   -0.2897  -17.4622 H   0  0  0  0  0  0  0  0  0  0  0  0
    9.0160    2.4736  -15.8835 H   0  0  0  0  0  0  0  0  0  0  0  0
    8.4822   -1.3812  -14.0404 H   0  0  0  0  0  0  0  0  0  0  0  0
    7.1638    2.0603  -21.5066 H   0  0  0  0  0  0  0  0  0  0  0  0
    4.0066   -0.6014  -20.2565 H   0  0  0  0  0  0  0  0  0  0  0  0
    7.6867   -2.2052  -21.8204 H   0  0  0  0  0  0  0  0  0  0  0  0
    5.0940    8.2648  -18.1112 H   0  0  0  0  0  0  0  0  0  0  0  0
    5.8511    8.5393  -16.5056 H   0  0  0  0  0  0  0  0  0  0  0  0
    5.7226    6.3300  -19.4939 H   0  0  0  0  0  0  0  0  0  0  0  0
    6.9365    5.1371  -18.9193 H   0  0  0  0  0  0  0  0  0  0  0  0
    4.7853    6.4714  -15.6336 H   0  0  0  0  0  0  0  0  0  0  0  0
    3.5427    7.5934  -16.2847 H   0  0  0  0  0  0  0  0  0  0  0  0
    6.9236    6.2745  -16.6852 H   0  0  0  0  0  0  0  0  0  0  0  0
    5.4165    4.4286  -17.0936 H   0  0  0  0  0  0  0  0  0  0  0  0
    9.4462    1.4071  -12.9347 H   0  0  0  0  0  0  0  0  0  0  0  0
   10.4160    0.0067  -13.5047 H   0  0  0  0  0  0  0  0  0  0  0  0
   10.6346    1.6195  -14.2648 H   0  0  0  0  0  0  0  0  0  0  0  0
    3.0900   -3.4033  -18.3665 H   0  0  0  0  0  0  0  0  0  0  0  0
    3.4558   -3.4032  -16.6079 H   0  0  0  0  0  0  0  0  0  0  0  0
    4.4488   -2.4146  -17.7319 H   0  0  0  0  0  0  0  0  0  0  0  0
   10.2928   -4.9402  -17.3448 H   0  0  0  0  0  0  0  0  0  0  0  0
   10.0355   -3.2272  -16.8698 H   0  0  0  0  0  0  0  0  0  0  0  0
    8.9388   -4.5063  -16.2472 H   0  0  0  0  0  0  0  0  0  0  0  0
    7.9885    6.8254  -20.0819 H   0  0  0  0  0  0  0  0  0  0  0  0
    9.0282    8.2593  -19.7827 H   0  0  0  0  0  0  0  0  0  0  0  0
    4.4002    2.6163  -21.3715 H   0  0  0  0  0  0  0  0  0  0  0  0
    3.6941    1.6684  -20.0189 H   0  0  0  0  0  0  0  0  0  0  0  0
    7.9038    8.5792  -17.5876 H   0  0  0  0  0  0  0  0  0  0  0  0
    8.7857    7.0210  -17.7329 H   0  0  0  0  0  0  0  0  0  0  0  0
    4.2866   -5.4829  -17.7030 H   0  0  0  0  0  0  0  0  0  0  0  0
    5.2795   -4.4943  -18.8271 H   0  0  0  0  0  0  0  0  0  0  0  0
    9.2170   -3.6531  -19.1866 H   0  0  0  0  0  0  0  0  0  0  0  0
    8.1202   -4.9322  -18.5639 H   0  0  0  0  0  0  0  0  0  0  0  0
    5.5764   -4.6751  -15.7817 H   0  0  0  0  0  0  0  0  0  0  0  0
    6.6956   -5.3452  -17.0166 H   0  0  0  0  0  0  0  0  0  0  0  0
    8.0356   -1.9455  -17.8869 H   0  0  0  0  0  0  0  0  0  0  0  0
    6.8625   -2.8538  -18.8996 H   0  0  0  0  0  0  0  0  0  0  0  0
    3.5577    3.4427  -18.3667 H   0  0  0  0  0  0  0  0  0  0  0  0
    6.1770    3.4688  -19.9511 H   0  0  0  0  0  0  0  0  0  0  0  0
    5.2135    1.4726  -17.9295 H   0  0  0  0  0  0  0  0  0  0  0  0
    3.2322    5.3347  -16.9945 H   0  0  0  0  0  0  0  0  0  0  0  0
    3.5026    6.3259  -18.2638 H   0  0  0  0  0  0  0  0  0  0  0  0
    3.3526    4.0817  -20.6047 H   0  0  0  0  0  0  0  0  0  0  0  0
  1  2  2  0
  1  3  1  0
  2  4  1  0
  3  5  2  0
  4 14  2  0
  5 14  1  0
  6 12  2  0
  6 13  1  0
  7 12  1  0
  7 15  2  0
  8 13  2  0
  8 15  1  0
  9 16  2  0
  9 17  1  0
 10 16  1  0
 10 18  2  0
 11 17  2  0
 11 18  1  0
 12 19  1  0
 13 20  1  0
 14 29  1  0
 15 26  1  0
 16 30  1  0
 17 44  1  0
 18 45  1  0
 19 38  1  0
 19 41  2  0
 20 39  1  0
 20 42  2  0
 21 23  1  0
 21 24  1  0
 22 24  1  0
 22 25  1  0
 23 40  1  0
 24 31  1  0
 25 36  1  0
 25 40  1  0
 27 32  1  0
 28 33  1  0
 29 31  1  0
 30 37  1  0
 32 34  1  0
 33 35  1  0
 34 39  1  0
 35 39  1  0
 36 37  1  0
 36 43  1  0
 37 38  1  0
  1 46  1  0
  2 47  1  0
  3 48  1  0
  4 49  1  0
  5 50  1  0
  6 51  1  0
  7 52  1  0
  8 53  1  0
  9 54  1  0
 10 55  1  0
 11 56  1  0
 21 57  1  0
 21 58  1  0
 22 59  1  0
 22 60  1  0
 23 61  1  0
 23 62  1  0
 24 63  1  1
 25 64  1  1
 26 65  1  0
 26 66  1  0
 26 67  1  0
 27 68  1  0
 27 69  1  0
 27 70  1  0
 28 71  1  0
 28 72  1  0
 28 73  1  0
 29 74  1  0
 29 75  1  0
 30 76  1  0
 30 77  1  0
 31 78  1  0
 31 79  1  0
 32 80  1  0
 32 81  1  0
 33 82  1  0
 33 83  1  0
 34 84  1  0
 34 85  1  0
 35 86  1  0
 35 87  1  0
 36 88  1  1
 37 89  1  6
 38 90  1  0
 40 91  1  0
 40 92  1  0
 43 93  1  0
M  CHG  1  40   1
M  END
>  <OMEGA_C>  (21) 
pZKsQFaEKEG1Ra3Bdcu6QDClLUE446LBlFq3QBirFEHM37HBE7zUQIknH0HvMp3BiLnQQBgKBkFH
JKzBGRDcQHoMU72T+oXB2BwIQeDXwj8pZ33BTm4DQfgJKr/i1mzB3ivZQERxhz/Z7KrBdsGfQMDD
5b4NXaXB54TiQDZwrb8GY6zBDIbwQLZ3mj9DWIbBL+vnQH8nf78QUnzBYcjfQBg9C0FY0KHBJ1QN
QRhmGT/DM23BbrWvQBV6Wz+MvKbBarjyQMpaR71IoK3BAvC4QCe2xr/nTqjBXV3kQOSxC0Bplo7B
dv7TQDwKFcAD2nvBc6mvQM3M+EBTrInBpNDDQM/KuUDe5JTB/GKMQC4K3kDnXoTBMpjUQF+W2kBK
vIzBAc6fQKNrn0DSj4/B53seQbdBbj9jBF3BRCh5QL7WVsDv7YzBNZMYQXirhcAK4ojBYa4AQdnl
+UCBvpzBjyaUQGdNAkC2uaPBFgH9QPrh8kA0jZDB20GbQMR3kcADhY7BJtAJQQKYfsBQnJLB2uK/
QOXgkMD4TIbBJErxQFmmOsCsSJDBZvuKQDUAf0DoT5fBcBCrQNO+PEC+nZvBIiW7QNAGCEASvpLB
TZDXQEELT8AIjIbBXtR6QPRVvEB3v4vBkx3+QMwHQkCLhZHB3MHBQDv3KcDlSGvBa2FwQENPlkDT
B6DBVVsNQRiyEz79crHBLimpQLFeM8BnMKfBZmGZQEjSM0FitbHBDMyxQG6yPEHwSZ/BTSWsQNau
EEHzzLnBQDPgQDA/I0EvT5XB7rjYQFOI7UBdp6/BWk3DQD1VlL59sovBu0EQQR9QHkDaIn7BKLcH
QfDJsL+lpWDBlT3lQL/bA0ByDazBCzaAQAXzGb8+DaLBFvn1QHohDcAtkK7B8QGjQIo8BEHF45DB
XDy7QBWhCEFxC4TBzh+3QE6PykB585vBLvjdQFxjpEC1WpfB6iCZQJwVz0BfI3rBYLtiQMr88kD/
RoLB1Y3dQObIyEBfe4XBt1OtQOy2jUCsv4jB1yMXQQgctD+v9E7B8qcmQXL62ztFE1jBJScqQchL
zz/SPGTBo8JFQLPPWcB+7pLBLyxdQH3NWcDy3ITBdFyOQEOJGsD+2o3BOK8kQWMWnsAbworBi5Eg
QbGJTsBv9YbBRwUPQTszkMAy+oHBt6H/QKFp2kCzp6DBnHMQQSQmBEEDQ57BlM6MQEZxJ0Dm+KrB
5mxsQDeP1T+kJqDBOuz8QE1ECUFns4zBYZIMQVGs4EAD3Y3BiCuJQMZzr8DJn43B5fGoQKnRj8DV
nZbBzngTQXDMacARfpnBiuwBQZrUncDVgpTBC3KyQAialcDZgXzBN0LWQA0Mq8AIIojBApIAQZ8H
+b9xGI/B3pnbQPOkNsBnMpfBpbBjQI1VXEAJ75LBzqnFQMQAXkDDm5/BM9WmQLp8vD+Ib4/B8txO
QNy1qkCu9IfBVSpgQM1tykAvHJLBOpFWQH+dgkBo1qTBz3etQH2cKEF9ea3Blv26QFDMLUGpCaPB
A6C4QKzAFEEWArLBiInUQDhWH0FYN53BmZrRQNgoBkHVJazB5L7cQBgIMb3r74XBaZ4IQUkewz9q
c33B97gDQQrnJ7+iuWzBJjfZQC3Rhj8z3KrBYYSfQJTd476RU6XBmiLiQAU7rr8yWazBW1rxQIoh
mz+GVobBf27oQK9rfL+lL3zBjOvfQDtmC0FSwqHBHsYNQT9TGj9AMW3BI7evQIq8Wz8JrqbBTJLy
QChMa706kq3BrYS4QMq1xr8gRqjBXffkQHEQDEBykI7BfP/TQE3SE8DAk3vBrgOvQIr0+EB7m4nB
y6nDQP3+uUDJzJTBZraLQFgS3kBRWoTBKiPUQGjp2kDHn4zBBLSfQPt5n0CMfI/Btu8eQZvCbj/3
/VzB+S4YQUiOhsBr5YjB8F94QHhCWMCZFo3BUqUAQVhV+kCBj5zBQlqUQJ6PAkAZqqPBPH38QAl7
80CMX5DBnzQJQQMEgMDqiJLBrnWbQKjRkcAOcI7BbsrwQGXGOsDoJpDBgku/QOBokMBNA4bBgxiL
QKS6fkCGN5fBoVarQFDgPEBzjJvBHq+7QJYYCEArs5LBDxbXQMM7TsC/YIbBeix6QIg/vEDiu4vB
2pH+QPSiQkAegpHBRI3BQAm6J8Cg/WrBTPZvQJAElkBd65/BUE8NQUD7Az7QYLHBLY6oQDw3M8CX
JqfB/IaaQK/gM0FuALLBa8KxQFrfPEEJgJ/BYQGuQGy7EEEI+7nBy3DfQOx3I0EvSJXBnt/ZQJjA
7UDnm6/BYPrDQCvaj76pp4vB598QQcowHkBgRn7BTuoHQRR2r793eGDBqHXlQMxtA0Al+avBNNp/
QNW5F78iB6LBu3D1QHG2DcDpiK7BWnSiQCtLBEH81pDBdl+6QNm5CEE/9oPBnP62QMSrykCJ35vB
f/bdQBG3pEDoOpfB0VKYQFY7z0BqC3rBCxZhQFPq8kDLUILBRQndQHMpyUCZW4XByjStQJ3vjUD1
pIjBRpwXQZwutT81+k7BrwMnQY4I6Tur+FfBeq4qQeHCzj/7PGTB9wgkQdtvn8BkzYrBL3sgQey5
UMDAF4fBlLwOQZOIkMAe54HBSxNGQC0+XMCfOZPBXAhbQHEYW8DPGIXB2aqNQF2RG8Dq+Y3Bwr7/
QF7I2kB4caDB33AQQfFdBEEmA57BaBiNQBnGJ0Aw6arBS7lsQD6K1j8JGKDBl/37QA2ZCUHAjozB
BVYMQf6N4UCFmI3BqMASQUJWbMB2gZnBDQIBQb5WnsDUUJTBt7KJQNADsMB4lI3BYtmpQEZAkMCS
dZbBi6IAQYON+r//+o7B5fzaQBzhNcCTCJfBPhWxQFJKlMCaCnzBoMnVQOfIqsAWi4fBBUtkQEex
W0BC0ZLB4MzFQId3XkDmjZ/BLISnQLsLvD8xZY/BZTZOQCqKqkAS94fBn6hfQJ46ykAMH5LBymRW
QJE2gkDut6TBUa+rQEPjJ0Egdq3BifC1QM6lE0FEsrHBMG+6QGrFLUGhOKPBQoXPQMNtBUHfxavB
w2DUQHegH0FiUJ3BC//bQAyLlb2MCYbB5xkIQTRJvz8OYn3BO2YDQXS1Mr9cB23B0MHYQCtEhz+i
MqvBe5GfQDGF474SZaXB0szhQMjDrb8Wq6zBz4HwQEijlz/pWYbBMeznQFRgg79PlHzBpDXfQDxm
C0FpnKHBzEgNQYDzED83QG3B1Y2vQOgiXD842qbBUgHyQCSyVr0gAa7BEXq4QBuGxr+JaajBdXXk
QN+WCkAkko7Brq3TQCO0FsBdGXzB1xqvQFKp+EBTgInBhUDEQE3kuUD6vpTBV/+LQIx83UDoR4TB
+W/UQAzw2kDLiozBcSagQHY9n0B9g4/BxlweQYA9ZT+f91zBYGV3QGtyVcDHtozBJ4kYQc2dgsC2
y4jBtJwAQfES+0DibZzBClCUQN2pAkCGxqPBlXX8QEEl9ECxQZDBwNWYQI8VksCzKY7BcawJQWtT
fsD8kZLBbL6+QLCvkcATTYbBq2fvQN8gPcBKkpDBaX6LQKr2fkDfVZfBO3SrQJB2PEDln5vBfk27
QEgvB0C2xZLB2WLWQCGzUMD+s4bBufZ6QELiu0DMuovBhUv+QJfiQEBbeJHBrqvBQKVhK8AOc2vB
T0FyQE6BlkC5E6DBUdsMQea1DD6yBLLBuaKoQHArM8D4NqfBp32YQKXqMkFCEbLBSCqqQPgMD0HL
fLnBAdexQHYiPUGl5p/BETPXQNW/60CwAq/B4/7fQMU4JEEEgpXBGyHDQCbzm76KvovBI0QQQe2A
HEAKCn7BoaoHQWWktb8+5GDB6N3kQM2xA0BUXazBODaAQELiF7999qHBMw31QPdrDcAE6K7B5XOi
QJ8oBEFsuJDBZ0i6QBGTCEG11IPB68a3QDCEykAe2ZvBW6/eQMKrpEAuHpfBb72YQOtyzkDT+nnB
doNhQP8j8kDwLoLB54ndQBM2yUC2SYXBuoetQHJojUAdtIjBTfEWQbr0rj/65k7B54smQenL67wH
D1jBdgkqQcJByz+TFmTB1jtCQBiUWMA2eJLBlapdQHXAVMDyhYTBGFmOQEzMGsDLHI7BXTklQdIb
msBDcIrBc8gfQWxrRsAdKofBkzkPQQf+jMADy4HBhDMAQWuB20ATUaDBiD4QQZUXBUED353BOBGN
QEtAKEAM/qrBMZ5sQCbG1j/VNaDB6G/7QIPrCUHPb4zBCXIMQXKm4kBOd43BG9WFQCc1r8CAzIzB
6FilQBM7ksBZY5bB6BcTQafQacAxjJnBCIkCQaWwnsAWLZTBT4+yQFiflsCORnzB187UQGnOq8Bh
ZIjBB7P9QN5G+r+6vY/BxozZQGGwPcAteJfB9TVkQDN1XEBGB5PBEDDGQC14XUDal5/BLuemQDKN
uj9Kho/BtvJOQFUNqkDmAYjBwo9gQAALykCKGZLBNaJYQGHwgkC67qTB

>  <OMEGA_E>  (21) 
4GgfPQBwOT0Akho9

>  <OMEGA_NBR>  (21) 
     10638

$$$$
50209146
     RDKit          3D

 96 99  0  0  1  0  0  0  0  0999 V2000
    6.9256    0.0107  -16.7456 C   0  0  0  0  0  0  0  0  0  0  0  0
    8.5785    1.6158  -15.9406 C   0  0  0  0  0  0  0  0  0  0  0  0
    8.3196   -0.5326  -14.8194 C   0  0  0  0  0  0  0  0  0  0  0  0
    6.7364    1.0527  -21.4398 C   0  0  0  0  0  0  0  0  0  0  0  0
    4.9969   -0.4508  -20.6098 C   0  0  0  0  0  0  0  0  0  0  0  0
    7.0627   -1.3615  -21.5293 C   0  0  0  0  0  0  0  0  0  0  0  0
    7.5607    1.2649  -16.8541 C   0  0  0  0  0  0  0  0  0  0  0  0
    7.3193   -0.8957  -15.7427 C   0  0  0  0  0  0  0  0  0  0  0  0
    8.9376    0.7295  -14.9071 C   0  0  0  0  0  0  0  0  0  0  0  0
    5.4662    0.8536  -20.8608 C   0  0  0  0  0  0  0  0  0  0  0  0
    7.5388   -0.0550  -21.7625 C   0  0  0  0  0  0  0  0  0  0  0  0
    5.7908   -1.5573  -20.9539 C   0  0  0  0  0  0  0  0  0  0  0  0
    7.1559    2.1992  -17.9105 C   0  0  0  0  0  0  0  0  0  0  0  0
    6.6627   -2.2067  -15.6366 C   0  0  0  0  0  0  0  0  0  0  0  0
    5.9126    9.4241  -21.9553 C   0  0  0  0  0  0  0  0  0  0  0  0
    6.3577    8.0286  -21.4816 C   0  0  0  0  0  0  0  0  0  0  0  0
    5.4523   10.2998  -20.7717 C   0  0  0  0  0  0  0  0  0  0  0  0
    7.4634    8.1418  -20.4042 C   0  0  0  0  0  0  0  0  0  0  0  0
    6.5483   10.3920  -19.6857 C   0  0  0  0  0  0  0  0  0  0  0  0
    5.7046    6.9015  -16.2710 C   0  0  0  0  0  0  0  0  0  0  0  0
    6.0890    5.7848  -18.5208 C   0  0  0  0  0  0  0  0  0  0  0  0
    4.1754    6.7978  -16.4584 C   0  0  0  0  0  0  0  0  0  0  0  0
    7.0209    9.0015  -19.1906 C   0  0  0  0  0  0  0  0  0  0  0  0
    6.4012    7.0353  -17.6434 C   0  0  1  0  0  0  0  0  0  0  0  0
    4.8952    4.9635  -17.9649 C   0  0  2  0  0  0  0  0  0  0  0  0
   10.0336    1.1044  -13.9367 C   0  0  0  0  0  0  0  0  0  0  0  0
    3.8513   -3.2410  -17.5601 C   0  0  0  0  0  0  0  0  0  0  0  0
    9.7907   -4.2175  -18.3505 C   0  0  0  0  0  0  0  0  0  0  0  0
    4.6084    2.0342  -20.4997 C   0  0  0  0  0  0  0  0  0  0  0  0
    5.9136    8.3443  -18.3244 C   0  0  0  0  0  0  0  0  0  0  0  0
    4.8016   -4.4453  -17.6910 C   0  0  0  0  0  0  0  0  0  0  0  0
    8.9994   -3.5564  -17.2269 C   0  0  0  0  0  0  0  0  0  0  0  0
    5.9149   -4.3922  -16.6335 C   0  0  0  0  0  0  0  0  0  0  0  0
    7.6696   -3.0121  -17.7774 C   0  0  0  0  0  0  0  0  0  0  0  0
    4.2975    3.9812  -18.9786 C   0  0  2  0  0  0  0  0  0  0  0  0
    5.3224    2.9616  -19.4945 C   0  0  1  0  0  0  0  0  0  0  0  0
    5.8437    2.1592  -18.3742 N   0  0  0  0  0  0  0  0  0  0  0  0
    6.6608   -3.1127  -16.7121 N   0  0  0  0  0  0  0  0  0  0  0  0
    3.8129    5.8862  -17.5673 N   0  0  0  0  0  0  0  0  0  0  0  0
    7.9748    2.9911  -18.3619 O   0  0  0  0  0  0  0  0  0  0  0  0
    6.1416   -2.5006  -14.5667 O   0  0  0  0  0  0  0  0  0  0  0  0
    3.7505    4.7051  -20.0825 O   0  0  0  0  0  0  0  0  0  0  0  0
    8.7661    0.1374  -22.2949 F   0  0  0  0  0  0  0  0  0  0  0  0
    5.3290   -2.8070  -20.7339 F   0  0  0  0  0  0  0  0  0  0  0  0
    6.1360   -0.2551  -17.4328 H   0  0  0  0  0  0  0  0  0  0  0  0
    9.0827    2.5662  -16.0347 H   0  0  0  0  0  0  0  0  0  0  0  0
    8.6129   -1.2237  -14.0430 H   0  0  0  0  0  0  0  0  0  0  0  0
    7.0917    2.0538  -21.6347 H   0  0  0  0  0  0  0  0  0  0  0  0
    4.0292   -0.5996  -20.1540 H   0  0  0  0  0  0  0  0  0  0  0  0
    7.6730   -2.2129  -21.7917 H   0  0  0  0  0  0  0  0  0  0  0  0
    6.7572    9.9176  -22.4584 H   0  0  0  0  0  0  0  0  0  0  0  0
    5.0784    9.3125  -22.6636 H   0  0  0  0  0  0  0  0  0  0  0  0
    5.4925    7.4990  -21.0564 H   0  0  0  0  0  0  0  0  0  0  0  0
    6.7477    7.4633  -22.3409 H   0  0  0  0  0  0  0  0  0  0  0  0
    5.2263   11.3113  -21.1402 H   0  0  0  0  0  0  0  0  0  0  0  0
    4.5461    9.8592  -20.3304 H   0  0  0  0  0  0  0  0  0  0  0  0
    7.7149    7.1317  -20.0487 H   0  0  0  0  0  0  0  0  0  0  0  0
    8.3530    8.6028  -20.8581 H   0  0  0  0  0  0  0  0  0  0  0  0
    7.4127   10.9290  -20.1033 H   0  0  0  0  0  0  0  0  0  0  0  0
    6.1474   10.9528  -18.8284 H   0  0  0  0  0  0  0  0  0  0  0  0
    5.9366    7.7847  -15.6578 H   0  0  0  0  0  0  0  0  0  0  0  0
    6.0709    5.9966  -15.7640 H   0  0  0  0  0  0  0  0  0  0  0  0
    5.8453    6.1189  -19.5401 H   0  0  0  0  0  0  0  0  0  0  0  0
    6.9800    5.1404  -18.5494 H   0  0  0  0  0  0  0  0  0  0  0  0
    3.7284    6.4196  -15.5272 H   0  0  0  0  0  0  0  0  0  0  0  0
    3.7757    7.7990  -16.6768 H   0  0  0  0  0  0  0  0  0  0  0  0
    7.9015    9.1548  -18.5494 H   0  0  0  0  0  0  0  0  0  0  0  0
    7.4885    7.0979  -17.4887 H   0  0  0  0  0  0  0  0  0  0  0  0
    5.2385    4.3992  -17.0853 H   0  0  0  0  0  0  0  0  0  0  0  0
    9.5945    1.6122  -13.0652 H   0  0  0  0  0  0  0  0  0  0  0  0
   10.5570    0.1952  -13.6059 H   0  0  0  0  0  0  0  0  0  0  0  0
   10.7474    1.7785  -14.4326 H   0  0  0  0  0  0  0  0  0  0  0  0
    3.0671   -3.3069  -18.3286 H   0  0  0  0  0  0  0  0  0  0  0  0
    3.3882   -3.2464  -16.5624 H   0  0  0  0  0  0  0  0  0  0  0  0
    4.4198   -2.3091  -17.6954 H   0  0  0  0  0  0  0  0  0  0  0  0
   10.7401   -4.6049  -17.9523 H   0  0  0  0  0  0  0  0  0  0  0  0
    9.2045   -5.0472  -18.7725 H   0  0  0  0  0  0  0  0  0  0  0  0
    9.9980   -3.4775  -19.1374 H   0  0  0  0  0  0  0  0  0  0  0  0
    4.3805    2.6037  -21.4128 H   0  0  0  0  0  0  0  0  0  0  0  0
    3.6720    1.6722  -20.0501 H   0  0  0  0  0  0  0  0  0  0  0  0
    5.6049    9.0558  -17.5444 H   0  0  0  0  0  0  0  0  0  0  0  0
    5.0529    8.1095  -18.9680 H   0  0  0  0  0  0  0  0  0  0  0  0
    4.2255   -5.3730  -17.5592 H   0  0  0  0  0  0  0  0  0  0  0  0
    5.2571   -4.4357  -18.6922 H   0  0  0  0  0  0  0  0  0  0  0  0
    8.7933   -4.2971  -16.4403 H   0  0  0  0  0  0  0  0  0  0  0  0
    9.5868   -2.7274  -16.8052 H   0  0  0  0  0  0  0  0  0  0  0  0
    5.4662   -4.4864  -15.6336 H   0  0  0  0  0  0  0  0  0  0  0  0
    6.6120   -5.2262  -16.8026 H   0  0  0  0  0  0  0  0  0  0  0  0
    7.7922   -1.9609  -18.0773 H   0  0  0  0  0  0  0  0  0  0  0  0
    7.3544   -3.6072  -18.6472 H   0  0  0  0  0  0  0  0  0  0  0  0
    3.4926    3.4251  -18.4757 H   0  0  0  0  0  0  0  0  0  0  0  0
    6.1430    3.4895  -20.0024 H   0  0  0  0  0  0  0  0  0  0  0  0
    5.2081    1.5401  -17.9128 H   0  0  0  0  0  0  0  0  0  0  0  0
    3.0245    5.3414  -17.2815 H   0  0  0  0  0  0  0  0  0  0  0  0
    3.5648    6.4405  -18.3617 H   0  0  0  0  0  0  0  0  0  0  0  0
    3.3805    4.0950  -20.7097 H   0  0  0  0  0  0  0  0  0  0  0  0
  1  7  2  0
  1  8  1  0
  2  7  1  0
  2  9  2  0
  3  8  2  0
  3  9  1  0
  4 10  2  0
  4 11  1  0
  5 10  1  0
  5 12  2  0
  6 11  2  0
  6 12  1  0
  7 13  1  0
  8 14  1  0
  9 26  1  0
 10 29  1  0
 11 43  1  0
 12 44  1  0
 13 37  1  0
 13 40  2  0
 14 38  1  0
 14 41  2  0
 15 16  1  0
 15 17  1  0
 16 18  1  0
 17 19  1  0
 18 23  1  0
 19 23  1  0
 20 22  1  0
 20 24  1  0
 21 24  1  0
 21 25  1  0
 22 39  1  0
 23 30  1  0
 24 30  1  0
 25 35  1  0
 25 39  1  0
 27 31  1  0
 28 32  1  0
 29 36  1  0
 31 33  1  0
 32 34  1  0
 33 38  1  0
 34 38  1  0
 35 36  1  0
 35 42  1  0
 36 37  1  0
  1 45  1  0
  2 46  1  0
  3 47  1  0
  4 48  1  0
  5 49  1  0
  6 50  1  0
 15 51  1  0
 15 52  1  0
 16 53  1  0
 16 54  1  0
 17 55  1  0
 17 56  1  0
 18 57  1  0
 18 58  1  0
 19 59  1  0
 19 60  1  0
 20 61  1  0
 20 62  1  0
 21 63  1  0
 21 64  1  0
 22 65  1  0
 22 66  1  0
 23 67  1  0
 24 68  1  1
 25 69  1  1
 26 70  1  0
 26 71  1  0
 26 72  1  0
 27 73  1  0
 27 74  1  0
 27 75  1  0
 28 76  1  0
 28 77  1  0
 28 78  1  0
 29 79  1  0
 29 80  1  0
 30 81  1  0
 30 82  1  0
 31 83  1  0
 31 84  1  0
 32 85  1  0
 32 86  1  0
 33 87  1  0
 33 88  1  0
 34 89  1  0
 34 90  1  0
 35 91  1  1
 36 92  1  6
 37 93  1  0
 39 94  1  0
 39 95  1  0
 42 96  1  0
M  CHG  1  39   1
M  END
>  <OMEGA_C>  (22) 
uJ7dQGCDLzwD94XBVkEJQUrSzj+yDH/BEx0FQahbCL9CHG3By5DXQCG/hj+shKvB4eafQJPP5r7d
4KTBtAHiQFVErr/wO6zBbPHxQJrpoT9A1YbBdzfqQBBMZb8l4nvBUwAPQXa/Oj9lg27BG+uuQJ+C
Wj/14qbBoD3xQFgVYb2cGa7BTU65QKhUx7+GoafBvfzkQJS/DEDKSI/BMDXVQGA7DcCHL3rBLDS9
QCzJFkGIpK/BU3LLQEV1AEFg2qvBanmuQO3LJEFXLKbBHtTuQNpEAkHYO6PBYIvRQLdFJkE5fJ3B
14u2QLzY3EDzKoLB+9jCQFMduUCnKpTBAJ2FQE2H2UDSqoPBjqvgQAUGEEFUhpnB6dbMQPYg4UC4
JY3BHKWcQNnUnkALuI/BbYkgQW9bjT+m/F7BOHx2QEJtT8AVe4zBkaYcQfn1hsC+zZLBJ3iTQK4v
AkBz/6PBJDy9QCaCBUF0mJLB9aaZQNY/jsAxh43BgP0PQXubY8Cy0InB2Ua9QCaNjMBWEYXBeW31
QALHQMAtOI7BxoSJQGrLfkAk1JfBMVGqQJeLPUCu9JvBf/+6QN4vCkBD/pLBRCXVQDs3R8BQsoXB
LAd0QGdbvEDXiYzB1zH/QIBtP0Ar5ZLBp4fEQFIKIMBbEWnBIAhwQBaQlkD1qKDB8kEMQdi3DD7h
W7LBK4eqQEalM8AK36XBTFrEQF6Zgr51dovBrFIRQbk8JEAoR4DBkc4JQY6hnL8JsGDBXe/iQHZx
A0DME63Bau+AQCSBGb9MO6HBlYn1QOygDcBbVa7BUDvYQGquHkHeqrPBfIKiQOb/FEEYT7XBOMKv
QGn370CVc6jBHO3XQEzT7kAcurLBcT2nQPX6NEEJH6nBnHmRQGO/HUHBpKLBXuD2QNI25ECwY6DB
/KUFQT2lCUFk3abBxDTtQErdLkF406DBt7fEQK4+L0GboJbB6fi9QG0c+UBOhnrB00TCQCvkv0BD
OXzB1Qy7QBXOw0A5UpzB2lvfQMd9pEASZZTBUJ1uQAZtzUCJb3jBUqVxQMaR+UAGaoXB09j8QBV6
EkEcZZTBzaHvQBwi40Dt6IvB/qGnQCrGjECnrojBN4MZQS5bzj9AC1HBY+koQa3eRz6isVnBW/Ur
QZKm4z/a62bBa0tEQE+kU8ALoZLBf9dYQPbET8DDf4TBMW+NQHTIE8BDkI3BYdcrQTpbk8A9no/B
xUUTQVSCocAtLpbB0PcfQdCOXsB2GZnBYy2MQP+iJkBrTavBxgJrQCAJ1j+hZqDBGVuzQHDkEEHu
WozBs7GhQJTAAUF3vpfB6DaHQJnvq8AveYzBWTqoQFjxjcCviZXBVbEMQRaCicCshYPBYGMZQVSO
LsD0cIbBQeuuQKeQj8ANI3rBa5XTQNI8p8Cwa4bBY1n5QGH/+r8+npDBNVfrQOfbZsCQLZXBPIZf
QK80W0AnzpPBY5PEQHFUX0DoBKDBJqmmQEcjxT9STY/BipFBQA7tqkCbQIrBRyVkQOoYzkDG5JLB
rFpYQGIKg0CQraXB

>  <OMEGA_E>  (22) 
cHt+Pg==

>  <OMEGA_NBR>  (22) 
     12521

$$$$
248242
     RDKit          3D

 82 86  0  0  1  0  0  0  0  0999 V2000
    7.2062   -1.3079  -21.5940 C   0  0  0  0  0  0  0  0  0  0  0  0
    5.1811   10.5271  -21.9233 C   0  0  0  0  0  0  0  0  0  0  0  0
    7.6103    0.0144  -21.8681 C   0  0  0  0  0  0  0  0  0  0  0  0
    5.9758   -1.5536  -20.9521 C   0  0  0  0  0  0  0  0  0  0  0  0
    5.3621    9.1383  -22.0841 C   0  0  0  0  0  0  0  0  0  0  0  0
    5.6001   11.1606  -20.7364 C   0  0  0  0  0  0  0  0  0  0  0  0
    8.8050    0.2230  -14.8475 C   0  0  0  0  0  0  0  0  0  0  0  0
    8.5528    1.2026  -15.8309 C   0  0  0  0  0  0  0  0  0  0  0  0
    8.0351   -0.9602  -14.8131 C   0  0  0  0  0  0  0  0  0  0  0  0
    6.7828    1.0919  -21.5018 C   0  0  0  0  0  0  0  0  0  0  0  0
    5.1511   -0.4777  -20.5767 C   0  0  0  0  0  0  0  0  0  0  0  0
    5.9743    8.3839  -21.0632 C   0  0  0  0  0  0  0  0  0  0  0  0
    6.2072   10.4083  -19.7137 C   0  0  0  0  0  0  0  0  0  0  0  0
    6.7885   -0.2033  -16.7634 C   0  0  0  0  0  0  0  0  0  0  0  0
    9.3560   -4.4395  -17.9644 C   0  0  0  0  0  0  0  0  0  0  0  0
    7.5257    0.9984  -16.7830 C   0  0  0  0  0  0  0  0  0  0  0  0
    7.0300   -1.1808  -15.7855 C   0  0  0  0  0  0  0  0  0  0  0  0
    5.5516    0.8460  -20.8539 C   0  0  0  0  0  0  0  0  0  0  0  0
    6.4089    9.0216  -19.8782 C   0  0  0  0  0  0  0  0  0  0  0  0
    8.2605   -4.0309  -17.2485 C   0  0  0  0  0  0  0  0  0  0  0  0
    9.6403   -4.5356  -15.4981 C   0  0  0  0  0  0  0  0  0  0  0  0
    6.1114    5.9366  -18.5420 C   0  0  0  0  0  0  0  0  0  0  0  0
    7.1759    2.0297  -17.7780 C   0  0  0  0  0  0  0  0  0  0  0  0
    6.1670   -2.3861  -15.7590 C   0  0  0  0  0  0  0  0  0  0  0  0
    5.0255    7.8568  -17.3746 C   0  0  0  0  0  0  0  0  0  0  0  0
    4.4192    6.8190  -16.4312 C   0  0  0  0  0  0  0  0  0  0  0  0
    5.1062    4.9429  -17.8731 C   0  0  2  0  0  0  0  0  0  0  0  0
   10.0826   -4.5952  -14.0552 C   0  0  0  0  0  0  0  0  0  0  0  0
    4.9645   -4.2552  -16.9014 C   0  0  0  0  0  0  0  0  0  0  0  0
    4.6755    1.9982  -20.4251 C   0  0  0  0  0  0  0  0  0  0  0  0
    7.0865    8.2341  -18.7755 C   0  0  0  0  0  0  0  0  0  0  0  0
    7.0798   -3.3226  -17.8850 C   0  0  0  0  0  0  0  0  0  0  0  0
    4.4441    3.9664  -18.8692 C   0  0  2  0  0  0  0  0  0  0  0  0
    5.4091    2.8829  -19.3979 C   0  0  1  0  0  0  0  0  0  0  0  0
    8.4424   -4.1665  -15.8664 N   0  0  0  0  0  0  0  0  0  0  0  0
    6.1417    7.2851  -18.1526 N   0  0  0  0  0  0  0  0  0  0  0  0
    5.8770    2.0416  -18.2854 N   0  0  0  0  0  0  0  0  0  0  0  0
    5.9748   -3.1808  -16.9127 N   0  0  0  0  0  0  0  0  0  0  0  0
    3.9853    5.6706  -17.2332 N   0  0  0  0  0  0  0  0  0  0  0  0
    6.9660    5.5113  -19.3111 O   0  0  0  0  0  0  0  0  0  0  0  0
    8.0110    2.8498  -18.1429 O   0  0  0  0  0  0  0  0  0  0  0  0
    5.6550   -2.7149  -14.6945 O   0  0  0  0  0  0  0  0  0  0  0  0
    3.8899    4.7169  -19.9507 O   0  0  0  0  0  0  0  0  0  0  0  0
   10.6367   -4.8867  -16.8827 S   0  0  0  0  0  0  0  0  0  0  0  0
    7.8410   -2.1347  -21.8765 H   0  0  0  0  0  0  0  0  0  0  0  0
    4.7210   11.1060  -22.7104 H   0  0  0  0  0  0  0  0  0  0  0  0
    8.5542    0.2004  -22.3588 H   0  0  0  0  0  0  0  0  0  0  0  0
    5.6661   -2.5680  -20.7484 H   0  0  0  0  0  0  0  0  0  0  0  0
    5.0314    8.6522  -22.9901 H   0  0  0  0  0  0  0  0  0  0  0  0
    5.4553   12.2236  -20.6116 H   0  0  0  0  0  0  0  0  0  0  0  0
    9.5880    0.3782  -14.1199 H   0  0  0  0  0  0  0  0  0  0  0  0
    9.1427    2.1069  -15.8572 H   0  0  0  0  0  0  0  0  0  0  0  0
    8.2131   -1.6976  -14.0444 H   0  0  0  0  0  0  0  0  0  0  0  0
    7.0884    2.1055  -21.7156 H   0  0  0  0  0  0  0  0  0  0  0  0
    4.2122   -0.6650  -20.0769 H   0  0  0  0  0  0  0  0  0  0  0  0
    6.1115    7.3197  -21.1857 H   0  0  0  0  0  0  0  0  0  0  0  0
    6.5194   10.8936  -18.8008 H   0  0  0  0  0  0  0  0  0  0  0  0
    6.0278   -0.3739  -17.5108 H   0  0  0  0  0  0  0  0  0  0  0  0
    9.4132   -4.4775  -19.0422 H   0  0  0  0  0  0  0  0  0  0  0  0
    4.2477    8.2083  -18.0686 H   0  0  0  0  0  0  0  0  0  0  0  0
    5.3989    8.7052  -16.7823 H   0  0  0  0  0  0  0  0  0  0  0  0
    5.1728    6.4975  -15.6972 H   0  0  0  0  0  0  0  0  0  0  0  0
    3.5564    7.2531  -15.9047 H   0  0  0  0  0  0  0  0  0  0  0  0
    5.6468    4.3593  -17.1135 H   0  0  0  0  0  0  0  0  0  0  0  0
    9.2521   -4.2860  -13.4036 H   0  0  0  0  0  0  0  0  0  0  0  0
   10.3810   -5.6240  -13.8055 H   0  0  0  0  0  0  0  0  0  0  0  0
   10.9372   -3.9190  -13.9056 H   0  0  0  0  0  0  0  0  0  0  0  0
    4.9567   -4.7621  -17.8776 H   0  0  0  0  0  0  0  0  0  0  0  0
    5.2109   -4.9817  -16.1131 H   0  0  0  0  0  0  0  0  0  0  0  0
    3.9722   -3.8232  -16.7047 H   0  0  0  0  0  0  0  0  0  0  0  0
    4.4182    2.6043  -21.3062 H   0  0  0  0  0  0  0  0  0  0  0  0
    3.7551    1.6031  -19.9703 H   0  0  0  0  0  0  0  0  0  0  0  0
    7.9329    7.6742  -19.1999 H   0  0  0  0  0  0  0  0  0  0  0  0
    7.4555    8.9312  -18.0089 H   0  0  0  0  0  0  0  0  0  0  0  0
    7.3956   -2.3243  -18.2222 H   0  0  0  0  0  0  0  0  0  0  0  0
    6.7295   -3.9074  -18.7483 H   0  0  0  0  0  0  0  0  0  0  0  0
    3.6302    3.4526  -18.3367 H   0  0  0  0  0  0  0  0  0  0  0  0
    6.2644    3.3709  -19.8881 H   0  0  0  0  0  0  0  0  0  0  0  0
    5.2107    1.4298  -17.8591 H   0  0  0  0  0  0  0  0  0  0  0  0
    3.4939    5.0354  -16.6374 H   0  0  0  0  0  0  0  0  0  0  0  0
    3.3701    5.9989  -17.9500 H   0  0  0  0  0  0  0  0  0  0  0  0
    3.4796    4.1249  -20.5701 H   0  0  0  0  0  0  0  0  0  0  0  0
  1  3  2  0
  1  4  1  0
  2  5  2  0
  2  6  1  0
  3 10  1  0
  4 11  2  0
  5 12  1  0
  6 13  2  0
  7  8  2  0
  7  9  1  0
  8 16  1  0
  9 17  2  0
 10 18  2  0
 11 18  1  0
 12 19  2  0
 13 19  1  0
 14 16  2  0
 14 17  1  0
 15 20  2  0
 15 44  1  0
 16 23  1  0
 17 24  1  0
 18 30  1  0
 19 31  1  0
 20 32  1  0
 20 35  1  0
 21 28  1  0
 21 35  2  0
 21 44  1  0
 22 27  1  0
 22 36  1  0
 22 40  2  0
 23 37  1  0
 23 41  2  0
 24 38  1  0
 24 42  2  0
 25 26  1  0
 25 36  1  0
 26 39  1  0
 27 33  1  0
 27 39  1  0
 29 38  1  0
 30 34  1  0
 31 36  1  0
 32 38  1  0
 33 34  1  0
 33 43  1  0
 34 37  1  0
  1 45  1  0
  2 46  1  0
  3 47  1  0
  4 48  1  0
  5 49  1  0
  6 50  1  0
  7 51  1  0
  8 52  1  0
  9 53  1  0
 10 54  1  0
 11 55  1  0
 12 56  1  0
 13 57  1  0
 14 58  1  0
 15 59  1  0
 25 60  1  0
 25 61  1  0
 26 62  1  0
 26 63  1  0
 27 64  1  1
 28 65  1  0
 28 66  1  0
 28 67  1  0
 29 68  1  0
 29 69  1  0
 29 70  1  0
 30 71  1  0
 30 72  1  0
 31 73  1  0
 31 74  1  0
 32 75  1  0
 32 76  1  0
 33 77  1  1
 34 78  1  6
 37 79  1  0
 39 80  1  0
 39 81  1  0
 43 82  1  0
M  CHG  1  39   1
M  END
>  <OMEGA_C>  (23) 
GJnmQLVnp7+BwKzB+8ulQDFvKEHVYq/BN4fzQASNbDzW8a7BWjm/QFPcxr/nnafBSparQHs2EkFF
rLDB4DOzQOWRMkEy5KXBcOEMQZdZZD4xj23Bc9gIQWvvmT9yS33BqI8AQYvPdb+iAm3BoAzZQLzD
iz+oA6zBnNWkQD6a9L4knaTBnC2/QG8kBkFjgajBDaHGQHGIJkGqtZ3BLTvZQEgqUL5yG4bBFLIV
Qa4QjsAot4/BP9LwQCiafz+TQ4bBt/XgQGMll7+WkXzBeKaxQI+QWD+01KbBYxXNQHdYEEGWBp/B
MCsEQSP9gMDe/InBpz4aQQYkkcAP+HfB7ZDDQHP4vUDuVZTByaDlQPTmAUBgOY7BcFjFQB+1GMDX
JHzB6tCgQExr+0BD/4rB/2mNQHo12kAFc4PBImajQGQsnkAt/I7BMVIhQacLk8A34mDBRN2eQJoq
iMAWNofB052VQKLE/z+TZqPBlMTiQN2+A0FINJbB+o3iQPGkVMCUFI/BWDaOQCHZfUAQ9JbBKhet
QPaAOED0LpvB5xMHQS5UhcDq3H3BjYjEQCIf6UCOOJHBBxC8QOipAkB1SJLBhTG/QKqRS8AvTYfB
2w5/QOh1tUCQ3YnBSuneQEBcsEA3fZrBNC0AQVVjNkC4JJHBDPa0QKLBLcDHHGvBvvN4QOnwlkAU
m5/B3C8qQcNfnMDZD4fBTen6QD6eCMApA6/BvBKXQF2yMUHfrrXB6t0IQXc0TT7i3rLBglC1QDla
JMDN/KXBXQGhQJlvCkG467fBvJGuQLiTQ0GM5KTBZGgZQcWnwT4+62HBcUgSQRXYBkA5t33Bs2gD
QZVJ2b+3tWDB6NPiQBLABkCKua3BjcqGQClAKr9knaDBKZHDQL866kBcfKnB057QQApMLkH7Z5bB
hePAQPtwv74lFozBl5wWQY1Hj8CFVpjBgu2HQC9VA0F7jJDBmMOsQHFIC0ERQobBNoelQDTrz0Ck
J3vBGpxjQIAZ6ECfeX7B1rK0QAJ/i0Bo6IjBeAgUQeMmicDydFbBixgmQST4s8BC41zBq/4uQT3Q
esBxfV7BBp2eQC1jmMBdBY/BuL+mQHhqn8Ck54DBXDh+QFivdMBPo4XBvWGNQIutJkAXc6rBJVRw
QKsyzT82w5/Ba9r9QEKT9UB5mZnBypPuQGbmDkEjEpDBYajsQJrAFMAhx5HBzVfXQCISesCY/JXB
hFRoQJ33XEChsZLB4XXIQAC9V0DOGp/Bwr2mQG4Ctz+D347BtJxfQLQhoUBSGYXBf69XQNf2v0CP
mY/B/7BeQOf+g0CNj6TBtYniQHsKr79n3qzB9aOuQGV0KUEuJa7BcgnwQK7kS71oA6/BDh+7QNim
zL++tqfBwgezQLI0E0EVoK/B4a67QFv4MkGHdaTBDzkNQXNFyj6tCG3BQmEIQXOzqz9hEH3BHv8B
QTAZVL+nLmzBABHWQBW/hD9VBqzB2UWhQI+RA78Ao6TBkcLEQEJ6BkHRcqfBjT7NQB1FJkEtQ5zB
Q9vZQJKKGr6skoXBs/wVQZWbYcBTSIfBJhLwQIQ6iT/mD4bBiQLkQCJdjr/diXvBDKuuQBQZTj9w
zabBaRHSQGIFEEECv53B+9EDQdIXgMC+I4zBLDMSQZSkv8AIAofBiWLCQN7SvEAR/JPBrHDkQGnh
AkCFbo7BR3zLQN0hGMBtCnvB/gSgQGJk+kCRn4rBOyWKQCYu2UCFgYPBpuagQFhxnUDRCo/BG9sT
QQdd78DHbIXBpfejQLb4hsCptYbBxBmTQD2V+z8AWKPBmNfkQPCWAkGi0pTBu07jQMMcSMB8tY/B
UnmMQHaafUCwRZfB9CyrQG5SN0AlVJvBQ3oCQWagrMCzEozBX2nEQNd450A+fZDBTY+6QDH6AkCM
TpLBsiXDQALaRsAp+obBB055QGRGtUDyQ4rBfb/dQJAir0AdH5rBy4v/QDbRM0AoBJLBX2K7QOYb
LsCzAWrBTEh5QE1ql0AzDaDBa8gkQaHUmsAuMILBQ3H2QKLpDMBELq/BgkShQCc4M0HecLTBLyUH
QVmVAD6G8rLBt8KwQAIIJ8AyIKbBw8yoQELqC0GCB7fB/DO4QBIDREEqU6PB5IkZQeN1Gz/nZWHB
DyURQaxWEUB/1n3BmZ0FQc4dxr+Dz1/BNDzgQIwGA0BwuK3BtDODQITTML+/nqDBCTDIQK3e6kD1
lqjBdQvXQGyRLUHs0pTBHa/AQJXxtL5aRIvBJGAaQZHmHsCkuobBDKKIQJ1qA0Efa5DBisqrQN1j
CkH2mIXBA7GgQG/PzUDuv3rBqB9cQH6I50AzMn/BidewQMdPikCc0ojBHv4FQYQk/8DYJInBoaki
QXUm+8DUKInBMyAUQayd9sAroXnBdYWhQGZslcDctY7BbrOuQGFMn8Bx8YDBa3eEQAhOdcD0RYTB
2l6KQE7jI0AvaqrBEc9rQBoUyj8ihp/BPP3/QCWe8kD19ZfBoArwQGoxDUGdYY7B+gHvQObcBsDT
PpHBRefUQEEpYsBvDJfByuBiQE+BXUCVUJPBc2jGQKirVUBDap/BAGelQHxPuT/UsI7BgPdWQA0F
oUD1zIXBSNVUQPCzwECfL5DBT/VfQO/fhEDwLKXB

>  <OMEGA_E>  (23) 
NPHKPpjiwz4=

>  <OMEGA_NBR>  (23) 
      2886

$$$$
50147878
     RDKit          3D

 85 88  0  0  1  0  0  0  0  0999 V2000
    6.7683   -0.2087  -16.6971 C   0  0  0  0  0  0  0  0  0  0  0  0
    8.3843    1.3496  -15.7367 C   0  0  0  0  0  0  0  0  0  0  0  0
    8.0412   -0.8343  -14.7115 C   0  0  0  0  0  0  0  0  0  0  0  0
    6.8140    1.0595  -21.3414 C   0  0  0  0  0  0  0  0  0  0  0  0
    5.0014   -0.4340  -20.6664 C   0  0  0  0  0  0  0  0  0  0  0  0
    7.0954   -1.3562  -21.5095 C   0  0  0  0  0  0  0  0  0  0  0  0
    7.4232    1.0419  -16.7245 C   0  0  0  0  0  0  0  0  0  0  0  0
    7.1048   -1.1609  -15.7119 C   0  0  0  0  0  0  0  0  0  0  0  0
    8.6677    0.4257  -14.7115 C   0  0  0  0  0  0  0  0  0  0  0  0
    5.5102    0.8680  -20.8323 C   0  0  0  0  0  0  0  0  0  0  0  0
    7.6094   -0.0531  -21.6686 C   0  0  0  0  0  0  0  0  0  0  0  0
    5.7879   -1.5435  -21.0158 C   0  0  0  0  0  0  0  0  0  0  0  0
    6.0792    5.9890  -18.5835 C   0  0  0  0  0  0  0  0  0  0  0  0
    7.1048    2.0147  -17.7805 C   0  0  0  0  0  0  0  0  0  0  0  0
    6.4707   -2.4898  -15.7003 C   0  0  0  0  0  0  0  0  0  0  0  0
    5.8362    8.8665  -21.1019 C   0  0  0  0  0  0  0  0  0  0  0  0
    5.5169   10.0434  -20.1612 C   0  0  0  0  0  0  0  0  0  0  0  0
    4.8393    7.9144  -17.5950 C   0  0  0  0  0  0  0  0  0  0  0  0
    4.3576    6.9158  -16.5417 C   0  0  0  0  0  0  0  0  0  0  0  0
    5.0824    4.9875  -17.8943 C   0  0  2  0  0  0  0  0  0  0  0  0
    6.8183    9.2464  -19.9868 C   0  0  0  0  0  0  0  0  0  0  0  0
    9.7022    0.7530  -13.6588 C   0  0  0  0  0  0  0  0  0  0  0  0
    3.7327   -3.4186  -17.6031 C   0  0  0  0  0  0  0  0  0  0  0  0
    9.3561   -4.3646  -16.9984 C   0  0  0  0  0  0  0  0  0  0  0  0
    4.6580    2.0510  -20.4463 C   0  0  0  0  0  0  0  0  0  0  0  0
    7.0761    8.3194  -18.7577 C   0  0  0  0  0  0  0  0  0  0  0  0
    4.6563   -4.6333  -17.8120 C   0  0  0  0  0  0  0  0  0  0  0  0
    8.4739   -4.1577  -18.2430 C   0  0  0  0  0  0  0  0  0  0  0  0
    5.7968   -4.6597  -16.7802 C   0  0  0  0  0  0  0  0  0  0  0  0
    7.4037   -3.0831  -17.9884 C   0  0  0  0  0  0  0  0  0  0  0  0
    4.4128    4.0058  -18.8790 C   0  0  2  0  0  0  0  0  0  0  0  0
    5.3741    2.9186  -19.3958 C   0  0  1  0  0  0  0  0  0  0  0  0
    5.9881    7.3772  -18.3495 N   0  0  0  0  0  0  0  0  0  0  0  0
    5.8062    2.0648  -18.2753 N   0  0  0  0  0  0  0  0  0  0  0  0
    6.5684   -3.3854  -16.7891 N   0  0  0  0  0  0  0  0  0  0  0  0
    3.9565    5.6925  -17.2397 N   0  0  0  0  0  0  0  0  0  0  0  0
    7.0297    5.5401  -19.2137 O   0  0  0  0  0  0  0  0  0  0  0  0
    7.9804    2.7578  -18.2111 O   0  0  0  0  0  0  0  0  0  0  0  0
    5.8890   -2.8201  -14.6725 O   0  0  0  0  0  0  0  0  0  0  0  0
    3.8621    4.7502  -19.9656 O   0  0  0  0  0  0  0  0  0  0  0  0
    8.8646    0.1309  -22.1366 F   0  0  0  0  0  0  0  0  0  0  0  0
    5.2840   -2.7891  -20.8749 F   0  0  0  0  0  0  0  0  0  0  0  0
    6.0092   -0.4366  -17.4308 H   0  0  0  0  0  0  0  0  0  0  0  0
    8.9037    2.2960  -15.7673 H   0  0  0  0  0  0  0  0  0  0  0  0
    8.2792   -1.5535  -13.9418 H   0  0  0  0  0  0  0  0  0  0  0  0
    7.1994    2.0590  -21.4790 H   0  0  0  0  0  0  0  0  0  0  0  0
    4.0070   -0.5794  -20.2708 H   0  0  0  0  0  0  0  0  0  0  0  0
    7.7032   -2.2113  -21.7659 H   0  0  0  0  0  0  0  0  0  0  0  0
    5.2579    7.9334  -21.0313 H   0  0  0  0  0  0  0  0  0  0  0  0
    6.0968    9.0577  -22.1533 H   0  0  0  0  0  0  0  0  0  0  0  0
    5.5501   11.0756  -20.5400 H   0  0  0  0  0  0  0  0  0  0  0  0
    4.7112    9.9512  -19.4181 H   0  0  0  0  0  0  0  0  0  0  0  0
    4.0165    8.1240  -18.2943 H   0  0  0  0  0  0  0  0  0  0  0  0
    5.1419    8.8462  -17.0949 H   0  0  0  0  0  0  0  0  0  0  0  0
    5.1712    6.6945  -15.8352 H   0  0  0  0  0  0  0  0  0  0  0  0
    3.4998    7.3332  -15.9940 H   0  0  0  0  0  0  0  0  0  0  0  0
    5.6389    4.4080  -17.1431 H   0  0  0  0  0  0  0  0  0  0  0  0
    7.7176    9.7724  -20.3397 H   0  0  0  0  0  0  0  0  0  0  0  0
    9.2119    1.2326  -12.7988 H   0  0  0  0  0  0  0  0  0  0  0  0
   10.1960   -0.1732  -13.3296 H   0  0  0  0  0  0  0  0  0  0  0  0
   10.4518    1.4378  -14.0820 H   0  0  0  0  0  0  0  0  0  0  0  0
    2.9315   -3.4326  -18.3566 H   0  0  0  0  0  0  0  0  0  0  0  0
    3.2905   -3.4631  -16.5969 H   0  0  0  0  0  0  0  0  0  0  0  0
    4.3167   -2.4921  -17.7063 H   0  0  0  0  0  0  0  0  0  0  0  0
   10.1112   -5.1366  -17.2077 H   0  0  0  0  0  0  0  0  0  0  0  0
    9.8586   -3.4197  -16.7441 H   0  0  0  0  0  0  0  0  0  0  0  0
    8.7287   -4.6851  -16.1536 H   0  0  0  0  0  0  0  0  0  0  0  0
    4.4579    2.6590  -21.3409 H   0  0  0  0  0  0  0  0  0  0  0  0
    3.7069    1.6896  -20.0283 H   0  0  0  0  0  0  0  0  0  0  0  0
    7.9654    7.7135  -18.9855 H   0  0  0  0  0  0  0  0  0  0  0  0
    7.2864    8.9697  -17.8958 H   0  0  0  0  0  0  0  0  0  0  0  0
    4.0632   -5.5543  -17.7126 H   0  0  0  0  0  0  0  0  0  0  0  0
    5.0894   -4.5833  -18.8220 H   0  0  0  0  0  0  0  0  0  0  0  0
    9.1079   -3.8415  -19.0845 H   0  0  0  0  0  0  0  0  0  0  0  0
    7.9779   -5.1069  -18.4940 H   0  0  0  0  0  0  0  0  0  0  0  0
    5.3693   -4.8121  -15.7782 H   0  0  0  0  0  0  0  0  0  0  0  0
    6.4763   -5.4911  -17.0192 H   0  0  0  0  0  0  0  0  0  0  0  0
    7.9039   -2.1154  -17.8357 H   0  0  0  0  0  0  0  0  0  0  0  0
    6.7479   -3.0219  -18.8694 H   0  0  0  0  0  0  0  0  0  0  0  0
    3.5975    3.5002  -18.3407 H   0  0  0  0  0  0  0  0  0  0  0  0
    6.2468    3.4006  -19.8605 H   0  0  0  0  0  0  0  0  0  0  0  0
    5.1192    1.4820  -17.8413 H   0  0  0  0  0  0  0  0  0  0  0  0
    3.5382    5.0724  -16.5761 H   0  0  0  0  0  0  0  0  0  0  0  0
    3.2846    5.9339  -17.9400 H   0  0  0  0  0  0  0  0  0  0  0  0
    3.4467    4.1555  -20.5790 H   0  0  0  0  0  0  0  0  0  0  0  0
  1  7  2  0
  1  8  1  0
  2  7  1  0
  2  9  2  0
  3  8  2  0
  3  9  1  0
  4 10  2  0
  4 11  1  0
  5 10  1  0
  5 12  2  0
  6 11  2  0
  6 12  1  0
  7 14  1  0
  8 15  1  0
  9 22  1  0
 10 25  1  0
 11 41  1  0
 12 42  1  0
 13 20  1  0
 13 33  1  0
 13 37  2  0
 14 34  1  0
 14 38  2  0
 15 35  1  0
 15 39  2  0
 16 17  1  0
 16 21  1  0
 17 21  1  0
 18 19  1  0
 18 33  1  0
 19 36  1  0
 20 31  1  0
 20 36  1  0
 21 26  1  0
 23 27  1  0
 24 28  1  0
 25 32  1  0
 26 33  1  0
 27 29  1  0
 28 30  1  0
 29 35  1  0
 30 35  1  0
 31 32  1  0
 31 40  1  0
 32 34  1  0
  1 43  1  0
  2 44  1  0
  3 45  1  0
  4 46  1  0
  5 47  1  0
  6 48  1  0
 16 49  1  0
 16 50  1  0
 17 51  1  0
 17 52  1  0
 18 53  1  0
 18 54  1  0
 19 55  1  0
 19 56  1  0
 20 57  1  1
 21 58  1  0
 22 59  1  0
 22 60  1  0
 22 61  1  0
 23 62  1  0
 23 63  1  0
 23 64  1  0
 24 65  1  0
 24 66  1  0
 24 67  1  0
 25 68  1  0
 25 69  1  0
 26 70  1  0
 26 71  1  0
 27 72  1  0
 27 73  1  0
 28 74  1  0
 28 75  1  0
 29 76  1  0
 29 77  1  0
 30 78  1  0
 30 79  1  0
 31 80  1  1
 32 81  1  6
 34 82  1  0
 36 83  1  0
 36 84  1  0
 40 85  1  0
M  CHG  1  36   1
M  END
>  <OMEGA_C>  (24) 
hpXYQO62Vb6/k4XBFiYGQXO/rD+ayXvB5KgAQS+UVb9GYmvBsQzaQOuehz8ju6rBaQugQBQ63r7N
VKXBiA3jQHmYrb+ME6zBeortQB5dhT/Ty4XB6FrjQFOYlL/aY3vBA68KQdPw2T4mYmvB6lOwQDoz
Xj+kqKbBkIDzQNGBWb1PWa3Bsza5QO+Rxb9cIKjBpojCQNOlv0AGq5TBhVrjQBPwAEBzPo7BFRDP
QIhYH8BaNHvBv8G6QDjdDUGd0KjBn4qwQLSxIEEkSqHBz9uaQHdC/UCRwozBo3GLQOlN3UBYVYTB
6aKiQNeZn0CUJ4/ByC/aQCDxE0H75J/BJTwbQYjGQD9ailrB6ORuQOTJWsA204zBdLIVQZyqi8Cf
/IfBRw6VQE9DA0AAkqPBG2/iQGMcBUHHD5bBeACVQABElMAHf47BQpUHQaULhcCa8ZHBkX+5QJ4c
lcDGPYbBtursQGNRRcA06I/BYDWNQKIvgEAoCJfBQPirQGPKOkCtKpvBQp6/QNYR7ECwy5LBesy5
QJclBEDGM5LB7y/SQCGrWMAsUIbBHDd9QCEptkD66onBEvPgQBpIsUCctZnBdF//QE2AMEBnsJHB
qXK8QMN8NMB6wmrBWix3QF8BmECLuZ/BjtUNQV4CBj7KF7HBRxapQLqAMsDL/6bBVUvAQG2F375c
covBgXUOQc7xEkCpRnzBdXcEQcTZxr9rEV/BhWHmQOXGA0AK1avBuDmAQNZVFL+GKqLB+4D2QBSG
DcCqIK7B5ECoQH3e/UAkQKjBPhnDQHjsEEHrObHBJ5qxQIM1MUH4UaTBzcGWQEk4H0EyWJvBKoeA
QPD7AUGyWpLBuIqkQBmKDUFkwojBj3qlQF451kDvXH3BYf1fQMOp6kB153/B/HG0QAkOjUADJYnB
6vb2QLNbHEHAt6LBz2MTQRrFnT+9x0zBwSIjQWtPMb4hRlXBvzonQSQJuD/wT2HB95w7QG2wW8Bl
2pLBEpdSQKujXcCGxoTBKCKKQH5+H8CEpo3BXschQd9epMBaqYnB7rwdQWfcWsDl84XBlqgLQQfs
lcCFOoHB6aaOQEAsKkAquqrBKD1tQMRD2D/yOaDBm+T+QOXU9kBb4pfBFyrpQNaDD0GJKo/BewWC
QBa9scBfs43BGdyiQICqksBek5bB4bkRQR3bdcAIrZjBE0v/QGJro8Co85PBRdGrQKH8mcBXc3zB
GT7PQA+3r8A+J4jBm+z8QIpiB8B1r47Bl+7XQE9mQcCM9JbBUT1mQPMDYEDMuZLB/uXHQA2kWUBP
4p7BINCjQOGyvT8Au47BHHFiQEBRokDDm4TBDzdSQH3ivUAKhY/B/JVcQAH6hEDgoaTBSkvbQMGn
x72xOoXB0zcHQWJnvT80RnvBc0gCQSQsNb8iz2rB8H3bQCyqgz8ms6rBaIehQJ5a6b5oGqXBqrLk
QLPXsb+fpavBoorvQC3KlD/qfoXBlMfmQCuShb+ExHrBOwMMQckKDz8u32rBUrmxQExfWD9jpqbB
Mgv1QN07tb1LHa3BTui6QGglyb/WqKfBdGDBQDmkwEDjbpTBqCbkQM++CEDu343BRj/SQPTdFsB+
OnrB7sDTQBE6JEFauqXBVoi9QMYxEEEpQKrBUJubQGQs+0B/gorBiOaKQJn510BDMIPB0JOiQA7q
nkASRI/B7hy9QPGoFEE7NJ7BO3QcQayzZT89AlrBd05cQLKXmcANFo/BGf4RQcrQl8CiRonByoGW
QKdvAkCrwaPB0gDZQJ+zBkEUv5bBYEqLQNbbbMBQ54rBZgkPQWV+U8BiXI3BfMO0QPk7isDfm4bB
FMPuQDW1P8DPfo/BIAWOQM8PgECMZpfBGkmtQJwmO0CRbpvBmNS+QDMH7EDsdJHBqou7QLdBBUAU
bpLBAuLTQA0fT8AX4YXBnRV8QF0GtEDG74nB3vLdQCuHtEBdcJrBDCr+QBMgP0BeqJDBoKy9QGl+
KcBsKmrB5TN6QLtImEB4H6DBkqUOQWNWtj3K0LDBFjGrQN1UNMB9OqbB/O/CQMjqrL67DIvBX2EP
QauVG0Dl03vBqUAGQY0vtr+ofV7BEMznQJanAUDw8KvBPaeBQLFsGL8A9aHByDX4QCLWD8BUlK3B
iuP2QENLJUHltqXBABLGQFssNEEYM6fBo/CfQMHNEUGL8q7BLcLQQKrsAkFZdq3BXjKBQJJBA0Eb
l4/Bk2qnQMLhCkGCjoXBUDykQFnUzUDiQnvBbXdeQDm640AxOH3Bkse0QLccjEBqYYnBsXieQAwf
GkGa15rBG30UQZ4xrz/sPkzBQIokQTqFvLw4wlTBfFAoQcjZyz/CvWDBYdQgQONXi8AeKpLBt998
QGD6qsCpkJXBkgtNQJbrr8BVjojBbxQjQQvtncCD0ofBZAYJQY0DnMDoxoHBFPsLQZhzrsC6To/B
y1GQQKdfKECaAavBbO1vQMPc1z8kaKDBDEnyQNLt/UARfpvBdKrnQNfwEEFLmZDB5OiSQFg1QMBi
b5HBo/11QMUXSsAObYTBXiYVQf+jJsBOTofBDhsYQRaES8Ag1pTBtz6vQFxPmMDqUn3BTFvAQLoj
o8BoHIzBrbXrQGVW+L+925HBklzjQBDiaMAeCpbBHx5nQF0gX0B6UZPBjvjIQJ9mWkDWNZ/BAaGm
QGK5tj9DZI/BHQxeQHZxnkB0YIXBgfNTQI7QvkDejY/Blb5gQMl1hUDeK6XBk6LaQILuj74fmoXB
uDUIQV3joT88ZH3BF/8CQcKMZr+iOmzBnovYQKqUgD/pEavBPuSfQPzn9L5AqqTBO1viQOXbtL9R
oavBjfTvQCdcdz8vLobBTNTlQP2um787L3vB7HANQXRysT7BJW3BlmqvQPkxUj/7oabBRRbyQGRt
5r0Cf63B3D65QPsGzL9IOKfBAEvCQCHtvkB5npTBmPLjQNQg/D/6Uo7BBdDMQPIfHcCWl3jBNlGk
QEf9DkFHvabBPvXEQBkaIUERxqXB3JCcQFBc+0Chc4vBLOSMQDSi2UD+h4PBDoujQJ78nUCeD4/B
AUjSQCn6CUGpEaPB+7geQQcoMD+mIF3ByIyBQGC8VMB25ozBj40UQWmle8AduJfBqJyUQGXkAEBv
jaPBWffcQGclBUGPM5fBvM2aQM+nlMDfhozBNrIBQSBsUsCk45HBze23QJo+mMCciILBF+8AQV1i
dcCqcIbBu7CNQM1RfUBl4pbB+ROsQEOHN0DoIpvBRtm/QBvH6kDoJZLBDV26QJYc/z8MTJLBhJTX
QJbCacBmhYHBxz9/QPT5s0AnpInBiu7eQNb8sUC6fprBxkT+QGNrM0BdP5HB4catQGiWGsCioWzB
Dhx3QOOclkDMf5/B4OAMQcAchD07krHBtxuqQPSuNcABZ6XB4sPBQPfOBL/LSovBsKsQQaUSDUAV
an7BoFQHQS/azr8aCGDBT17kQDgUAEAdmazBV4yAQFHrHb+sMqHB7dH1QAFfEcDSlK3BHq+JQCvn
DUHdAqHBRliZQEvDCUGbrq7BRXTRQC3jKEFwBa3BHcvBQA0HLUGyWZ/BBdKBQMNmAkHJqZDBLvyn
QC+5C0Eb+4bBdOOmQFX+0EDTAnzB3zNjQAo35kCw5X3B+xO2QIt/i0CvLYnB6MrmQJwAAkF9AanB
moMXQWArmD+GNk/Bhr4mQX5EcL6q41fBdn0qQefkrT8XoGTBmBJbQOlMU8AgI5TBxBNaQJbiT8A+
xoXBPQmYQCWWHsCpDY3BC1IVQQwtY8Ap9p/BN4EjQQ3ya8Abg5PBpmkSQYbBoMAY4ZfBfnmOQG0O
KEDIs6rBoglsQOU41T8zNaDB9Mr9QNKw/UA6y5bB8AnbQGMyFEFNqpLBK+6DQLpor8DdcozBhu2u
QILClsBIupPBDcwDQQaLDMDesZHB+GjlQAUcYsDbD5bBD3yjQFAomMB7vXbBon/JQJ+xtsDi+oLB
fbkEQRYPncBRnYbBDO4MQVyNU8CMlYHBvZlnQGUJXUDWfpLBXuvHQGxJVkD3557B2tWkQHvGsD+T
+I7BWlljQOVIn0AnooTBTQVVQIA3vUDnMI/B6vpbQPmlg0A3YKTB

>  <OMEGA_E>  (24) 
qCwUPixIoT4AZLI+

>  <OMEGA_NBR>  (24) 
     11492

$$$$
50147867
     RDKit          3D

 83 87  0  0  1  0  0  0  0  0999 V2000
    5.5343   10.4255  -21.8918 C   0  0  0  0  0  0  0  0  0  0  0  0
    5.6242    9.0229  -21.9950 C   0  0  0  0  0  0  0  0  0  0  0  0
    5.9670   11.0765  -20.7196 C   0  0  0  0  0  0  0  0  0  0  0  0
    6.1515    8.2708  -20.9271 C   0  0  0  0  0  0  0  0  0  0  0  0
    6.4926   10.3270  -19.6510 C   0  0  0  0  0  0  0  0  0  0  0  0
    6.7212   -0.0539  -16.6129 C   0  0  0  0  0  0  0  0  0  0  0  0
    6.7222    1.0090  -21.4024 C   0  0  0  0  0  0  0  0  0  0  0  0
    4.8691   -0.4545  -20.7722 C   0  0  0  0  0  0  0  0  0  0  0  0
    6.9383   -1.4070  -21.6405 C   0  0  0  0  0  0  0  0  0  0  0  0
    8.1152   -0.6840  -14.7289 C   0  0  0  0  0  0  0  0  0  0  0  0
    8.4650    1.3989  -15.7558 C   0  0  0  0  0  0  0  0  0  0  0  0
    7.0934   -0.9981  -15.6524 C   0  0  0  0  0  0  0  0  0  0  0  0
    7.4303    1.1514  -16.6917 C   0  0  0  0  0  0  0  0  0  0  0  0
    6.5899    8.9237  -19.7505 C   0  0  0  0  0  0  0  0  0  0  0  0
    5.4161    0.8370  -20.8931 C   0  0  0  0  0  0  0  0  0  0  0  0
    7.4860   -0.1143  -21.7644 C   0  0  0  0  0  0  0  0  0  0  0  0
    5.6272   -1.5741  -21.1509 C   0  0  0  0  0  0  0  0  0  0  0  0
    6.0956    5.8768  -18.4566 C   0  0  0  0  0  0  0  0  0  0  0  0
    6.4902   -2.3323  -15.6912 C   0  0  0  0  0  0  0  0  0  0  0  0
    7.0972    2.1064  -17.7608 C   0  0  0  0  0  0  0  0  0  0  0  0
    8.4049   -3.8870  -18.1179 C   0  0  0  0  0  0  0  0  0  0  0  0
    7.5837   -5.1163  -17.7618 C   0  0  0  0  0  0  0  0  0  0  0  0
    7.3793   -2.7788  -18.0509 C   0  0  0  0  0  0  0  0  0  0  0  0
    4.9869    7.8089  -17.3417 C   0  0  0  0  0  0  0  0  0  0  0  0
    4.2952    6.7813  -16.4469 C   0  0  0  0  0  0  0  0  0  0  0  0
    5.0252    4.9046  -17.8674 C   0  0  2  0  0  0  0  0  0  0  0  0
    6.4661   -4.5915  -16.8288 C   0  0  2  0  0  0  0  0  0  0  0  0
    3.5813   -3.3394  -18.0864 C   0  0  0  0  0  0  0  0  0  0  0  0
    4.5958    2.0273  -20.4726 C   0  0  0  0  0  0  0  0  0  0  0  0
    7.1562    8.1381  -18.5856 C   0  0  0  0  0  0  0  0  0  0  0  0
    5.0620   -5.0759  -17.2608 C   0  0  0  0  0  0  0  0  0  0  0  0
    4.3915    3.9742  -18.9183 C   0  0  2  0  0  0  0  0  0  0  0  0
    5.3531    2.8911  -19.4458 C   0  0  1  0  0  0  0  0  0  0  0  0
    8.7755    0.4984  -14.7889 N   0  0  0  0  0  0  0  0  0  0  0  0
    6.1428    7.2138  -18.0393 N   0  0  0  0  0  0  0  0  0  0  0  0
    6.5873   -3.1167  -16.8475 N   0  0  0  0  0  0  0  0  0  0  0  0
    5.8241    2.0489  -18.3320 N   0  0  0  0  0  0  0  0  0  0  0  0
    3.8861    5.6496  -17.2827 N   0  0  0  0  0  0  0  0  0  0  0  0
    6.9776    5.4442  -19.1895 O   0  0  0  0  0  0  0  0  0  0  0  0
    5.9715   -2.7819  -14.6760 O   0  0  0  0  0  0  0  0  0  0  0  0
    7.9439    2.8984  -18.1577 O   0  0  0  0  0  0  0  0  0  0  0  0
    3.8950    4.7678  -19.9977 O   0  0  0  0  0  0  0  0  0  0  0  0
    4.5540   -4.3583  -18.4119 O   0  0  0  0  0  0  0  0  0  0  0  0
    8.7444    0.0491  -22.2302 F   0  0  0  0  0  0  0  0  0  0  0  0
    5.0992   -2.8115  -21.0322 F   0  0  0  0  0  0  0  0  0  0  0  0
    5.1331   11.0021  -22.7122 H   0  0  0  0  0  0  0  0  0  0  0  0
    5.2890    8.5248  -22.8928 H   0  0  0  0  0  0  0  0  0  0  0  0
    5.8953   12.1512  -20.6412 H   0  0  0  0  0  0  0  0  0  0  0  0
    6.2211    7.1959  -21.0061 H   0  0  0  0  0  0  0  0  0  0  0  0
    6.8223   10.8276  -18.7526 H   0  0  0  0  0  0  0  0  0  0  0  0
    5.8987   -0.2507  -17.2846 H   0  0  0  0  0  0  0  0  0  0  0  0
    7.1333    2.0014  -21.5136 H   0  0  0  0  0  0  0  0  0  0  0  0
    3.8678   -0.5840  -20.3888 H   0  0  0  0  0  0  0  0  0  0  0  0
    7.5237   -2.2702  -21.9209 H   0  0  0  0  0  0  0  0  0  0  0  0
    8.3749   -1.3983  -13.9617 H   0  0  0  0  0  0  0  0  0  0  0  0
    9.0188    2.3243  -15.8130 H   0  0  0  0  0  0  0  0  0  0  0  0
    9.2138   -3.7247  -17.3904 H   0  0  0  0  0  0  0  0  0  0  0  0
    8.8319   -3.9730  -19.1280 H   0  0  0  0  0  0  0  0  0  0  0  0
    7.1519   -5.5689  -18.6666 H   0  0  0  0  0  0  0  0  0  0  0  0
    8.2054   -5.8595  -17.2411 H   0  0  0  0  0  0  0  0  0  0  0  0
    7.8658   -1.7985  -17.9394 H   0  0  0  0  0  0  0  0  0  0  0  0
    6.7460   -2.7736  -18.9502 H   0  0  0  0  0  0  0  0  0  0  0  0
    4.2677    8.1774  -18.0880 H   0  0  0  0  0  0  0  0  0  0  0  0
    5.3347    8.6486  -16.7220 H   0  0  0  0  0  0  0  0  0  0  0  0
    4.9914    6.4368  -15.6681 H   0  0  0  0  0  0  0  0  0  0  0  0
    3.4111    7.2340  -15.9742 H   0  0  0  0  0  0  0  0  0  0  0  0
    5.5015    4.2893  -17.0900 H   0  0  0  0  0  0  0  0  0  0  0  0
    6.6624   -4.9591  -15.8108 H   0  0  0  0  0  0  0  0  0  0  0  0
    3.2464   -2.8433  -19.0093 H   0  0  0  0  0  0  0  0  0  0  0  0
    2.7186   -3.8030  -17.5856 H   0  0  0  0  0  0  0  0  0  0  0  0
    4.0387   -2.5967  -17.4163 H   0  0  0  0  0  0  0  0  0  0  0  0
    4.3701    2.6386  -21.3587 H   0  0  0  0  0  0  0  0  0  0  0  0
    3.6566    1.6745  -20.0216 H   0  0  0  0  0  0  0  0  0  0  0  0
    8.0258    7.5587  -18.9292 H   0  0  0  0  0  0  0  0  0  0  0  0
    7.4701    8.8374  -17.7966 H   0  0  0  0  0  0  0  0  0  0  0  0
    5.1199   -6.1457  -17.5101 H   0  0  0  0  0  0  0  0  0  0  0  0
    4.3661   -4.9322  -16.4211 H   0  0  0  0  0  0  0  0  0  0  0  0
    3.5468    3.4594  -18.4371 H   0  0  0  0  0  0  0  0  0  0  0  0
    6.2073    3.3760  -19.9408 H   0  0  0  0  0  0  0  0  0  0  0  0
    5.1806    1.3828  -17.9550 H   0  0  0  0  0  0  0  0  0  0  0  0
    3.3502    5.0189  -16.7214 H   0  0  0  0  0  0  0  0  0  0  0  0
    3.3181    5.9963  -18.0291 H   0  0  0  0  0  0  0  0  0  0  0  0
    3.5016    4.2025  -20.6521 H   0  0  0  0  0  0  0  0  0  0  0  0
  1  2  2  0
  1  3  1  0
  2  4  1  0
  3  5  2  0
  4 14  2  0
  5 14  1  0
  6 12  2  0
  6 13  1  0
  7 15  2  0
  7 16  1  0
  8 15  1  0
  8 17  2  0
  9 16  2  0
  9 17  1  0
 10 12  1  0
 10 34  2  0
 11 13  2  0
 11 34  1  0
 12 19  1  0
 13 20  1  0
 14 30  1  0
 15 29  1  0
 16 44  1  0
 17 45  1  0
 18 26  1  0
 18 35  1  0
 18 39  2  0
 19 36  1  0
 19 40  2  0
 20 37  1  0
 20 41  2  0
 21 22  1  0
 21 23  1  0
 22 27  1  0
 23 36  1  0
 24 25  1  0
 24 35  1  0
 25 38  1  0
 26 32  1  0
 26 38  1  0
 27 31  1  0
 27 36  1  0
 28 43  1  0
 29 33  1  0
 30 35  1  0
 31 43  1  0
 32 33  1  0
 32 42  1  0
 33 37  1  0
  1 46  1  0
  2 47  1  0
  3 48  1  0
  4 49  1  0
  5 50  1  0
  6 51  1  0
  7 52  1  0
  8 53  1  0
  9 54  1  0
 10 55  1  0
 11 56  1  0
 21 57  1  0
 21 58  1  0
 22 59  1  0
 22 60  1  0
 23 61  1  0
 23 62  1  0
 24 63  1  0
 24 64  1  0
 25 65  1  0
 25 66  1  0
 26 67  1  1
 27 68  1  1
 28 69  1  0
 28 70  1  0
 28 71  1  0
 29 72  1  0
 29 73  1  0
 30 74  1  0
 30 75  1  0
 31 76  1  0
 31 77  1  0
 32 78  1  1
 33 79  1  6
 37 80  1  0
 38 81  1  0
 38 82  1  0
 42 83  1  0
M  CHG  1  38   1
M  END
>  <OMEGA_C>  (25) 
nxixQPbOJkFgIq/BtPmzQOBdEEHS9a/BzfG+QEQ5MUGrwaXBs9jEQARVBEGgaqfBV8PPQIc7JUFL
NZ3BExTXQEjjXL0m54TBXBzXQG4lgT8yOKvBac+bQDi36L50LabB4QbeQFQYtL+nH63B89cBQXAY
L7+yqWvBzXAHQZYNsz+hF3zBJ/3iQOGCf78wcHrBacXtQHphkz+uiIXBTeDSQFDHDkHuAJ7B5VCt
QJVCVj8gJafB9YzvQM4q6r1lHa7BVRK0QOR8yb/4NKnBgA/DQAAPvEA3p5PB8K/PQHVEFcA+D3vB
SRzjQJbPBkAdFo7BW3oGQQ/EeMCJ8ZDBAa7yQBq5o8AbGI7BRCPsQGvXMcAuaJDBzJSfQNzi+UDf
u4rB/nGJQFsA2UBFk4PBOs6gQMvynECI8I7BMurOQIftksBJoYbB8DNlQGu5VcDwsJDBKRGTQEC/
AUDQx6PB0P/kQI81AkFDr5TB6fuhQF1tosAqForBz4aMQIRYfkCqWJfBR0yrQDUHOUDmkJvBj2gM
Qcop/z5Zn2zBk5HEQF3X5kCHUJDBwsrSQK54R8CUx4bBZF+6QMQhA0ACqJLBHrZ4QELJtEACQ4rB
tUjfQIo2rkAShJnBNha/QCsLMsC/0GrBtzT+QM5+OUACQ5HBwEd5QIiRmEBM+5/BnrqRQIh3i8Cd
S5PBG+kLQfBAST1s17HBVCyjQBPwM8DrQajBa0KkQKkIMEGFsrXBxz+pQKZlCEFkJLfBJqa8QHxr
QkEiIaXBMxPHQOJE5kCVDKjBBlDaQAc+LUFkBZbBdMK8QFxYgL7jRorBEETkQLUXAEDfG6zBdol3
QGOAFb8pHKPBhsLwQGxKEcDuXa/Bk/8FQXT8sr8WY1/B3UwQQdTBFEAbAn3B2WsTQfhgbsChH4vB
dk8NQQxFfsArBpnBRtzkQBs0ssA3VZXBd0kDQWuBu8Cu7YnBdrT7QKI15r/Yg4/BGt/XQEWDMcAa
mpfB85CIQH/WAkFTtJDBPbaqQIZgCkGyxoXBpbmfQBf6zUCFsHrBd09aQBR950BCln/BnAywQDBC
iUBCuIjBdTLVQDyxnsDl+HzBN8RPQCv5NcD5EpjB6PwtQBdkc8BDr4zBbD2BQG8wJsCAVIvB/NeL
QIXfKECy3qrBHgZqQMZW1j8jLKDB3WkAQcHg8UD8bpfB/ArvQAFmDUGCX47B09WjQEGpxMDDFIzB
SbeLQDvUncByXoPBTP5iQCdnXUAof5PBM6LGQGcQWEDXhp/BXcelQHoAsT/no4/BV2pWQPyaoEBa
xYXBQ1xUQBfiv0CrO5DBehpgQBR7hkCGN6XBLfC2QOiNKUGIjqzB35i6QERlE0Fjca7BrSbDQHsp
MkGymKLBBaPKQGvWBUHoYKbBAQDTQF+jJEHrg5rBsbjaQGRYD76bzITBqkTVQJ4jmT+kBq3BX8mg
QPpH7b54OafBn0zjQD6Ylr+Vrq/Bf94DQdUdBL9eZWrBf/AHQZb7uz+h6X3BrZrnQNo7dr9JjnjB
CxXvQPBdjD/5MIbB7/zWQDJ4DkE/YpzBA6StQFMMYT88NqjBeUPwQIRlKz7Io7DBbWG7QCJ7vr8z
EqvBYjbCQKuYuUBHjpPBnOLRQAoiD8D4CnXBHVziQKLW/j9tAo/BhmrRQH4LhcCDE5TBfhG7QFFI
pMBKoozBKxHpQIHoTsCxcYzBYomhQMcd90BT2InBJTuJQO/t1UDyOIPB4SufQKXQmkAyCo/B4z2v
QK8nicCDzYLBTL85QGhTTsAr8JPB6u+QQFI7/D+gEKTB58LnQP0uAEEJipPB2qCAQN1AccBLVIPB
rKSKQBAse0CdkJfBa+GoQNStNEAZwpvBXrINQRnLLD8RT23BHcPFQBZ740Dhn4/BWBzNQJcXScCK
54LBPX64QLD8+j+T8JLBWHx2QGN7s0BXYorBf2ndQJ73q0DCvZnBune/QF7SGsD2+WPBF9L8QHE7
MUBDsJLBSId4QKe6l0DUPKDB5jh2QAIbNMAW6ovBYSwLQQ4s8T7BJ7XBzzquQN5XMcBofqrBzMKq
QBLyM0GkwLLBKBuxQNzODEHkEbbB+FjAQB0lQ0HeKaHBzn/NQK256UDu06fBkSHcQBM/K0GJ3ZLB
pZzBQNrQ6L7vLIrBOMzeQCaeDkBQ7a3BS4uCQM2UNL+MhKPBufb3QGPv+7+Se7LBJ2YIQah+kb+2
/1zB4xMQQSZKGkCUFoDBNOfnQMLLlcBXZZnBwhG6QBtSZsBn6ZjB2zGeQBqCscDRbZDB76zQQJmR
vsCTYYrB4zMEQZD4acCxS4rBrpPtQFNoD8CAEpDBGX2LQDHCAkEqr4/BRtutQEURCEGyeYTBSlqe
QGTTyECc+3nBYWlaQET35EAe537BdcWtQHulhkDB0YjB55qzQL4/nMBV+3bBxxs1QNCaHMAcJJrB
AjhPQO9WhcCNlpfBl0D1PwHIV8CPOZDBut2GQDcXJ0Blw6rB0iRpQHaNwj9iTaDB/T4BQW4b7UAf
o5bB7RbzQGsyCkEj4YzB2w9WQIfmk8Bbq4TBnChxQOY6UsB5YXfBhM9dQB98W0BP3pPBQ1TEQDNx
U0ALtJ/BoN2jQHXyqD8Rm4/BMlFRQLFln0CVPIbBLKZUQB5kwEDUW5DBmglfQD0yhkD2kKXBUk6w
QHWdJkHwPK/BbWa+QP0hMUGB6aXBUSyzQFQqEEHIAbDB4m3PQGg8JUFCW53BskjEQNg5BEGcdafB
1VrXQACvdL2e/4TBL7PWQD5wfj+ULqvBmoGbQFIW7b5A8KXBpWDdQLkwtr+qBK3B4soBQfBTM7/P
xmvBTnoHQZW/sT9383vBBgjjQLP8gL+2p3rB4fXtQHb6kj+YgoXBbYjSQPzFDkHlF57Bag+tQAqt
Uz+wAKfBkvDuQJSNB74BGq7BnZOzQEMBy7/S/KjBGDDDQGQ9vEAArpPBR8TPQJfIFcCgbHvBNCrj
QJFvB0BE9I3BxEwHQT3/eMBV2ZDB8NPzQInLo8DrTo7BiLjtQNUpMsDfbpDBcdGfQK0G+kDMtYrB
lomJQHUc2UD/lYPB3QWhQFwdnUAD8Y7BZnjQQDJEk8BksobBUqNlQDqpWMDsUpDBuAOTQC9kAUCj
p6PBKvfkQO1QAkEMxZTBvW+jQLEro8BH5InBPMSMQOd0fkAAUpfB6nirQAXwOEBigZvBUmUMQZEE
9j5BlWzBZ8LEQEz/5kBQUpDBt8XTQDQYSMDK6obBopC6QPY7A0DOlpLBRgx5QMbvtEBtSorBTjzf
QAFyrkCAmpnBqt2+QAvKMsCeSGvBwOv9QDmMO0Dy8JDB8Nh5QEp7mECb/J/BcWeSQBtZjMBWCJPB
wYYLQWCe2zxF8bHB2qiiQGKdNMBm86fBZkqjQHrEL0H+zbXBuiG8QA9WQkF/VKXB70CoQKQdCEH2
JbfBQCbaQIRTLUExNZbB34fGQPYL5kByDajBpEq9QG6mgr7qc4rBpOTjQKsU/j8EIqzBAyx3QKqx
Fr9iyKLBSffvQCt9EsBQR6/B09wFQYKttb8mil/B8VQQQTMnFEBmtnzBr+gTQRJOb8CJ1IrBTZcO
QS/KfcD81ZjBU7blQMolscBmpZXBCrEDQSFlvMADWIrB9i79QAPO5r9EdY/B7O7ZQPa/McD6tZfB
YteIQAEBA0F7qpDByQqrQGlhCkGDuIXBebWfQJ0KzkAsrHrBVmVaQE+a50AjqH/Bek2wQDyIiUC8
tIjB+IXXQCrLnsBzJH3BehRPQEIVOcCIqpfB7UIvQNxld8C8Q4zBuD+BQLnFKMAI+orBIbWLQCRA
KEAEw6rBW/9pQDpK1j+Y/p/BWGcAQW0o8kCYiZfByA7vQIeUDUEVf47BJlylQG1pxcDL34vB5qyN
QBqnnsBSEYPBrmhjQCyzXUDDdZPBqcfGQDawV0A/g5/BnhCmQHWBsD9unI/Bk51WQHy+oEDN0YXB
Kd5UQFEQwEBWRpDB4bFgQB9PhkCXNKXB

>  <OMEGA_E>  (25) 
KLa6PqQu8j5csLo+

>  <OMEGA_NBR>  (25) 
     15661

$$$$
50147888
     RDKit          3D

 75 77  0  0  1  0  0  0  0  0999 V2000
    6.8377   -0.1537  -16.6508 C   0  0  0  0  0  0  0  0  0  0  0  0
    8.3789    1.4569  -15.6644 C   0  0  0  0  0  0  0  0  0  0  0  0
    8.1166   -0.7468  -14.6590 C   0  0  0  0  0  0  0  0  0  0  0  0
    6.8562    1.0630  -21.3161 C   0  0  0  0  0  0  0  0  0  0  0  0
    5.0565   -0.4472  -20.6440 C   0  0  0  0  0  0  0  0  0  0  0  0
    7.1712   -1.3509  -21.4575 C   0  0  0  0  0  0  0  0  0  0  0  0
    7.4394    1.1212  -16.6639 C   0  0  0  0  0  0  0  0  0  0  0  0
    7.2097   -1.0999  -15.6736 C   0  0  0  0  0  0  0  0  0  0  0  0
    8.6898    0.5364  -14.6436 C   0  0  0  0  0  0  0  0  0  0  0  0
    5.5498    0.8618  -20.8172 C   0  0  0  0  0  0  0  0  0  0  0  0
    7.6680   -0.0430  -21.6273 C   0  0  0  0  0  0  0  0  0  0  0  0
    5.8641   -1.5513  -20.9698 C   0  0  0  0  0  0  0  0  0  0  0  0
    6.0915    5.9962  -18.5509 C   0  0  0  0  0  0  0  0  0  0  0  0
    7.0927    2.0907  -17.7152 C   0  0  0  0  0  0  0  0  0  0  0  0
    6.6182   -2.4390  -15.6744 C   0  0  0  0  0  0  0  0  0  0  0  0
    4.9340    7.9664  -17.5620 C   0  0  0  0  0  0  0  0  0  0  0  0
    4.2975    6.9780  -16.5760 C   0  0  0  0  0  0  0  0  0  0  0  0
    5.0639    5.0121  -17.8874 C   0  0  2  0  0  0  0  0  0  0  0  0
    9.7013    0.8929  -13.5803 C   0  0  0  0  0  0  0  0  0  0  0  0
    9.2021   -4.7769  -17.1434 C   0  0  0  0  0  0  0  0  0  0  0  0
    3.5054   -4.8342  -17.9797 C   0  0  0  0  0  0  0  0  0  0  0  0
    4.6835    2.0432  -20.4424 C   0  0  0  0  0  0  0  0  0  0  0  0
    9.0446   -3.3257  -17.6310 C   0  0  0  0  0  0  0  0  0  0  0  0
    4.4369   -3.7398  -17.4832 C   0  0  0  0  0  0  0  0  0  0  0  0
    7.5796   -3.0065  -17.9595 C   0  0  0  0  0  0  0  0  0  0  0  0
    5.7293   -4.3655  -16.9472 C   0  0  0  0  0  0  0  0  0  0  0  0
    4.4142    4.0087  -18.8729 C   0  0  2  0  0  0  0  0  0  0  0  0
    5.3832    2.9227  -19.3849 C   0  0  1  0  0  0  0  0  0  0  0  0
    6.0808    7.3471  -18.2310 N   0  0  0  0  0  0  0  0  0  0  0  0
    5.8152    2.0698  -18.2636 N   0  0  0  0  0  0  0  0  0  0  0  0
    6.6913   -3.2773  -16.8000 N   0  0  0  0  0  0  0  0  0  0  0  0
    3.9158    5.7555  -17.3021 N   0  0  0  0  0  0  0  0  0  0  0  0
    7.0226    5.5796  -19.2277 O   0  0  0  0  0  0  0  0  0  0  0  0
    7.9296    2.9038  -18.0919 O   0  0  0  0  0  0  0  0  0  0  0  0
    5.9912   -2.7860  -14.6783 O   0  0  0  0  0  0  0  0  0  0  0  0
    3.8548    4.7353  -19.9671 O   0  0  0  0  0  0  0  0  0  0  0  0
    8.9233    0.1516  -22.0903 F   0  0  0  0  0  0  0  0  0  0  0  0
    5.3834   -2.8045  -20.8149 F   0  0  0  0  0  0  0  0  0  0  0  0
    6.0914   -0.4059  -17.3897 H   0  0  0  0  0  0  0  0  0  0  0  0
    8.8612    2.4231  -15.6825 H   0  0  0  0  0  0  0  0  0  0  0  0
    8.3730   -1.4617  -13.8912 H   0  0  0  0  0  0  0  0  0  0  0  0
    7.2315    2.0656  -21.4586 H   0  0  0  0  0  0  0  0  0  0  0  0
    4.0586   -0.6021  -20.2611 H   0  0  0  0  0  0  0  0  0  0  0  0
    7.7924   -2.2001  -21.7012 H   0  0  0  0  0  0  0  0  0  0  0  0
    4.1880    8.2585  -18.3158 H   0  0  0  0  0  0  0  0  0  0  0  0
    5.2712    8.8590  -17.0148 H   0  0  0  0  0  0  0  0  0  0  0  0
    5.0212    6.7272  -15.7864 H   0  0  0  0  0  0  0  0  0  0  0  0
    3.4039    7.4324  -16.1234 H   0  0  0  0  0  0  0  0  0  0  0  0
    5.5802    4.4483  -17.0965 H   0  0  0  0  0  0  0  0  0  0  0  0
    9.1859    1.3445  -12.7198 H   0  0  0  0  0  0  0  0  0  0  0  0
   10.2281   -0.0166  -13.2559 H   0  0  0  0  0  0  0  0  0  0  0  0
   10.4271    1.6104  -13.9907 H   0  0  0  0  0  0  0  0  0  0  0  0
   10.2601   -4.9752  -16.9165 H   0  0  0  0  0  0  0  0  0  0  0  0
    8.5984   -4.9263  -16.2361 H   0  0  0  0  0  0  0  0  0  0  0  0
    8.8603   -5.4667  -17.9290 H   0  0  0  0  0  0  0  0  0  0  0  0
    2.5791   -4.3818  -18.3636 H   0  0  0  0  0  0  0  0  0  0  0  0
    3.9989   -5.3982  -18.7849 H   0  0  0  0  0  0  0  0  0  0  0  0
    3.2643   -5.5148  -17.1498 H   0  0  0  0  0  0  0  0  0  0  0  0
    4.4882    2.6466  -21.3411 H   0  0  0  0  0  0  0  0  0  0  0  0
    3.7308    1.6763  -20.0329 H   0  0  0  0  0  0  0  0  0  0  0  0
    9.3925   -2.6424  -16.8424 H   0  0  0  0  0  0  0  0  0  0  0  0
    9.6544   -3.1828  -18.5353 H   0  0  0  0  0  0  0  0  0  0  0  0
    4.6770   -3.0594  -18.3135 H   0  0  0  0  0  0  0  0  0  0  0  0
    3.9424   -3.1760  -16.6784 H   0  0  0  0  0  0  0  0  0  0  0  0
    7.4975   -1.9441  -18.2324 H   0  0  0  0  0  0  0  0  0  0  0  0
    7.2596   -3.6288  -18.8082 H   0  0  0  0  0  0  0  0  0  0  0  0
    5.5443   -4.8425  -15.9734 H   0  0  0  0  0  0  0  0  0  0  0  0
    6.1103   -5.1152  -17.6563 H   0  0  0  0  0  0  0  0  0  0  0  0
    3.6030    3.4980  -18.3333 H   0  0  0  0  0  0  0  0  0  0  0  0
    6.2563    3.4092  -19.8443 H   0  0  0  0  0  0  0  0  0  0  0  0
    6.8740    7.9102  -18.4625 H   0  0  0  0  0  0  0  0  0  0  0  0
    5.1476    1.4363  -17.8724 H   0  0  0  0  0  0  0  0  0  0  0  0
    3.4401    5.1481  -16.6658 H   0  0  0  0  0  0  0  0  0  0  0  0
    3.2965    6.0118  -18.0443 H   0  0  0  0  0  0  0  0  0  0  0  0
    3.4533    4.1289  -20.5783 H   0  0  0  0  0  0  0  0  0  0  0  0
  1  7  2  0
  1  8  1  0
  2  7  1  0
  2  9  2  0
  3  8  2  0
  3  9  1  0
  4 10  2  0
  4 11  1  0
  5 10  1  0
  5 12  2  0
  6 11  2  0
  6 12  1  0
  7 14  1  0
  8 15  1  0
  9 19  1  0
 10 22  1  0
 11 37  1  0
 12 38  1  0
 13 18  1  0
 13 29  1  0
 13 33  2  0
 14 30  1  0
 14 34  2  0
 15 31  1  0
 15 35  2  0
 16 17  1  0
 16 29  1  0
 17 32  1  0
 18 27  1  0
 18 32  1  0
 20 23  1  0
 21 24  1  0
 22 28  1  0
 23 25  1  0
 24 26  1  0
 25 31  1  0
 26 31  1  0
 27 28  1  0
 27 36  1  0
 28 30  1  0
  1 39  1  0
  2 40  1  0
  3 41  1  0
  4 42  1  0
  5 43  1  0
  6 44  1  0
 16 45  1  0
 16 46  1  0
 17 47  1  0
 17 48  1  0
 18 49  1  1
 19 50  1  0
 19 51  1  0
 19 52  1  0
 20 53  1  0
 20 54  1  0
 20 55  1  0
 21 56  1  0
 21 57  1  0
 21 58  1  0
 22 59  1  0
 22 60  1  0
 23 61  1  0
 23 62  1  0
 24 63  1  0
 24 64  1  0
 25 65  1  0
 25 66  1  0
 26 67  1  0
 26 68  1  0
 27 69  1  1
 28 70  1  6
 29 71  1  0
 30 72  1  0
 32 73  1  0
 32 74  1  0
 36 75  1  0
M  CHG  1  32   1
M  END
>  <OMEGA_C>  (26) 
O87aQE5pHb7dNIXBFRAGQed7uj9/oXrBqN0BQRIrP79Ai2rB+GXbQDQQiD9wh6rBIs+hQDDx5L7T
JqXBHHrlQHrrrL/wqKvBLw/uQIGEjz+UT4XBsLXmQDbJjL/exnrBSQkLQfhTCT9bTGrBFJixQDac
XD+PiabB3V/1QNxLML2zBK3B+Ka7QL2Pxr8/wqfBNu3CQADhv0BUaJTBhvfiQP/NBUCvuI3B/cfT
QOwXHMA9ynrB8OKdQKzs/kD8fozBeIWJQNlL30CRm4TBQwuiQDRjoEBVGY/BnjgbQaKXZD/PSFnB
/TsTQS/cmMCkJYnBMlhgQCaymsBv1o/Bht+VQD7EAkD2iaPBg7YQQRfYVMBdDI3BGvuNQE1Zb8CT
3YvB4YvyQHlqQMAWrY/Bgla3QNCxi8DVk4fBAUGNQFxHgECt+5bBWUOsQJ4NO0BBFJvBu5XCQBkb
60AV2ZHB9BW6QOJ3BEDBG5LBHR/WQEi/UcBXZobBrpt6QEUtuEChaorB17jgQPGLskBG0pnBHb/9
QBbXOUBFvJDBjbe/QA5NMsAd2mrBMrV2QOuHl0CvvJ/BwcUOQT5AGz77uLDBpkSsQA59M8DjhKbB
Ce3CQNXSz74SHovBrccNQUoTG0B/63rBpPcFQbcZu79gQl7BnGjnQOEyBEBEq6vBYOCBQGYiGr+t
FqLBDFv5QMzODMADnK3BHASGQPMiBEHDhpLB9q2oQIC+DUE8HojBwq2gQDNF10AdlXzBGdlZQIPW
7UCf/IDBH5GyQCFYjkClxYjBX/kSQSkarD9rhEvBeqYjQcDlh7wsGFTBftUmQcAizj+72V/BOikk
QXc0n8DpVIfBH5MJQQCkncB944HBl8MNQXLvrsCcbo/BLRAlQBY4jMCa6JLB8O1/QHS+rMB7R5bB
6upQQHV5sMDUMonBk5+PQF9iKUCduqrBdsVuQMuP1j9xQ6DB10cWQXkcKcAzvYbBT3gaQV2zS8BS
SJTB66mVQAXOQ8AWgpLB0VB8QAZES8BvbYXB2+vvQMfW+L8E3JHBT07oQPk+aMA1d5bBEmuxQLP1
msAhk3/BV4fDQFmvo8ARQI3BIZdmQGzfX0CpqpLBpjPIQEcwWkAdwZ7BAvjbQL4g/UAhs5PBSbmk
QFjXtz/E+o7BUypcQKC9pECQU4XBR/pSQENgwEC4WpDBuwJdQCkghEBioKTBWmHYQJmJWb7ik4XB
7BAGQSkcrD8axnvBwgABQU5RWr+XvWvBBVnZQKZDgz8XuKrByjOfQEzm6r5QQqXBDgriQPYysr+F
B6zBPQftQIKnhT+PuIXBip/jQCoJlr/DlnvB6PEKQWu10T6op2vBtZmvQOiRVz8uoqbBFaTyQAqs
u70KVK3BPzi4QNVYyb9FDajBrxLEQGRLvkAAQJTBCDTiQPEvAkBU/Y3BX1DPQIIKIMAQZXvBXEeh
QGaI/UCJ1IvBTO+LQAKr3UCIKYTBpIqiQDs/n0DdB4/B5L0bQVYcOz8wB1vBLxdvQDyzX8BR2IzB
ggkWQZqCi8CTGYjBc3eUQLcnAkCPk6PBPhCWQJr1lcCCgI7B5toHQQ0bhcDACpLBN4K6QPzqlcAF
O4bB1CvtQPP9RcD9/o/BZRaNQA/of0Ca/pbBqHarQAGuOUCGKZvBGzXFQDcv6UDrYZHBJiG5QKuj
AkDIPZLBYqPSQCKZWcC/YIbBXu18QMeyt0AvQ4rBLufgQGDPsEBT9ZnBuzf9QJjuNUAl9ZDBX6K8
QJ4HNcDO9GrB+IJ3QHvjl0BKs5/BlmMNQdhCrz0BHbHBWPanQItMNMBN66bBWf2/QF+J4L7obIvB
QkAOQf3oEkAqKHzBcAgFQbQxyr+NnF/BV9XlQHV1AUCa1qvBPNV+QOWFGb9oD6LBMVv1QHADEMDP
FK7BlaaJQLM3BEGdwZHBUxutQJ6TDEH2PofBvteiQIMm1EBy1nvBGKpfQJ6u7ED1a4DBpLSyQM2S
jECswojBAxUUQQ5QmT+oDU3Bvs8jQeTNSL4kEFbBqI8nQeJetj+s3mHBQfI7QF7eYcDb4pLBM7xS
QKtEY8B/zYTBYX6JQMp9I8DkqI3BLDYiQfkDpMAFyonBsvYdQXFLWsBXEobBihEMQcHvlcAJVYHB
pkCOQD8AKUDJv6rBMdtrQB7g1j8VP6DBVdCDQCPls8Czt43BnPCjQLMBlMAYk5bB2e4RQVKkdcBj
yJjBsQkAQTKco8AUC5TBmtSsQACwmsCoa3zBDafQQCtGsMB/EYjBKuz8QFbCB8AKzo7B0xXYQBCT
QsCLB5fB05JlQFnmX0B1upLB9oHHQLQVWEDq4Z7B/h7fQMiV+kAdJZPB6HyjQJwjtj+uCY/BdM1c
QOg+pEAvV4XBfUtWQAVBwUAgLZDBPwRdQNfwhECcoqTB

>  <OMEGA_E>  (26) 
sLjiPrg5mT4=

>  <OMEGA_NBR>  (26) 
     18351

$$$$
50147879
     RDKit          3D

 87 89  0  0  1  0  0  0  0  0999 V2000
    6.7518   -0.1771  -16.6871 C   0  0  0  0  0  0  0  0  0  0  0  0
    8.3820    1.3767  -15.7436 C   0  0  0  0  0  0  0  0  0  0  0  0
    8.0177   -0.7917  -14.6935 C   0  0  0  0  0  0  0  0  0  0  0  0
    6.8200    1.0335  -21.3572 C   0  0  0  0  0  0  0  0  0  0  0  0
    4.9936   -0.4430  -20.6816 C   0  0  0  0  0  0  0  0  0  0  0  0
    7.0856   -1.3852  -21.5075 C   0  0  0  0  0  0  0  0  0  0  0  0
    7.4170    1.0681  -16.7277 C   0  0  0  0  0  0  0  0  0  0  0  0
    7.0796   -1.1211  -15.6911 C   0  0  0  0  0  0  0  0  0  0  0  0
    8.6586    0.4607  -14.7094 C   0  0  0  0  0  0  0  0  0  0  0  0
    5.5117    0.8547  -20.8554 C   0  0  0  0  0  0  0  0  0  0  0  0
    7.6092   -0.0868  -21.6728 C   0  0  0  0  0  0  0  0  0  0  0  0
    5.7751   -1.5604  -21.0176 C   0  0  0  0  0  0  0  0  0  0  0  0
    6.0685    5.9832  -18.5658 C   0  0  0  0  0  0  0  0  0  0  0  0
    7.1036    2.0339  -17.7924 C   0  0  0  0  0  0  0  0  0  0  0  0
    6.4479   -2.4507  -15.6756 C   0  0  0  0  0  0  0  0  0  0  0  0
    4.9076    7.8441  -17.3536 C   0  0  0  0  0  0  0  0  0  0  0  0
    4.4103    6.7617  -16.4025 C   0  0  0  0  0  0  0  0  0  0  0  0
    5.0966    4.9484  -17.9027 C   0  0  2  0  0  0  0  0  0  0  0  0
    9.7078    0.7834  -13.6699 C   0  0  0  0  0  0  0  0  0  0  0  0
    3.7368   -3.3854  -17.6238 C   0  0  0  0  0  0  0  0  0  0  0  0
    9.3385   -4.3505  -16.9890 C   0  0  0  0  0  0  0  0  0  0  0  0
    5.9269    8.4125  -21.3606 C   0  0  0  0  0  0  0  0  0  0  0  0
    6.5047   10.5694  -20.1831 C   0  0  0  0  0  0  0  0  0  0  0  0
    4.6666    2.0471  -20.4817 C   0  0  0  0  0  0  0  0  0  0  0  0
    4.6588   -4.6063  -17.8026 C   0  0  0  0  0  0  0  0  0  0  0  0
    8.4481   -4.1324  -18.2258 C   0  0  0  0  0  0  0  0  0  0  0  0
    6.7889    8.3754  -18.9494 C   0  0  0  0  0  0  0  0  0  0  0  0
    5.7824   -4.6241  -16.7524 C   0  0  0  0  0  0  0  0  0  0  0  0
    7.3919   -3.0471  -17.9586 C   0  0  0  0  0  0  0  0  0  0  0  0
    4.4230    3.9966  -18.9114 C   0  0  2  0  0  0  0  0  0  0  0  0
    5.9407    9.1479  -20.0048 C   0  0  0  0  0  0  0  0  0  0  0  0
    5.3837    2.9138  -19.4321 C   0  0  1  0  0  0  0  0  0  0  0  0
    5.9847    7.3498  -18.2410 N   0  0  0  0  0  0  0  0  0  0  0  0
    5.8141    2.0603  -18.3113 N   0  0  0  0  0  0  0  0  0  0  0  0
    6.5542   -3.3501  -16.7605 N   0  0  0  0  0  0  0  0  0  0  0  0
    3.9780    5.6264  -17.2152 N   0  0  0  0  0  0  0  0  0  0  0  0
    6.9741    5.5825  -19.2889 O   0  0  0  0  0  0  0  0  0  0  0  0
    7.9717    2.7961  -18.2050 O   0  0  0  0  0  0  0  0  0  0  0  0
    5.8715   -2.7828  -14.6453 O   0  0  0  0  0  0  0  0  0  0  0  0
    3.8820    4.7608  -19.9900 O   0  0  0  0  0  0  0  0  0  0  0  0
    8.8676    0.0852  -22.1365 F   0  0  0  0  0  0  0  0  0  0  0  0
    5.2647   -2.8022  -20.8661 F   0  0  0  0  0  0  0  0  0  0  0  0
    5.9916   -0.4068  -17.4190 H   0  0  0  0  0  0  0  0  0  0  0  0
    8.9097    2.3181  -15.7841 H   0  0  0  0  0  0  0  0  0  0  0  0
    8.2458   -1.5030  -13.9135 H   0  0  0  0  0  0  0  0  0  0  0  0
    7.2136    2.0293  -21.4983 H   0  0  0  0  0  0  0  0  0  0  0  0
    3.9962   -0.5789  -20.2904 H   0  0  0  0  0  0  0  0  0  0  0  0
    7.6884   -2.2460  -21.7564 H   0  0  0  0  0  0  0  0  0  0  0  0
    4.0657    8.1863  -17.9735 H   0  0  0  0  0  0  0  0  0  0  0  0
    5.2937    8.6871  -16.7618 H   0  0  0  0  0  0  0  0  0  0  0  0
    5.2224    6.4528  -15.7278 H   0  0  0  0  0  0  0  0  0  0  0  0
    3.5656    7.1422  -15.8094 H   0  0  0  0  0  0  0  0  0  0  0  0
    5.6672    4.3496  -17.1776 H   0  0  0  0  0  0  0  0  0  0  0  0
    9.2327    1.2783  -12.8100 H   0  0  0  0  0  0  0  0  0  0  0  0
   10.1914   -0.1466  -13.3362 H   0  0  0  0  0  0  0  0  0  0  0  0
   10.4630    1.4531  -14.1070 H   0  0  0  0  0  0  0  0  0  0  0  0
    2.9477   -3.4059  -18.3898 H   0  0  0  0  0  0  0  0  0  0  0  0
    3.2784   -3.4156  -16.6243 H   0  0  0  0  0  0  0  0  0  0  0  0
    4.3261   -2.4626  -17.7292 H   0  0  0  0  0  0  0  0  0  0  0  0
   10.0838   -5.1299  -17.2059 H   0  0  0  0  0  0  0  0  0  0  0  0
    9.8529   -3.4113  -16.7374 H   0  0  0  0  0  0  0  0  0  0  0  0
    8.7149   -4.6660  -16.1395 H   0  0  0  0  0  0  0  0  0  0  0  0
    5.5229    7.3986  -21.2242 H   0  0  0  0  0  0  0  0  0  0  0  0
    5.2958    8.9661  -22.0714 H   0  0  0  0  0  0  0  0  0  0  0  0
    6.9524    8.3488  -21.7534 H   0  0  0  0  0  0  0  0  0  0  0  0
    6.5110   11.0864  -19.2122 H   0  0  0  0  0  0  0  0  0  0  0  0
    7.5314   10.5101  -20.5735 H   0  0  0  0  0  0  0  0  0  0  0  0
    5.8747   11.1274  -20.8915 H   0  0  0  0  0  0  0  0  0  0  0  0
    4.4772    2.6516  -21.3809 H   0  0  0  0  0  0  0  0  0  0  0  0
    3.7098    1.6961  -20.0676 H   0  0  0  0  0  0  0  0  0  0  0  0
    4.0604   -5.5238  -17.7011 H   0  0  0  0  0  0  0  0  0  0  0  0
    5.1082   -4.5708  -18.8060 H   0  0  0  0  0  0  0  0  0  0  0  0
    9.0779   -3.8211  -19.0723 H   0  0  0  0  0  0  0  0  0  0  0  0
    7.9400   -5.0758  -18.4744 H   0  0  0  0  0  0  0  0  0  0  0  0
    7.6278    7.8799  -19.4602 H   0  0  0  0  0  0  0  0  0  0  0  0
    7.1802    9.0925  -18.2128 H   0  0  0  0  0  0  0  0  0  0  0  0
    5.3387   -4.7674  -15.7561 H   0  0  0  0  0  0  0  0  0  0  0  0
    6.4653   -5.4577  -16.9731 H   0  0  0  0  0  0  0  0  0  0  0  0
    7.9047   -2.0874  -17.7975 H   0  0  0  0  0  0  0  0  0  0  0  0
    6.7356   -2.9690  -18.8379 H   0  0  0  0  0  0  0  0  0  0  0  0
    3.6012    3.4867  -18.3874 H   0  0  0  0  0  0  0  0  0  0  0  0
    4.9077    9.2223  -19.6344 H   0  0  0  0  0  0  0  0  0  0  0  0
    6.2562    3.3967  -19.8964 H   0  0  0  0  0  0  0  0  0  0  0  0
    5.1321    1.4588  -17.8953 H   0  0  0  0  0  0  0  0  0  0  0  0
    3.5215    4.9645  -16.6206 H   0  0  0  0  0  0  0  0  0  0  0  0
    3.3329    5.9555  -17.9047 H   0  0  0  0  0  0  0  0  0  0  0  0
    3.4658    4.1779  -20.6142 H   0  0  0  0  0  0  0  0  0  0  0  0
  1  7  2  0
  1  8  1  0
  2  7  1  0
  2  9  2  0
  3  8  2  0
  3  9  1  0
  4 10  2  0
  4 11  1  0
  5 10  1  0
  5 12  2  0
  6 11  2  0
  6 12  1  0
  7 14  1  0
  8 15  1  0
  9 19  1  0
 10 24  1  0
 11 41  1  0
 12 42  1  0
 13 18  1  0
 13 33  1  0
 13 37  2  0
 14 34  1  0
 14 38  2  0
 15 35  1  0
 15 39  2  0
 16 17  1  0
 16 33  1  0
 17 36  1  0
 18 30  1  0
 18 36  1  0
 20 25  1  0
 21 26  1  0
 22 31  1  0
 23 31  1  0
 24 32  1  0
 25 28  1  0
 26 29  1  0
 27 31  1  0
 27 33  1  0
 28 35  1  0
 29 35  1  0
 30 32  1  0
 30 40  1  0
 32 34  1  0
  1 43  1  0
  2 44  1  0
  3 45  1  0
  4 46  1  0
  5 47  1  0
  6 48  1  0
 16 49  1  0
 16 50  1  0
 17 51  1  0
 17 52  1  0
 18 53  1  1
 19 54  1  0
 19 55  1  0
 19 56  1  0
 20 57  1  0
 20 58  1  0
 20 59  1  0
 21 60  1  0
 21 61  1  0
 21 62  1  0
 22 63  1  0
 22 64  1  0
 22 65  1  0
 23 66  1  0
 23 67  1  0
 23 68  1  0
 24 69  1  0
 24 70  1  0
 25 71  1  0
 25 72  1  0
 26 73  1  0
 26 74  1  0
 27 75  1  0
 27 76  1  0
 28 77  1  0
 28 78  1  0
 29 79  1  0
 29 80  1  0
 30 81  1  1
 31 82  1  0
 32 83  1  6
 34 84  1  0
 36 85  1  0
 36 86  1  0
 40 87  1  0
M  CHG  1  36   1
M  END
>  <OMEGA_C>  (27) 
/Q7YQChRNb4bf4XBoBwGQZM2sD/q5XvBZEgAQV+tSr+TGGvBCT3aQEBKhD+B26rBc8ufQLDO4r7+
c6XB1LziQCxOsb9zD6zBF1jtQP+1iD870oXBZ4ziQMh+j7/fDnvBcIkKQSDe6z63WWvB61+wQNDK
Wj/h16bBUn7zQHTPsb3VYa3B+824QMe8x78HJKjBKzHCQJN2v0DOhpTBp1DjQAosAkDYVo7BO1XO
QNLYHMBlz3rBrQqdQIoC+0BG1IrBfiGNQMFf2EBBOIPBDBejQLBZnkDAOI/B9FIbQemLSD/At1rB
fihvQAqrWMB7/YzBjGoVQX03i8B06YfBg6m9QMiZBkFq4qrBMSbQQC0cKUESd6HBfVSVQF8DA0B2
2qPBvhSVQDBnk8C1a47BmSsHQZY8hMCFzpHB9D7ZQHYBBkFymJfBFgm5QJH4k8DrBIbBs4rsQMID
Q8BLq4/BV4mNQB3If0CmSpfBnhq+QLBdEkHuCaDBVkesQDB7OkDzdJvBpIK/QOcx60Ck7ZHBxwy6
QHncA0CVfZLB+rvRQPxnVsB9FYbBppd+QBULtEC7uInB6yvfQNijskCzT5rBaRj/QFnzMkDUo5HB
beO7QPsYMsBTU2rBjnJ4QCFYmEB+65/Bg+ENQeRwrj2fF7HBbnioQM1XM8Cx7abBWbu/QKtJ0L4R
WovBT44OQTxbFECQi3zB5O4DQbZjwL/TnV7BdNXmQO3fAUBw/KvBAcF/QP0vFL+6UqLBeAf2QBi/
D8AJDa7BcBqCQEL7AkGoyY/Bu2WpQCz+CkEuGIbBvh2nQKR9zkABpXvBQDNkQJ2M5EBl83zBDlq1
QBkwi0DNa4nBEbkTQeegoz/b9UzB6Q8jQQEUFr5AYVXBjmgnQWD+uT80tmHB0qY8QHH6WcBPHpPB
D9FRQBaZWsCa/oTBoG+KQCybHcBY1Y3BZ1chQSAopMDApYnBeKUdQfZSWsA45oXBYnALQcxPlcCy
HYHB1buwQPLA7EAmy6nB83apQAN1D0EhkrDBPHreQH2UBUH0Bq7BwlnQQLphMUGfspnB3wDxQHUp
KEGMlqTBl/27QPsJMkG5IafB+USPQGm0KUAeDKvBoW1tQMYa2T9piqDB5+6BQLLCsMDrm43B/3Wj
QL1DksCocpbBIT8RQeCMdMAPlJjBFRT+QMJsosCKy5PB2Rb0QBYo/EBprpvBEsTlQAh7EUHls5HB
7daqQMaOmMDpGHzB5ePOQF2lrsDRyIfBRvP8QGaXBcA8YY7BsonXQI4EPsD/s5bBHnpmQAkmX0Bh
GZPB0wudQLaOE0EzE53B1jLIQHpjWUC8K5/BEjqkQP66uj95KY/BQmBhQOLcnkAR94TBzE1VQJST
vkDlPI/BWtBdQESxhUDJ6aTBHCTaQISp7L2E84XBWqQIQbvPtD/8+H7BKL4CQUL2Nr9z42zB5ePX
QJqQjD9UjazBMmihQDG61b6cfaXBpCjjQBkFqL/dKa3B9GPwQGijjT9p2YbBvxXlQL/9g7/+rnvB
8/cNQUOh/z5/o27B66uvQDCOYz8Vs6fB+LzxQACRPLv7Nq/BE926QNY4wr/iWqjBqFfAQKTgvEAn
E5TBpPXkQJxnA0CeYY/B0PHNQGxRE8Ckq3nBHMCVQEGC9kDuDovBJPCMQDnS00Cgw4LBzXCjQKo0
mkBk747BPt0eQfLjWT8kR17BMyprQFdHWMAGBo7B8FATQQmCisBk3IXB21P/QFP1CEHv/YrBCBMB
QSEMH0HW2pvBcHaUQGb+A0AdeqTBwIWSQAvrk8AFR43BxtgEQRFjiMCyzI/B+PLHQOpABEHVFJrB
tuKyQF+1j8BtD4TBnvXoQKm1R8C8047BJHONQMRefUDMhpfBzwb3QL78CEHgN5fBvROsQAsXOkAa
GZzB6TK1QJQI6EBbF5PBuV+7QF7EAkAnW5PBvmDNQH2ZUMAHIIXBjz6AQL1JrUBum4jBMFveQPor
skA/z5nB7/3/QELINEBh6pLBBoC7QBO7IMCYrmjB3Mp6QKCTmUBj4Z/BKzwMQZyoSz4rwbPBLFKs
QBdEMcAYkqbBCbDAQFzSsr4RfYvB3CcRQVNXFkBjHoDBBZAGQeTjs79QKmDBLMjiQBGEBkA0N67B
fvOCQFS7Er8CmqHBFN72QLA2CsDYRq/BbUlvQNKr/kC0Io/BuFuiQBmECUEg+obBLPypQJ58zUDp
GnzBcPplQLz+3UBxx3rBoyq3QJaBhUCCzYnBXGEXQeqBsD90xVDBS4gmQf3Tjr1OdVjBt/sqQRYF
wD+ismXBILc9QBc4YMCWq5TBpaBHQCuMUMAdfYbBAGiJQAA5H8A9cY/BZdceQWbcpMA9xYbBpAMc
QQs2WMCt/YTB2XAJQcAQkMDAa33Ba1j3QJ9K8kDdrofBPaEQQVh9DEGadInB40XrQH45FUHRKIfB
1D38QJUKH0Gwh6TBZBjuQJFSK0FwB5jBfQoSQWuWIkE5U5rBYLeNQFySK0B7jqvBpV5sQGdT2T/F
EKHBYe58QB1QsMCX5YvB3g6kQIiml8C32ZTBu9MOQU/2gsCA65bB4YH4QAnspsCzo5DBW1W1QNwc
E0F3UZnB93DGQNoU/UB3ZaLBJVmhQONujsCv33jBaRnIQCfMq8BBGoTBk0n6QD6LCsB+XI7BBmjU
QGryR8Cc+JXBmS9lQKKPW0ABuJPBacgFQbOs+UB9+5rBqUzHQMmJWkC17Z/BtX2mQIEhtD+LD5DB
PvVrQNmJl0B5VIPBu8dQQDvntECYlo3Bxq1fQKx4iECvK6XB

>  <OMEGA_E>  (27) 
YC1TPhBGuT4=

>  <OMEGA_NBR>  (27) 
     21377

$$$$
248245
     RDKit          3D

 86 91  0  0  1  0  0  0  0  0999 V2000
    7.0692   -1.3245  -21.7609 C   0  0  0  0  0  0  0  0  0  0  0  0
    5.5362   10.6305  -21.6826 C   0  0  0  0  0  0  0  0  0  0  0  0
    7.5254   -0.0039  -21.9394 C   0  0  0  0  0  0  0  0  0  0  0  0
    5.8038   -1.5625  -21.1909 C   0  0  0  0  0  0  0  0  0  0  0  0
    5.6787    9.2445  -21.8961 C   0  0  0  0  0  0  0  0  0  0  0  0
    5.9165   11.1977  -20.4499 C   0  0  0  0  0  0  0  0  0  0  0  0
    8.8263    0.4087  -14.8610 C   0  0  0  0  0  0  0  0  0  0  0  0
    8.0744   -0.7775  -14.7412 C   0  0  0  0  0  0  0  0  0  0  0  0
    8.5383    1.3261  -15.8922 C   0  0  0  0  0  0  0  0  0  0  0  0
    6.7166    1.0772  -21.5442 C   0  0  0  0  0  0  0  0  0  0  0  0
    5.0046   -0.4863  -20.7682 C   0  0  0  0  0  0  0  0  0  0  0  0
    6.2110    8.4261  -20.8803 C   0  0  0  0  0  0  0  0  0  0  0  0
    6.4419   10.3809  -19.4313 C   0  0  0  0  0  0  0  0  0  0  0  0
    6.7646   -0.1421  -16.6967 C   0  0  0  0  0  0  0  0  0  0  0  0
   10.0009   -4.5562  -17.8243 C   0  0  0  0  0  0  0  0  0  0  0  0
    7.0405   -1.0583  -15.6658 C   0  0  0  0  0  0  0  0  0  0  0  0
    7.4959    1.0563  -16.8107 C   0  0  0  0  0  0  0  0  0  0  0  0
    5.4587    0.8358  -20.9466 C   0  0  0  0  0  0  0  0  0  0  0  0
    6.5981    8.9951  -19.6451 C   0  0  0  0  0  0  0  0  0  0  0  0
    9.4769   -4.4811  -16.5561 C   0  0  0  0  0  0  0  0  0  0  0  0
    7.7065   -3.6622  -17.7050 C   0  0  0  0  0  0  0  0  0  0  0  0
    6.0711    5.8740  -18.4854 C   0  0  0  0  0  0  0  0  0  0  0  0
    6.1672   -2.2398  -15.5019 C   0  0  0  0  0  0  0  0  0  0  0  0
    7.1326    2.0210  -17.8669 C   0  0  0  0  0  0  0  0  0  0  0  0
    4.1481   -4.2178  -17.9231 C   0  0  0  0  0  0  0  0  0  0  0  0
    5.5086   -4.3056  -18.5720 C   0  0  0  0  0  0  0  0  0  0  0  0
    4.5019   -3.8642  -16.4874 C   0  0  0  0  0  0  0  0  0  0  0  0
    4.9881    7.7802  -17.2969 C   0  0  0  0  0  0  0  0  0  0  0  0
    4.3065    6.7296  -16.4207 C   0  0  0  0  0  0  0  0  0  0  0  0
    6.2999   -3.1655  -17.9036 C   0  0  1  0  0  0  0  0  0  0  0  0
    5.0186    4.8845  -17.8916 C   0  0  2  0  0  0  0  0  0  0  0  0
   10.2220   -4.7431  -15.2754 C   0  0  0  0  0  0  0  0  0  0  0  0
    4.5961    1.9872  -20.4932 C   0  0  0  0  0  0  0  0  0  0  0  0
    7.1589    8.1314  -18.5356 C   0  0  0  0  0  0  0  0  0  0  0  0
    4.3820    3.9510  -18.9427 C   0  0  2  0  0  0  0  0  0  0  0  0
    5.3437    2.8639  -19.4697 C   0  0  1  0  0  0  0  0  0  0  0  0
    8.1629   -4.0686  -16.5475 N   0  0  0  0  0  0  0  0  0  0  0  0
    6.1309    7.1996  -18.0288 N   0  0  0  0  0  0  0  0  0  0  0  0
    5.5993   -2.8933  -16.6079 N   0  0  0  0  0  0  0  0  0  0  0  0
    5.8256    2.0214  -18.3587 N   0  0  0  0  0  0  0  0  0  0  0  0
    3.8855    5.6192  -17.2817 N   0  0  0  0  0  0  0  0  0  0  0  0
    6.9342    5.4579  -19.2498 O   0  0  0  0  0  0  0  0  0  0  0  0
    5.8922   -2.6242  -14.3708 O   0  0  0  0  0  0  0  0  0  0  0  0
    7.9730    2.8028  -18.2973 O   0  0  0  0  0  0  0  0  0  0  0  0
    3.8920    4.7457  -20.0245 O   0  0  0  0  0  0  0  0  0  0  0  0
    8.8582   -3.9395  -18.9761 S   0  0  0  0  0  0  0  0  0  0  0  0
    7.6905   -2.1553  -22.0614 H   0  0  0  0  0  0  0  0  0  0  0  0
    5.1352   11.2584  -22.4645 H   0  0  0  0  0  0  0  0  0  0  0  0
    8.4948    0.1784  -22.3791 H   0  0  0  0  0  0  0  0  0  0  0  0
    5.4461   -2.5753  -21.0781 H   0  0  0  0  0  0  0  0  0  0  0  0
    5.3798    8.8098  -22.8385 H   0  0  0  0  0  0  0  0  0  0  0  0
    5.8046   12.2594  -20.2867 H   0  0  0  0  0  0  0  0  0  0  0  0
    9.6237    0.6151  -14.1624 H   0  0  0  0  0  0  0  0  0  0  0  0
    8.2875   -1.4729  -13.9428 H   0  0  0  0  0  0  0  0  0  0  0  0
    9.1138    2.2356  -15.9813 H   0  0  0  0  0  0  0  0  0  0  0  0
    7.0565    2.0908  -21.6974 H   0  0  0  0  0  0  0  0  0  0  0  0
    4.0454   -0.6720  -20.3081 H   0  0  0  0  0  0  0  0  0  0  0  0
    6.3234    7.3647  -21.0450 H   0  0  0  0  0  0  0  0  0  0  0  0
    6.7260   10.8156  -18.4844 H   0  0  0  0  0  0  0  0  0  0  0  0
    5.9829   -0.3600  -17.4094 H   0  0  0  0  0  0  0  0  0  0  0  0
   10.9795   -4.9422  -18.0684 H   0  0  0  0  0  0  0  0  0  0  0  0
    3.5340   -3.4324  -18.3880 H   0  0  0  0  0  0  0  0  0  0  0  0
    3.6168   -5.1794  -17.9781 H   0  0  0  0  0  0  0  0  0  0  0  0
    5.9778   -5.2801  -18.3713 H   0  0  0  0  0  0  0  0  0  0  0  0
    5.4368   -4.1500  -19.6585 H   0  0  0  0  0  0  0  0  0  0  0  0
    3.6394   -3.4144  -15.9737 H   0  0  0  0  0  0  0  0  0  0  0  0
    4.8316   -4.7575  -15.9367 H   0  0  0  0  0  0  0  0  0  0  0  0
    4.2590    8.1722  -18.0212 H   0  0  0  0  0  0  0  0  0  0  0  0
    5.3490    8.6007  -16.6593 H   0  0  0  0  0  0  0  0  0  0  0  0
    5.0120    6.3643  -15.6600 H   0  0  0  0  0  0  0  0  0  0  0  0
    3.4288    7.1703  -15.9253 H   0  0  0  0  0  0  0  0  0  0  0  0
    6.2916   -2.2723  -18.5455 H   0  0  0  0  0  0  0  0  0  0  0  0
    5.5123    4.2686  -17.1254 H   0  0  0  0  0  0  0  0  0  0  0  0
    9.5582   -4.5533  -14.4191 H   0  0  0  0  0  0  0  0  0  0  0  0
   10.5574   -5.7905  -15.2542 H   0  0  0  0  0  0  0  0  0  0  0  0
   11.0955   -4.0771  -15.2168 H   0  0  0  0  0  0  0  0  0  0  0  0
    4.3274    2.6013  -21.3653 H   0  0  0  0  0  0  0  0  0  0  0  0
    3.6815    1.5908  -20.0280 H   0  0  0  0  0  0  0  0  0  0  0  0
    8.0105    7.5533  -18.9236 H   0  0  0  0  0  0  0  0  0  0  0  0
    7.4986    8.7769  -17.7122 H   0  0  0  0  0  0  0  0  0  0  0  0
    3.5351    3.4394  -18.4621 H   0  0  0  0  0  0  0  0  0  0  0  0
    6.1953    3.3502  -19.9680 H   0  0  0  0  0  0  0  0  0  0  0  0
    5.1678    1.4051  -17.9258 H   0  0  0  0  0  0  0  0  0  0  0  0
    3.3506    4.9774  -16.7323 H   0  0  0  0  0  0  0  0  0  0  0  0
    3.3142    5.9864  -18.0157 H   0  0  0  0  0  0  0  0  0  0  0  0
    3.4972    4.1815  -20.6790 H   0  0  0  0  0  0  0  0  0  0  0  0
  1  3  2  0
  1  4  1  0
  2  5  2  0
  2  6  1  0
  3 10  1  0
  4 11  2  0
  5 12  1  0
  6 13  2  0
  7  8  2  0
  7  9  1  0
  8 16  1  0
  9 17  2  0
 10 18  2  0
 11 18  1  0
 12 19  2  0
 13 19  1  0
 14 16  2  0
 14 17  1  0
 15 20  2  0
 15 46  1  0
 16 23  1  0
 17 24  1  0
 18 33  1  0
 19 34  1  0
 20 32  1  0
 20 37  1  0
 21 30  1  0
 21 37  2  0
 21 46  1  0
 22 31  1  0
 22 38  1  0
 22 42  2  0
 23 39  1  0
 23 43  2  0
 24 40  1  0
 24 44  2  0
 25 26  1  0
 25 27  1  0
 26 30  1  0
 27 39  1  0
 28 29  1  0
 28 38  1  0
 29 41  1  0
 30 39  1  0
 31 35  1  0
 31 41  1  0
 33 36  1  0
 34 38  1  0
 35 36  1  0
 35 45  1  0
 36 40  1  0
  1 47  1  0
  2 48  1  0
  3 49  1  0
  4 50  1  0
  5 51  1  0
  6 52  1  0
  7 53  1  0
  8 54  1  0
  9 55  1  0
 10 56  1  0
 11 57  1  0
 12 58  1  0
 13 59  1  0
 14 60  1  0
 15 61  1  0
 25 62  1  0
 25 63  1  0
 26 64  1  0
 26 65  1  0
 27 66  1  0
 27 67  1  0
 28 68  1  0
 28 69  1  0
 29 70  1  0
 29 71  1  0
 30 72  1  6
 31 73  1  1
 32 74  1  0
 32 75  1  0
 32 76  1  0
 33 77  1  0
 33 78  1  0
 34 79  1  0
 34 80  1  0
 35 81  1  1
 36 82  1  6
 40 83  1  0
 41 84  1  0
 41 85  1  0
 45 86  1  0
M  CHG  1  41   1
M  END
>  <OMEGA_C>  (28) 
CzfiQASKqb9TFq7BsSixQGoWKkHida3BsM/wQIBLgbvlg6/BnLi5QHr+x7/zhqnB9be1QE/pE0FG
K6/BkFO9QKApM0FcmaPBijgNQctF0T7Hxm3BmjABQQwJR7/g22vB6JwIQbC8qT+BRn7BCe7WQIDh
iT+UWqzB1SWgQI/7+L5NJabBicDGQF7RBkHlCqfBsyPOQA0YJkFcc5vB8nfYQEZ2Eb7tkoXBhAMg
Qa/MkcA7mI7BZUvhQOR0h780p3rBH97vQHozhz9KfIbBwK2uQJj5VT+NkqfBXyPTQArsD0EaKZ3B
kKEXQRFlj8DNcoTBi5v2QAdhasDjo43BgEbCQOH3u0Az4pPBXlnFQNhYD8CzB3jBmz7kQEtYAUB9
747BSb2EQAv4hsB5Yo/BgEawQDjHicBck5TBbg+QQKNOd8AY5oPBqJ6fQHT3+ED4X4rBt86JQO5Y
10CaXYPBuJjJQLWXSsCfOo/BbpigQKpNnEDoIY/BPY0jQSTHl8AyaHTBLxOTQARe/j/78aPB/xXl
QEcaAkHwSJTBoTmMQIjdfECmipfBXP+qQK1KN0DcwZvBVJsCQZsxgsBVYYTBgzDEQEpj5kAOO5DB
ei2zQEwsOcD83ITBeWu6QBJfAUCr3pLBdqx4QMLQs0D3QIrBKOXdQAmnrkCs/5nB54y8QHPzJ8DP
7mXBIyP/QE5gM0DIYJLB2hV5QNDcl0AWMqDBDrsNQTYgfMAZz5fBcxj2QKbvCcDSfbDBu1OkQDci
NEE3t7PBqOoHQRW6Nj5gCLPBo0auQO7QJMABoKjBXiesQPv0DEFVtbbBor+5QIEmREFDS6LBfPoZ
QRZ1HT9CmWLBopkEQRmHvL+8FV/BDtIRQXEUD0CNs3/BKs/hQDjPBUBXlK3Bh3OBQAkLLL/8dqLB
/ljKQG+r60AwXKjBJDvXQOMMLUET4JPBJ3S/QGhSuL5dRovBMKwvQdkmnsAnjJDBUC1iQL6sW8CG
GpPBHHlnQGG9pcAg04/B7km/QDb2qMBz+JLBHPqtQJXMhMCnRJ3Bn+toQCaGWsBRlH/Bo5yaQJU9
mMC9/H7Bc0mIQETBAkF0K5DBESurQKKcCUE/RoXBr2KgQHeoy0Aqj3rBT3FbQOxy5UDgzX7Bx1TJ
QLpsEcA9XZTBJ2WwQJyYiEDiAInBc+4YQXa0kcBwtGbB8OooQYpLucAnEXTBNIcxQY53gsDmd3PB
xXmKQD18JkAv7KrBeJ1rQJGgyz9eOaDBKysAQVK08UB4Y5fBvvTvQApuDEGYso3B2j9iQOMeXEBP
spPBiD/GQNRpVkB1vp/Bf16lQArasz8iaI/BhXBWQJtGn0C324XBaxtUQJSQv0AvIJDBC9JfQCXP
hUCDbqXBjPv1QI24cL9koq/BYCaSQEp4KkGUTK7BvHf3QAdOvz4KsrPBVmbXQLWQpL9C1afBcCWm
QNxkF0FDqbHB6l+XQO60MUG/sqPBzWIKQQ1y3j3hnWvB8ub4QIe5fb84fmnBYmQHQWhBhT+VSHzB
Ai/aQAGjqz+2/a/BSP65QClupb6iIqTBQJO/QFiaC0E3carBgMawQGDxJUHUeZzB2MfQQMZTY755
VYTB53kjQcXJnsBJRIXBDC7XQG07lb+dNXjB7HDsQD0lYz9/a4XBfv+6QPaFfT9WS6jBmlLFQDz2
EkEh2J/BVS8UQTFFrsBHuHzBaqb9QEH4gsAph4jBMtrAQDD8wkAoYJbBviK6QJJjFMD0hHbBxAfl
QDPR7z9YEI7BdBueQP7+ocCrZ47BLEO+QGdxiMDO8JTBHpWQQEzmgsCKk4XBwqOoQENm/EBszonB
0uOYQGJo2EBUb4LBVl/VQEBHWcAZl4zBJjCnQPa8oEAb54/BE7YYQQqbzcAR2mrB2K6bQO4iAkDY
N6TB8FLgQEFMBkHZ9ZfBFlGQQICafkBrHpfBqgWwQEb+OEBEPZvBsH7/QMn7ncA+dIDBPi3GQLxz
7EApMpLBgqq1QGniTMA52oPBkNS7QLe2AECkOZLBeJaGQEwJtkDAG4nB+q3TQK2AuEC5lZ7BKrKj
QN7uG8DfiGbBn2MBQaFyI0DLcpHBLN12QAnVlECtx5/BG/EXQQ2Id8DfV47B5yYGQV1g179qgbLB
Oql9QDiJM0G22LPBAoUHQWW3Iz8upbnBW33WQNmaEsCsraTByvuhQD/PEUFkxbnBqOiHQLBEQEGV
HKHBgmcXQRi4cz6ccWDBuV39QARg2b/Jn1zBrD0SQX0I8D9y8X3BsJPbQFhxFkBKCbPB5q6iQELQ
Fr80H57BDq3OQILe+UBEA63BGo20QElzK0FPV5TB94C2QFtQsr6w2onBaDo0QSQ6p8ApEIXBwoCC
QGReq8BEVpPBJROtQJ3GvsAZ/YrBI/PUQAzZncDrBJnBFuGtQO23aMAh5ZrBggppQNJ6YMBFHojB
V+2IQORzlMCVYnzBxc2MQKqnBUHKsY3BF3y5QJk2CkEm8oTBwN2zQFzGy0AWfnvBOz+AQKTg5EA7
9XnBhe3dQGZNG8DBLJDBJuC9QByPj0A3uYrBqMYJQUHH1MBMQmLBd00fQeZQ68B7m3HBx1okQYCG
v8AnsF/BV1ySQJYtLEB94arBY0Z+QFVcwz8rDKHBRvv5QHAS/EB9WJzBz33uQMRiEUGgHZLBSTZw
QMweXkD+L5LBML/MQGLTWEBXaJ7B8oKkQHJ/vD82147BQaVyQCYfoEBfUITBGTBgQFGlwkBt2I3B
y5yOQHjGqECG7aLB

>  <OMEGA_E>  (28) 
ABPjPqozMT8=

>  <OMEGA_NBR>  (28) 
     24382

$$$$
50147895
     RDKit          3D

 81 84  0  0  1  0  0  0  0  0999 V2000
    5.3087   10.4889  -22.0408 C   0  0  0  0  0  0  0  0  0  0  0  0
    5.8592   11.1721  -20.9385 C   0  0  0  0  0  0  0  0  0  0  0  0
    5.3439    9.0806  -22.0874 C   0  0  0  0  0  0  0  0  0  0  0  0
    6.4394   10.4486  -19.8797 C   0  0  0  0  0  0  0  0  0  0  0  0
    5.9316    8.3545  -21.0323 C   0  0  0  0  0  0  0  0  0  0  0  0
    6.7730    1.0868  -21.3969 C   0  0  0  0  0  0  0  0  0  0  0  0
    5.0974   -0.3905  -20.4066 C   0  0  0  0  0  0  0  0  0  0  0  0
    7.1369   -1.3244  -21.3641 C   0  0  0  0  0  0  0  0  0  0  0  0
    6.4778    9.0388  -19.9205 C   0  0  0  0  0  0  0  0  0  0  0  0
    5.5285    0.9041  -20.7600 C   0  0  0  0  0  0  0  0  0  0  0  0
    7.5754   -0.0271  -21.7009 C   0  0  0  0  0  0  0  0  0  0  0  0
    5.9009   -1.5043  -20.7097 C   0  0  0  0  0  0  0  0  0  0  0  0
    6.1113    6.0008  -18.5042 C   0  0  0  0  0  0  0  0  0  0  0  0
    7.9484   -0.8401  -15.2947 C   0  0  0  0  0  0  0  0  0  0  0  0
    6.8123    1.7153  -17.6350 C   0  0  0  0  0  0  0  0  0  0  0  0
    5.0257    7.9567  -17.3949 C   0  0  0  0  0  0  0  0  0  0  0  0
    6.7167   -0.7295  -17.2424 C   0  0  0  0  0  0  0  0  0  0  0  0
    4.3825    6.9404  -16.4511 C   0  0  0  0  0  0  0  0  0  0  0  0
    5.0657    5.0375  -17.8575 C   0  0  2  0  0  0  0  0  0  0  0  0
    6.7550    0.6141  -16.5794 C   0  0  1  0  0  0  0  0  0  0  0  0
    9.6235   -4.2215  -16.9903 C   0  0  0  0  0  0  0  0  0  0  0  0
    7.3051    1.6657  -13.5767 C   0  0  0  0  0  0  0  0  0  0  0  0
    9.7267    1.5850  -14.3417 C   0  0  0  0  0  0  0  0  0  0  0  0
    4.6809    2.1007  -20.4122 C   0  0  0  0  0  0  0  0  0  0  0  0
    7.1152    8.2812  -18.7714 C   0  0  0  0  0  0  0  0  0  0  0  0
    8.6732   -3.1021  -17.4145 C   0  0  0  0  0  0  0  0  0  0  0  0
    7.4650   -3.0118  -16.4507 C   0  0  0  0  0  0  0  0  0  0  0  0
    4.4116    4.0786  -18.8737 C   0  0  2  0  0  0  0  0  0  0  0  0
    8.2535    1.6349  -14.7957 C   0  0  0  0  0  0  0  0  0  0  0  0
    5.3547    2.9383  -19.3092 C   0  0  1  0  0  0  0  0  0  0  0  0
    6.1486    7.3569  -18.1428 N   0  0  0  0  0  0  0  0  0  0  0  0
    7.1725   -1.6051  -16.1815 N   0  0  0  0  0  0  0  0  0  0  0  0
    7.9034    0.5095  -15.6915 N   0  0  0  0  0  0  0  0  0  0  0  0
    5.5828    2.0882  -18.1446 N   0  0  0  0  0  0  0  0  0  0  0  0
    3.9453    5.7912  -17.2496 N   0  0  0  0  0  0  0  0  0  0  0  0
    6.9717    5.5485  -19.2519 O   0  0  0  0  0  0  0  0  0  0  0  0
    8.5149   -1.2917  -14.3054 O   0  0  0  0  0  0  0  0  0  0  0  0
    7.8717    2.1914  -18.0350 O   0  0  0  0  0  0  0  0  0  0  0  0
    3.9479    4.8266  -19.9968 O   0  0  0  0  0  0  0  0  0  0  0  0
    8.7702    0.1512  -22.3076 F   0  0  0  0  0  0  0  0  0  0  0  0
    5.4927   -2.7436  -20.3562 F   0  0  0  0  0  0  0  0  0  0  0  0
    4.8594   11.0446  -22.8506 H   0  0  0  0  0  0  0  0  0  0  0  0
    5.8360   12.2513  -20.9058 H   0  0  0  0  0  0  0  0  0  0  0  0
    4.9202    8.5578  -22.9321 H   0  0  0  0  0  0  0  0  0  0  0  0
    6.8566   10.9742  -19.0335 H   0  0  0  0  0  0  0  0  0  0  0  0
    5.9653    7.2757  -21.0722 H   0  0  0  0  0  0  0  0  0  0  0  0
    7.1097    2.0811  -21.6510 H   0  0  0  0  0  0  0  0  0  0  0  0
    4.1514   -0.5270  -19.9037 H   0  0  0  0  0  0  0  0  0  0  0  0
    7.7482   -2.1808  -21.6076 H   0  0  0  0  0  0  0  0  0  0  0  0
    4.2684    8.3121  -18.1091 H   0  0  0  0  0  0  0  0  0  0  0  0
    5.4008    8.8062  -16.8052 H   0  0  0  0  0  0  0  0  0  0  0  0
    5.6965   -0.9878  -17.5625 H   0  0  0  0  0  0  0  0  0  0  0  0
    7.3933   -0.7665  -18.1089 H   0  0  0  0  0  0  0  0  0  0  0  0
    5.1154    6.6144  -15.6985 H   0  0  0  0  0  0  0  0  0  0  0  0
    3.5170    7.3953  -15.9471 H   0  0  0  0  0  0  0  0  0  0  0  0
    5.5715    4.4414  -17.0837 H   0  0  0  0  0  0  0  0  0  0  0  0
    5.8395    0.7456  -15.9839 H   0  0  0  0  0  0  0  0  0  0  0  0
   10.4725   -4.2666  -17.6882 H   0  0  0  0  0  0  0  0  0  0  0  0
    9.9945   -4.0219  -15.9742 H   0  0  0  0  0  0  0  0  0  0  0  0
    9.0873   -5.1819  -17.0028 H   0  0  0  0  0  0  0  0  0  0  0  0
    6.2619    1.7011  -13.9240 H   0  0  0  0  0  0  0  0  0  0  0  0
    7.4589    0.7614  -12.9697 H   0  0  0  0  0  0  0  0  0  0  0  0
    7.5192    2.5567  -12.9682 H   0  0  0  0  0  0  0  0  0  0  0  0
   10.3824    1.5637  -15.2247 H   0  0  0  0  0  0  0  0  0  0  0  0
    9.9544    2.4755  -13.7375 H   0  0  0  0  0  0  0  0  0  0  0  0
    9.8940    0.6802  -13.7389 H   0  0  0  0  0  0  0  0  0  0  0  0
    4.5486    2.7234  -21.3093 H   0  0  0  0  0  0  0  0  0  0  0  0
    3.6985    1.7570  -20.0563 H   0  0  0  0  0  0  0  0  0  0  0  0
    7.9698    7.7029  -19.1524 H   0  0  0  0  0  0  0  0  0  0  0  0
    7.4665    9.0010  -18.0174 H   0  0  0  0  0  0  0  0  0  0  0  0
    9.2156   -2.1451  -17.4035 H   0  0  0  0  0  0  0  0  0  0  0  0
    8.3083   -3.3051  -18.4322 H   0  0  0  0  0  0  0  0  0  0  0  0
    6.5882   -3.4884  -16.9134 H   0  0  0  0  0  0  0  0  0  0  0  0
    7.7065   -3.5248  -15.5082 H   0  0  0  0  0  0  0  0  0  0  0  0
    3.5467    3.6154  -18.3761 H   0  0  0  0  0  0  0  0  0  0  0  0
    8.1097    2.5741  -15.3498 H   0  0  0  0  0  0  0  0  0  0  0  0
    6.3003    3.3579  -19.6830 H   0  0  0  0  0  0  0  0  0  0  0  0
    4.7728    1.7430  -17.6706 H   0  0  0  0  0  0  0  0  0  0  0  0
    3.4304    5.1712  -16.6576 H   0  0  0  0  0  0  0  0  0  0  0  0
    3.3511    6.1222  -17.9828 H   0  0  0  0  0  0  0  0  0  0  0  0
    3.5444    4.2388  -20.6246 H   0  0  0  0  0  0  0  0  0  0  0  0
  1  2  2  0
  1  3  1  0
  2  4  1  0
  3  5  2  0
  4  9  2  0
  5  9  1  0
  6 10  2  0
  6 11  1  0
  7 10  1  0
  7 12  2  0
  8 11  2  0
  8 12  1  0
  9 25  1  0
 10 24  1  0
 11 40  1  0
 12 41  1  0
 13 19  1  0
 13 31  1  0
 13 36  2  0
 14 32  1  0
 14 33  1  0
 14 37  2  0
 15 20  1  0
 15 34  1  0
 15 38  2  0
 16 18  1  0
 16 31  1  0
 17 20  1  0
 17 32  1  0
 18 35  1  0
 19 28  1  0
 19 35  1  0
 20 33  1  0
 21 26  1  0
 22 29  1  0
 23 29  1  0
 24 30  1  0
 25 31  1  0
 26 27  1  0
 27 32  1  0
 28 30  1  0
 28 39  1  0
 29 33  1  0
 30 34  1  0
  1 42  1  0
  2 43  1  0
  3 44  1  0
  4 45  1  0
  5 46  1  0
  6 47  1  0
  7 48  1  0
  8 49  1  0
 16 50  1  0
 16 51  1  0
 17 52  1  0
 17 53  1  0
 18 54  1  0
 18 55  1  0
 19 56  1  1
 20 57  1  1
 21 58  1  0
 21 59  1  0
 21 60  1  0
 22 61  1  0
 22 62  1  0
 22 63  1  0
 23 64  1  0
 23 65  1  0
 23 66  1  0
 24 67  1  0
 24 68  1  0
 25 69  1  0
 25 70  1  0
 26 71  1  0
 26 72  1  0
 27 73  1  0
 27 74  1  0
 28 75  1  1
 29 76  1  0
 30 77  1  6
 34 78  1  0
 35 79  1  0
 35 80  1  0
 39 81  1  0
M  CHG  1  35   1
M  END
>  <OMEGA_C>  (29) 
4uCpQHLSJ0F+U7DBmX67QLjAMkH1gafBUwGrQDBKEUHusrDB6w/OQHItJ0GvCZ/BCNC9QOarBUEm
QqjB07zYQFUdiz/uLKvBmR2jQH30x76lQKPBJGHkQOuEqb+36arBEUrPQPWeEEE8XZ/BNOmwQCJ1
Zz+TFKbBemnyQKA23rxhm63BRNS8QO6LwL+DraXBJZDDQEwGwECYCJTBkln+QDIQV79Jt3TBWf7Z
QHmP2z+QFI3B6tKgQB+d/kC7KIvBc+/WQL7DOr9t8InBQj2MQMIX3kDim4PB2RmiQGAzoUAn3I7B
6CjYQPc3HT+KooTBvPkZQYUWh8Ag7IfBCcPpQDo31T9VOlnBaqAbQefgyj/Jd2XBTMqVQClyBkA6
TKPB9a/jQN5/BEHSK5bBcMUKQXmIRsDnUIvBYuHuQOTAQMAim4PBhiuNQNKDgkBL/ZbBNQ4EQbVD
0T8Eu2zBdVmrQKYNPEBHeZrBt8HEQIxr60CLJJHBYIXlQMFyzb/Kc4HB4+j8QFZwAj+WEHvBnKay
QMOlBUAsKJHBEH98QJpRuUBC/4nBwhffQC2NsUDYA5rB4TwIQQtWpb8C42TBv+T7QCFADECVR5DB
cap8QMFzmkBl+Z/BjlIMQVDUGj4PdrLB/cOvQM+WL8Bw2aLBlYCbQJm2MEHzzbbBMsC6QFsFREEk
P6fBq3KdQKzsCEHsdLfBUGnbQGuWL0GfRJjBe+O+QMTS6EDVk6jBSoLjQJ0wBUA9Na3BLdiEQKrr
Br+4Op/B4fD3QK+RC8Bv3KzB4ZaIQEH+BEGC35DBwtOsQATmDEEgcYbB9Em2QGbjfL8DgIzBKJbs
QGM8RL8L35DBu7GjQMqo00D+LHvBWxZhQOWl7EBIJ3/BzUmyQFogjkBaq4jBV926QAHdPj/dvX/B
Uo8nQQmIiMCFgY3BeukfQaCzgMA1ln/BcmURQfTRpcDDBYjBcmHIQIa92T+LyF7B7q7uQKHsQj++
g0/BPp3wQP6gI0CqfU/BVh4mQZ0myD86mHPBHUUfQWpuHkCmzFvB9k0eQVAiLj+60lvBK46RQGhL
LkCEearBmrRsQJfl4D82c6DB8Aj/QCl+9kAuOJnB2O3uQCsEEEGwI5DB8HITQQlKCcBuOovB6e4E
QbCGU8AXdZPBtdLSQJBBX8C7TofBdpv2QHuWYcBkIXjBaP1iQHdjZ0BZApPBacEBQa++JED7mHXB
J5zJQM/nVkDTdp3BCruYQMEa3z9eXY3BN4tbQMN6pUC8QoXBznhWQPzow0Cu3I/BKdhiQEukh0A2
/6TBEA2oQAm1J0EHJbDBSJ2tQLpqEUFWLLHB79q1QLhGMkEUzqbBeibBQBWwBUGH36jBjUXJQEmW
JkFdf57Bf0baQGLdiD9m8arBLQGlQLqp2L58DKPB7dfmQMAfq7/7jarBMTDPQHVNEEHxhJ/Bh16y
QPraXz+H6aXB3HP0QJCXFL35R63B5DG/QBqkw7/1Y6XB9hDEQMwHv0AmHJTBxXQDQfn3QL/itnTB
I/3aQDZi2T9E14zBOuKgQJwC/kBWh4vBWDLcQB3VQb85aYnB57SMQBTw3UBXzIPBt7yiQCxYoED6
0I7B6G/aQC0XGj98UITBqVMWQUP7csBOy4jBIKfxQO6qvz/Hn1XBXHYbQXpJAEAxYGnBtNCWQIT9
A0CQK6PB0f7jQKgBBEEBeJbBjrb7QH8/b8B4sonB7IXnQFcDQcB0BIDBacqNQPZNgUDO25bBtWkD
QXBy3T85rWvB6AesQJmLOUDpS5rB3PXEQBWg6kBqapHB+E/sQMBGx7/mqoDB9x7/QDx2Fz8OOnrB
VHGzQKe2AkCo/ZDBvLF9QECQuEDt/InBlNDfQFpIsEC2+5nB5NEOQQjUk78yEmbBrHX8QKWhDUBv
74/BhMd9QJYAmUCK4Z/BJFkNQUDSHD7AGrLBHHCyQDRYMcBlkaLBVjGZQPqwMEGshbbBZ+eiQLJT
CUGoUrjBt4ixQFdZQ0GoBabB+2TFQHc46UAAqKnB1arTQISxLkHPUpfBOLfkQMU9BEA1/6zBZ7KG
QMl/Eb/9D5/B5s36QKT4C8BZbKzBRoCIQDdRBEEFS5HBT6SsQDTcDEGP94bBski8QBz2i79z+IvB
eyHyQEWpRb/qSpDBuV2kQBEl1EAZhXvBEPthQMWZ7EBKmX/BPQ6zQIyPjUB+l4jBr7a8QG17MD8h
Tn/BpfAcQZshisD0zo/Bq8gcQemMMcC5cYjBy8waQfnlisDZeoHBGEfPQJPlpj9QzlfB21QAQdSx
IT+Bx03B5vb1QAcKGUBPmEvBhYMiQSCWCkBmS3nB9OEdQWi9OUAYf1/BXDsjQas/kj9KrmHBOJ6S
QMjtK0A0V6rBcMZuQATt2j+JYaDBHv7+QGBZ9UA2ppnBG8vvQGxgD0ERb5DBFxPzQICoTMAYDZHB
VhvvQMVzmMA4ForBvTjFQAahUMAObX/BuTH3QOa9V8DSVXHBJFZkQMsjZUD11ZLB5hP4QFcdKEDL
tnLBy1HKQPOLVEB3P53B4aGZQH4X1j8rTY3BomBdQOrypEBWIIXBxh5XQNOOwkDA3I/BieVjQOMN
hkDH3aTB

>  <OMEGA_E>  (29) 
QPQIPwgICD8=

>  <OMEGA_NBR>  (29) 
     27247

$$$$
50147905
     RDKit          3D

 78 80  0  0  1  0  0  0  0  0999 V2000
    6.7327   -0.1977  -16.6575 C   0  0  0  0  0  0  0  0  0  0  0  0
    8.3822    1.3504  -15.7401 C   0  0  0  0  0  0  0  0  0  0  0  0
    8.0434   -0.8272  -14.6987 C   0  0  0  0  0  0  0  0  0  0  0  0
    6.7365    1.0113  -21.3244 C   0  0  0  0  0  0  0  0  0  0  0  0
    4.9139   -0.4632  -20.6350 C   0  0  0  0  0  0  0  0  0  0  0  0
    6.9909   -1.4064  -21.4986 C   0  0  0  0  0  0  0  0  0  0  0  0
    7.3970    1.0481  -16.7038 C   0  0  0  0  0  0  0  0  0  0  0  0
    7.0894   -1.1556  -15.6834 C   0  0  0  0  0  0  0  0  0  0  0  0
    8.6800    0.4290  -14.7182 C   0  0  0  0  0  0  0  0  0  0  0  0
    5.4360    0.8341  -20.8010 C   0  0  0  0  0  0  0  0  0  0  0  0
    7.5164   -0.1093  -21.6614 C   0  0  0  0  0  0  0  0  0  0  0  0
    5.6856   -1.5802  -20.9964 C   0  0  0  0  0  0  0  0  0  0  0  0
    6.1101    5.9652  -18.5796 C   0  0  0  0  0  0  0  0  0  0  0  0
    7.0708    2.0194  -17.7587 C   0  0  0  0  0  0  0  0  0  0  0  0
    6.4831   -2.5023  -15.6904 C   0  0  0  0  0  0  0  0  0  0  0  0
    4.9495    7.9236  -17.5531 C   0  0  0  0  0  0  0  0  0  0  0  0
    4.4196    6.9233  -16.5232 C   0  0  0  0  0  0  0  0  0  0  0  0
    5.1035    4.9840  -17.8827 C   0  0  2  0  0  0  0  0  0  0  0  0
    9.7536    0.7497  -13.7037 C   0  0  0  0  0  0  0  0  0  0  0  0
    9.3107   -4.2340  -16.8862 C   0  0  0  0  0  0  0  0  0  0  0  0
    3.7394   -3.4859  -17.8140 C   0  0  0  0  0  0  0  0  0  0  0  0
    6.8556    8.2724  -19.1684 C   0  0  0  0  0  0  0  0  0  0  0  0
    4.5991    2.0284  -20.4094 C   0  0  0  0  0  0  0  0  0  0  0  0
    8.5010   -4.0641  -18.1834 C   0  0  0  0  0  0  0  0  0  0  0  0
    4.2597   -4.4668  -16.7506 C   0  0  0  0  0  0  0  0  0  0  0  0
    7.3587   -3.0415  -18.0167 C   0  0  0  0  0  0  0  0  0  0  0  0
    5.7886   -4.6349  -16.8259 C   0  0  0  0  0  0  0  0  0  0  0  0
    4.4090    4.0110  -18.8631 C   0  0  2  0  0  0  0  0  0  0  0  0
    5.3424    2.9007  -19.3815 C   0  0  1  0  0  0  0  0  0  0  0  0
    6.0563    7.3482  -18.3390 N   0  0  0  0  0  0  0  0  0  0  0  0
    5.7758    2.0523  -18.2603 N   0  0  0  0  0  0  0  0  0  0  0  0
    6.5052   -3.3347  -16.8330 N   0  0  0  0  0  0  0  0  0  0  0  0
    3.9904    5.7190  -17.2380 N   0  0  0  0  0  0  0  0  0  0  0  0
    6.9965    5.5174  -19.2988 O   0  0  0  0  0  0  0  0  0  0  0  0
    7.9347    2.7833  -18.1770 O   0  0  0  0  0  0  0  0  0  0  0  0
    5.9857   -2.9064  -14.6445 O   0  0  0  0  0  0  0  0  0  0  0  0
    3.8679    4.7598  -19.9523 O   0  0  0  0  0  0  0  0  0  0  0  0
    8.7656    0.0612  -22.1498 F   0  0  0  0  0  0  0  0  0  0  0  0
    5.1691   -2.8212  -20.8675 F   0  0  0  0  0  0  0  0  0  0  0  0
    5.9502   -0.4180  -17.3686 H   0  0  0  0  0  0  0  0  0  0  0  0
    8.9097    2.2917  -15.7866 H   0  0  0  0  0  0  0  0  0  0  0  0
    8.2871   -1.5418  -13.9263 H   0  0  0  0  0  0  0  0  0  0  0  0
    7.1312    2.0066  -21.4656 H   0  0  0  0  0  0  0  0  0  0  0  0
    3.9218   -0.5993  -20.2306 H   0  0  0  0  0  0  0  0  0  0  0  0
    7.5884   -2.2676  -21.7587 H   0  0  0  0  0  0  0  0  0  0  0  0
    4.1328    8.2021  -18.2352 H   0  0  0  0  0  0  0  0  0  0  0  0
    5.3110    8.8203  -17.0285 H   0  0  0  0  0  0  0  0  0  0  0  0
    5.2150    6.6684  -15.8074 H   0  0  0  0  0  0  0  0  0  0  0  0
    3.5667    7.3604  -15.9834 H   0  0  0  0  0  0  0  0  0  0  0  0
    5.6494    4.3993  -17.1276 H   0  0  0  0  0  0  0  0  0  0  0  0
    9.2986    1.2391  -12.8299 H   0  0  0  0  0  0  0  0  0  0  0  0
   10.2479   -0.1805  -13.3868 H   0  0  0  0  0  0  0  0  0  0  0  0
   10.4958    1.4237  -14.1562 H   0  0  0  0  0  0  0  0  0  0  0  0
   10.1127   -4.9693  -17.0476 H   0  0  0  0  0  0  0  0  0  0  0  0
    9.7515   -3.2677  -16.6000 H   0  0  0  0  0  0  0  0  0  0  0  0
    8.6466   -4.5863  -16.0831 H   0  0  0  0  0  0  0  0  0  0  0  0
    2.6467   -3.3947  -17.7261 H   0  0  0  0  0  0  0  0  0  0  0  0
    4.2029   -2.5001  -17.6615 H   0  0  0  0  0  0  0  0  0  0  0  0
    3.9965   -3.8610  -18.8156 H   0  0  0  0  0  0  0  0  0  0  0  0
    6.6852    9.3065  -18.8342 H   0  0  0  0  0  0  0  0  0  0  0  0
    7.9228    8.0257  -19.0674 H   0  0  0  0  0  0  0  0  0  0  0  0
    6.5545    8.1733  -20.2217 H   0  0  0  0  0  0  0  0  0  0  0  0
    4.3857    2.6293  -21.3057 H   0  0  0  0  0  0  0  0  0  0  0  0
    3.6538    1.6782  -19.9692 H   0  0  0  0  0  0  0  0  0  0  0  0
    9.1750   -3.7179  -18.9808 H   0  0  0  0  0  0  0  0  0  0  0  0
    8.0701   -5.0365  -18.4639 H   0  0  0  0  0  0  0  0  0  0  0  0
    3.9921   -4.0860  -15.7539 H   0  0  0  0  0  0  0  0  0  0  0  0
    3.7856   -5.4468  -16.9081 H   0  0  0  0  0  0  0  0  0  0  0  0
    7.7960   -2.0392  -17.8978 H   0  0  0  0  0  0  0  0  0  0  0  0
    6.7306   -3.0628  -18.9195 H   0  0  0  0  0  0  0  0  0  0  0  0
    6.1226   -5.2167  -15.9541 H   0  0  0  0  0  0  0  0  0  0  0  0
    6.0383   -5.1801  -17.7481 H   0  0  0  0  0  0  0  0  0  0  0  0
    3.5858    3.5251  -18.3190 H   0  0  0  0  0  0  0  0  0  0  0  0
    6.2163    3.3616  -19.8651 H   0  0  0  0  0  0  0  0  0  0  0  0
    5.0934    1.4607  -17.8311 H   0  0  0  0  0  0  0  0  0  0  0  0
    3.5430    5.1069  -16.5861 H   0  0  0  0  0  0  0  0  0  0  0  0
    3.3369    5.9874  -17.9458 H   0  0  0  0  0  0  0  0  0  0  0  0
    3.4387    4.1696  -20.5606 H   0  0  0  0  0  0  0  0  0  0  0  0
  1  7  2  0
  1  8  1  0
  2  7  1  0
  2  9  2  0
  3  8  2  0
  3  9  1  0
  4 10  2  0
  4 11  1  0
  5 10  1  0
  5 12  2  0
  6 11  2  0
  6 12  1  0
  7 14  1  0
  8 15  1  0
  9 19  1  0
 10 23  1  0
 11 38  1  0
 12 39  1  0
 13 18  1  0
 13 30  1  0
 13 34  2  0
 14 31  1  0
 14 35  2  0
 15 32  1  0
 15 36  2  0
 16 17  1  0
 16 30  1  0
 17 33  1  0
 18 28  1  0
 18 33  1  0
 20 24  1  0
 21 25  1  0
 22 30  1  0
 23 29  1  0
 24 26  1  0
 25 27  1  0
 26 32  1  0
 27 32  1  0
 28 29  1  0
 28 37  1  0
 29 31  1  0
  1 40  1  0
  2 41  1  0
  3 42  1  0
  4 43  1  0
  5 44  1  0
  6 45  1  0
 16 46  1  0
 16 47  1  0
 17 48  1  0
 17 49  1  0
 18 50  1  1
 19 51  1  0
 19 52  1  0
 19 53  1  0
 20 54  1  0
 20 55  1  0
 20 56  1  0
 21 57  1  0
 21 58  1  0
 21 59  1  0
 22 60  1  0
 22 61  1  0
 22 62  1  0
 23 63  1  0
 23 64  1  0
 24 65  1  0
 24 66  1  0
 25 67  1  0
 25 68  1  0
 26 69  1  0
 26 70  1  0
 27 71  1  0
 27 72  1  0
 28 73  1  1
 29 74  1  6
 31 75  1  0
 33 76  1  0
 33 77  1  0
 37 78  1  0
M  CHG  1  33   1
M  END
>  <OMEGA_C>  (30) 
/HHXQE5+Sr6AQoXBjR0GQabYrD+D13vB7LEAQTLGU7+yLWvBYZHXQKlxgT9mmKrBwz6dQBcv7b6H
FKXBRbXfQF4EtL8Y/avBE7TsQG4nhj92oYXButziQIrqk79U73rBK+EKQcym2z62fWvBmvOtQAKK
VT9maKbBvobwQKzk372LSq3BffC1QOZEyr+c+KfBB4bDQArjvkAQo5TBOETiQGw9AUDXEY7B1HXP
QDUlIMDWC3vBtGKeQCCO/UDBbIzBvW2NQGWL3UCNL4TBNVCjQKF8n0DaD4/Bkg4cQQDqPz9yQlvB
h/gUQet8h8D3FofBp1FvQEMZX8Afg47BMmHbQLtbBEHUWJnBkiuTQAvSAUBlRqPBOwQIQckMgsCC
d5HBE0+IQKnvjsBHAYbBvXrrQJOoQsA8IpDBXDy5QCpRlMBom4bB7xaNQDhagEC055bBDPWqQNSk
OUBdDZvB+8zBQJIk60A7tpLBd9O4QGNZA0ABFZLBbirQQH9sVcD8qYbBXmN/QBACt0CG54nBaOPf
QMuOsEDnY5rBFOn9QHIhMkCXapHB5Yq/QPkCOsCvT2rBlot3QBJQmEBBnp/Buz8MQYSNej3MMrHB
HGmlQNWNNMCl8KbBOWi+QMQE1r7Y8orB8Y0OQZyqEkDUlXzB3JcEQaFYxb850l7BBzPkQBtsAECF
uavBrP56QEBtGb8y2KHBUtTyQFwgEcDHEa7BgD+EQOo7A0Gz4ZHB+POpQAsgDUFaOojBZeGmQNRj
1UDz6nzB+kRkQDSI60Dju3/Buse0QOLGjEBfBYnBP8cUQbKZnj9UR03BlPcjQd/MOL5fMFbB9+4n
Qcs6tj/Gf2LBlM0hQcUEn8CQYYjBPgYcQcMhUcDlzITBiVgKQavCksBDqoDBL2MpQJhCWcAVz43B
ZX6GQKwBIMCySo3B68V/QN8Zd8ByhpbBSO3VQDrnFEFjrJbByof9QEdpAEH3iZjBMb7RQMfFAkEI
xqHB5VeMQMlGKEAccqrBgtdpQGvO1j/0wJ/B4cwSQSvybcCt2JfBLB8BQd8qocALtpPBmH5/QCbA
gsAUEHzBuUdyQD9MrsDJQ4fBn3j5QFWCAsCmLo/BbmHXQDoFRMAsW5fBW+zDQE3vpsAZRH/B/TnB
QEfDpcAK/I3Bd31lQHKbYUA4jZLB1+vGQMMkV0DN657B7vyiQMT2uj8Jpo7BaMBiQIdro0A+sITB
VpBVQPmYv0D0kI/BmxNcQJ9thUAKfKTBNc3XQBCeRr4geIXB+BwGQQFyrT8R8nvBPl4AQXC3UL/u
M2vBGM7ZQI3PhD+txqrBT1+fQDLd4L68X6XBt0DiQPvQsL/4BqzBZxvtQO6Mhj+PyoXBX33iQGP/
kb/4EHvBdaMKQcVB3z64e2vBlfevQFnnWz+VvKbBwAPzQHXdqb38Vq3BXlm4QGlBx78mF6jB3BPD
QKo4v0BGZZTBZuviQM+OAUAyPI7B0YTOQAZIHsDp3XrBbXScQBn9/EChLYzBQKaLQO1f3ECREYTB
tumiQBAgn0CiDY/BAo4bQZ8qQT8d+1rBDK1vQEkSXcCO1ozB3ugVQTPJi8BqIojB/dvZQF7SBEGh
5ZjBJPSUQMFTA0DysKPByFqWQFSslMDQdo7B84MHQW9hhMDR9JHB81K6QPr3lMBTEIbBtlPtQPN2
Q8Bjp4/ByXmNQFg7gEC9F5fB3firQMuaOkDVRZvBiWnAQPxl60DyapLBQJy5QOStA0AKVpLBBprS
QHnkV8BgFYbBxXV9QKLltUCh7YnBPjfgQCWCsUDH/5nBo57+QFi1MkBkfZHBmgC8QFvZM8B5bWrB
WaJ4QACBmEDXxJ/B254NQXzNtT3IFLHBSAWoQOYdM8Bh46bBzFa/QOPN175uS4vBkZMOQRXtEkB1
nHzBORgEQUKzw796x17BF2vmQPEhAkD25KvBWOt+QFdWE7/5PaLBPYT1QHZ+D8C4Ca7BwGmCQBjd
AkFdrpHBhGWnQADXDEFE4IfB1PykQFJZ1EAgmXzBRfNfQGHD6UCtkH/Bc0K0QAg8jECeBonByxIU
QaO4nz95JE3BHFEjQcgYNb6AvlXBmpgnQXpVtj/8CmLBcjU9QJq5XsBY+JLBwGlSQIETYcCb2YTB
i+eJQNbnIMCxh43B0c0hQVaopMAS+4nB2CweQQClW8DiEobBoggMQX4plsD3U4HB5ZbTQDxGFUFw
MZbB8xj8QFgxAUE19ZfB8NnQQDFCA0E0XqHBkdmOQNQ8KkBJ3arBlrZsQAaY2T/+X6DBL/6DQH+W
ssCFzY3B2rCkQKqAksCce5bBynwRQeBEdMBwvZjBJ7H+QG55osCG/pPBqi2sQEHVmcAhMnzBK3bQ
QIphr8D42ofB7ND9QFJGBsB/Qo7BND3YQCWEPcAYqZbBfjBmQOs2YEDw4pLBmP3HQFsyWUAv+57B
67ejQMjIuj+I/47BBPZgQHzfoUAJzoTBQt9TQMZtvkBln4/BiCVeQIHAhUA8wKTB

>  <OMEGA_E>  (30) 
gJx0PrAYXj4=

>  <OMEGA_NBR>  (30) 
     30021

$$$$
50147880
     RDKit          3D

 84 86  0  0  1  0  0  0  0  0999 V2000
    6.7519   -0.1871  -16.6996 C   0  0  0  0  0  0  0  0  0  0  0  0
    8.3954    1.3471  -15.7468 C   0  0  0  0  0  0  0  0  0  0  0  0
    8.0324   -0.8333  -14.7246 C   0  0  0  0  0  0  0  0  0  0  0  0
    6.8630    1.0332  -21.3768 C   0  0  0  0  0  0  0  0  0  0  0  0
    5.0144   -0.4134  -20.6968 C   0  0  0  0  0  0  0  0  0  0  0  0
    7.0920   -1.3907  -21.5172 C   0  0  0  0  0  0  0  0  0  0  0  0
    7.4183    1.0594  -16.7248 C   0  0  0  0  0  0  0  0  0  0  0  0
    7.0810   -1.1436  -15.7147 C   0  0  0  0  0  0  0  0  0  0  0  0
    8.7038    0.4018  -14.7506 C   0  0  0  0  0  0  0  0  0  0  0  0
    5.5502    0.8758  -20.8803 C   0  0  0  0  0  0  0  0  0  0  0  0
    7.6341   -0.1009  -21.6911 C   0  0  0  0  0  0  0  0  0  0  0  0
    5.7799   -1.5441  -21.0245 C   0  0  0  0  0  0  0  0  0  0  0  0
    6.0167    6.0038  -18.6893 C   0  0  0  0  0  0  0  0  0  0  0  0
    7.0982    2.0529  -17.7630 C   0  0  0  0  0  0  0  0  0  0  0  0
    6.4380   -2.4672  -15.7004 C   0  0  0  0  0  0  0  0  0  0  0  0
    4.5924    7.8714  -17.8490 C   0  0  0  0  0  0  0  0  0  0  0  0
    4.4003    6.9333  -16.6500 C   0  0  0  0  0  0  0  0  0  0  0  0
    5.1546    4.9578  -17.9208 C   0  0  2  0  0  0  0  0  0  0  0  0
    9.7088    0.7373  -13.6733 C   0  0  0  0  0  0  0  0  0  0  0  0
    7.9864    8.9066  -18.7378 C   0  0  0  0  0  0  0  0  0  0  0  0
    3.7148   -3.3727  -17.6074 C   0  0  0  0  0  0  0  0  0  0  0  0
    9.3212   -4.3783  -16.9887 C   0  0  0  0  0  0  0  0  0  0  0  0
    4.7180    2.0824  -20.5208 C   0  0  0  0  0  0  0  0  0  0  0  0
    6.7713    9.3564  -19.5684 C   0  0  0  0  0  0  0  0  0  0  0  0
    4.6253   -4.5981  -17.8123 C   0  0  0  0  0  0  0  0  0  0  0  0
    8.4452   -4.1557  -18.2351 C   0  0  0  0  0  0  0  0  0  0  0  0
    5.9249    8.1481  -20.0040 C   0  0  0  0  0  0  0  0  0  0  0  0
    5.7630   -4.6364  -16.7779 C   0  0  0  0  0  0  0  0  0  0  0  0
    7.3862   -3.0702  -17.9787 C   0  0  0  0  0  0  0  0  0  0  0  0
    4.4508    3.9840  -18.8885 C   0  0  2  0  0  0  0  0  0  0  0  0
    5.4173    2.9238  -19.4389 C   0  0  1  0  0  0  0  0  0  0  0  0
    5.5329    7.3098  -18.8455 N   0  0  0  0  0  0  0  0  0  0  0  0
    5.8346    2.0414  -18.3375 N   0  0  0  0  0  0  0  0  0  0  0  0
    6.5439   -3.3684  -16.7831 N   0  0  0  0  0  0  0  0  0  0  0  0
    4.0567    5.6032  -17.1609 N   0  0  0  0  0  0  0  0  0  0  0  0
    7.0443    5.6462  -19.2556 O   0  0  0  0  0  0  0  0  0  0  0  0
    7.9359    2.8848  -18.0960 O   0  0  0  0  0  0  0  0  0  0  0  0
    5.8607   -2.7965  -14.6697 O   0  0  0  0  0  0  0  0  0  0  0  0
    3.8500    4.7262  -19.9534 O   0  0  0  0  0  0  0  0  0  0  0  0
    8.8903    0.0493  -22.1685 F   0  0  0  0  0  0  0  0  0  0  0  0
    5.2502   -2.7771  -20.8680 F   0  0  0  0  0  0  0  0  0  0  0  0
    5.9910   -0.4076  -17.4336 H   0  0  0  0  0  0  0  0  0  0  0  0
    8.9087    2.2972  -15.7632 H   0  0  0  0  0  0  0  0  0  0  0  0
    8.2474   -1.5464  -13.9424 H   0  0  0  0  0  0  0  0  0  0  0  0
    7.2742    2.0223  -21.5151 H   0  0  0  0  0  0  0  0  0  0  0  0
    4.0153   -0.5325  -20.3042 H   0  0  0  0  0  0  0  0  0  0  0  0
    7.6820   -2.2616  -21.7615 H   0  0  0  0  0  0  0  0  0  0  0  0
    3.6178    8.0345  -18.3325 H   0  0  0  0  0  0  0  0  0  0  0  0
    4.9882    8.8324  -17.4886 H   0  0  0  0  0  0  0  0  0  0  0  0
    5.3311    6.8792  -16.0665 H   0  0  0  0  0  0  0  0  0  0  0  0
    3.5877    7.3079  -16.0103 H   0  0  0  0  0  0  0  0  0  0  0  0
    5.8028    4.3880  -17.2388 H   0  0  0  0  0  0  0  0  0  0  0  0
    9.1945    1.2186  -12.8284 H   0  0  0  0  0  0  0  0  0  0  0  0
   10.1973   -0.1856  -13.3275 H   0  0  0  0  0  0  0  0  0  0  0  0
   10.4666    1.4231  -14.0798 H   0  0  0  0  0  0  0  0  0  0  0  0
    8.5737    9.7876  -18.4396 H   0  0  0  0  0  0  0  0  0  0  0  0
    7.6397    8.3758  -17.8389 H   0  0  0  0  0  0  0  0  0  0  0  0
    8.6144    8.2346  -19.3412 H   0  0  0  0  0  0  0  0  0  0  0  0
    2.9153   -3.3789  -18.3629 H   0  0  0  0  0  0  0  0  0  0  0  0
    3.2695   -3.4109  -16.6023 H   0  0  0  0  0  0  0  0  0  0  0  0
    4.3093   -2.4530  -17.7104 H   0  0  0  0  0  0  0  0  0  0  0  0
   10.0682   -5.1578  -17.1994 H   0  0  0  0  0  0  0  0  0  0  0  0
    9.8336   -3.4403  -16.7286 H   0  0  0  0  0  0  0  0  0  0  0  0
    8.6877   -4.6956  -16.1473 H   0  0  0  0  0  0  0  0  0  0  0  0
    4.5708    2.6999  -21.4192 H   0  0  0  0  0  0  0  0  0  0  0  0
    3.7412    1.7472  -20.1421 H   0  0  0  0  0  0  0  0  0  0  0  0
    6.1499   10.0309  -18.9611 H   0  0  0  0  0  0  0  0  0  0  0  0
    7.1246    9.8897  -20.4633 H   0  0  0  0  0  0  0  0  0  0  0  0
    4.0215   -5.5122  -17.7131 H   0  0  0  0  0  0  0  0  0  0  0  0
    5.0613   -4.5543  -18.8212 H   0  0  0  0  0  0  0  0  0  0  0  0
    9.0852   -3.8428  -19.0733 H   0  0  0  0  0  0  0  0  0  0  0  0
    7.9392   -5.0981  -18.4920 H   0  0  0  0  0  0  0  0  0  0  0  0
    5.0159    8.5113  -20.5057 H   0  0  0  0  0  0  0  0  0  0  0  0
    6.5110    7.5360  -20.7054 H   0  0  0  0  0  0  0  0  0  0  0  0
    5.3321   -4.7874  -15.7771 H   0  0  0  0  0  0  0  0  0  0  0  0
    6.4365   -5.4726  -17.0171 H   0  0  0  0  0  0  0  0  0  0  0  0
    7.8968   -2.1089  -17.8203 H   0  0  0  0  0  0  0  0  0  0  0  0
    6.7337   -2.9977  -18.8614 H   0  0  0  0  0  0  0  0  0  0  0  0
    3.6644    3.4613  -18.3242 H   0  0  0  0  0  0  0  0  0  0  0  0
    6.2936    3.4235  -19.8776 H   0  0  0  0  0  0  0  0  0  0  0  0
    5.1643    1.3913  -17.9797 H   0  0  0  0  0  0  0  0  0  0  0  0
    3.8221    5.0174  -16.3852 H   0  0  0  0  0  0  0  0  0  0  0  0
    3.2639    5.6912  -17.7640 H   0  0  0  0  0  0  0  0  0  0  0  0
    3.4159    4.1286  -20.5509 H   0  0  0  0  0  0  0  0  0  0  0  0
  1  7  2  0
  1  8  1  0
  2  7  1  0
  2  9  2  0
  3  8  2  0
  3  9  1  0
  4 10  2  0
  4 11  1  0
  5 10  1  0
  5 12  2  0
  6 11  2  0
  6 12  1  0
  7 14  1  0
  8 15  1  0
  9 19  1  0
 10 23  1  0
 11 40  1  0
 12 41  1  0
 13 18  1  0
 13 32  1  0
 13 36  2  0
 14 33  1  0
 14 37  2  0
 15 34  1  0
 15 38  2  0
 16 17  1  0
 16 32  1  0
 17 35  1  0
 18 30  1  0
 18 35  1  0
 20 24  1  0
 21 25  1  0
 22 26  1  0
 23 31  1  0
 24 27  1  0
 25 28  1  0
 26 29  1  0
 27 32  1  0
 28 34  1  0
 29 34  1  0
 30 31  1  0
 30 39  1  0
 31 33  1  0
  1 42  1  0
  2 43  1  0
  3 44  1  0
  4 45  1  0
  5 46  1  0
  6 47  1  0
 16 48  1  0
 16 49  1  0
 17 50  1  0
 17 51  1  0
 18 52  1  1
 19 53  1  0
 19 54  1  0
 19 55  1  0
 20 56  1  0
 20 57  1  0
 20 58  1  0
 21 59  1  0
 21 60  1  0
 21 61  1  0
 22 62  1  0
 22 63  1  0
 22 64  1  0
 23 65  1  0
 23 66  1  0
 24 67  1  0
 24 68  1  0
 25 69  1  0
 25 70  1  0
 26 71  1  0
 26 72  1  0
 27 73  1  0
 27 74  1  0
 28 75  1  0
 28 76  1  0
 29 77  1  0
 29 78  1  0
 30 79  1  1
 31 80  1  6
 33 81  1  0
 35 82  1  0
 35 83  1  0
 39 84  1  0
M  CHG  1  35   1
M  END
>  <OMEGA_C>  (31) 
Og/YQA2bP76/mIXBn1MGQYZsrD+18nvB5oQAQS5WVb/Ol2vBBp7bQDRAhD/HA6vBn3WgQHGq0771
kqXBj/HiQCQBsr8oI6zBHmPtQE+Zhz9KzIXB9JfiQPFgkr+Cb3vBlkILQQu6zT5RAmzBVJuxQPEz
YD/NCqfB3Er0QEKQzr1Vh63BKfW4QNajxb8dMqjBGYnAQMEewECeg5XBZSTjQOhhA0CJGo7BeQTO
QNPmHcCpNHvBjvSSQKji+0DIyo7BE8+MQE7d3UBHM4XBc/KkQHumnkC2XY/BGlcbQXTAPD/IxVrB
tJD/QKOBDkES55XBjb5tQOPaV8D324zBoSMVQSUbjMDw6IfB+/mWQHVFBUCjKqTBta7YQMKzFUEq
jJzBegKUQLkjk8CSf47BWR8HQaz7hMCN4ZHBJ5m9QHNeAkFDCKDBnWq4QFhdlMAWOYbBelvsQHx+
RMBw1I/BBW2OQED6fkCSG5fByVqtQPQeO0DdgpvBgw2xQAPq6UB8w5bB+rS6QLilAkAks5LBQWfR
QMeTV8DPQ4bBytCBQLxNs0COSYnBUGvhQKettECPC5rBpvL9QFCgOECnxJDBwIq7QKb6MsAit2rB
wmZ2QK48l0CioJ/Blj4OQT7CST0QWbHB+wGoQJO8McCs8abBLra/QKS20L4aeIvB7okOQbwEE0A2
NnzBSfUDQaPwxb8mFF/BVcboQMtsAUDfHqzBOn2AQNBSCL8Vb6LBTtP1QB2+EMCDF67BuopnQD2N
AEHrqJLBrJ+fQFRRDUG76IvBtJiqQD0i3EAZiIDBa5xlQJPa6UALFYDBuLC5QFxqjEAI6YnBlBwT
Qa/5mz/xQE3B+icjQbIQPr5UPVXBXHcnQasptj/fRmHB3C0JQS+aHEFChJPBm3j0QEUDBkElto7B
itQJQRXBA0HDuprBzJM6QFFAWMA955LBxT9RQB1MWsBw0YTBn+WJQMj9HMDpro3BUhchQc0MpcBi
mInBZlYdQasuXMAr1IXBpgALQUdClsC9LYHBmkOSQIvKLEBuWqvBQ29vQO6k3z/6IqHBGMzEQG5+
IEE7sJfBkPzjQD48HkHYtKPBgLCAQE1ksMButI3BPfahQCK9kcDnkZbB11wRQTDxdcAUlpjBMA7+
QIojo8Cm75PB64GgQEAuCEGVC6TBZFrQQLsm8UCTpKXBoqCqQHMymcASb3zBg/fNQIAfr8ALI4jB
wLL8QE74BsDtj47BcnrXQHPaP8AN5JbBOoZqQAeGXUD1l5LB72TJQGUaW0BiBZ/BlEGlQLYUsj9n
1o/BM510QL+OoEDZFIPBBORQQHAetkCmHI7BtZ1aQE0dhEAoaKTBU5TYQBNSRb7TkIXB85EGQYAh
rT80KHzBlBkBQTN/VL/2tWvBZIzZQHiHhD/a0qrB/FCfQNwD476cUaXBTQviQPYQsb/EFKzBusHt
QETghj+I2oXBkJjjQKrQkr8sdXvBPkkLQeFt2T5A3GvBe9GvQLnUWj8juabBEr/yQCKkrL0Eaq3B
8ji4QKqlx7/UFqjBT9/CQHGzvkDVbZTBxyTjQG/4AUA4PY7BSgTPQEkbHsCmLHvByDCcQI/K/EA/
RIzBKa6LQKsm3EBLIoTB/G+iQK3jnkDJFo/BgyYcQccZPj/qR1vBRie3QA1lDkH846jBSX1uQJ5N
W8DB1IzB4poVQVAwi8AACojBFceUQHblAkAdrKPBLZLJQMThFkFmSZ7BpyOVQHVNlMBAbo7B7mIH
QROshMAv9pHBYL/eQFP0BEGVhJfB0nu5QGuwlMAfIobB6ZjsQOB8RMDg5o/BlCONQNLzf0BSHZfB
2s6rQIdIOkAYRpvBgXO/QKsw60BEzpLBR8K5QEOKA0DUVJLBywbSQECqV8DrRYbBR8h8QAXgtUAb
/4nBKEnhQCFDsEDFdJnBJ7b+QHdAM0B2hpHBfnG8QNTYMsC9r2rBCSJ4QPREmEAkzJ/BX3ANQf4F
tj23NrHB5tenQI9KM8AC6abBQ+y/QHHL1L7uWYvBh/oOQdbmEkAgw3zBGQcFQUy4xr8ze1/BcBXm
QC8GAkC096vBzgx/QKuhFL/xHKLBkkn1QAKWD8A7Hq7BTLuBQNgGA0GtlpHBDtynQPyVDEGC9IfB
KEOlQCP000AI5XzBg4FgQDiP6UDdgX/BGqKzQHoCjEBRCInBu5YUQS62nD/aYU3BiAYkQSVPQL7l
KlbBNB0oQeQStj8bO2LBNJCoQKmqG0GzX63BvATRQI5CB0EUra3BwbeeQJAvAkFMM6fB/Gw7QCvR
XMDQ4pLBpO5RQJgfXsCay4TBEbSJQLu7H8Cyqo3BSakhQWTto8BRuonBM60dQSfgWcC4DIbBD6ML
Qb9ZlcD7PoHBtpKOQA6/KUBi2KrBtHZsQM6F2D94VqDBnMPhQKImI0E3FaDBoXavQKQTHkFvm5nB
KWSCQGHrscDwn43B6CCjQHO5ksAIf5bBTnURQSVLdcClupjBVNb+QD4Po8Do7JPBUeP0QGP390Dx
rpzBcMPwQPl4DEFr9ZDB66urQJFOmcBdPnzBQ1zPQLJIr8DE9IfBt6f8QJuRBsD8tY7BR33XQLKf
QMBz7ZbB/35lQNqWX0AH7ZLBG7THQO4bWUCCAp/BewekQGzmuT9R+47B9tFfQMj2oUDd4oTBnnZT
QEidvkCrs4/BZrxdQLaHhUA5yqTBxkTaQLzbFL7064TBKE8HQZmNtz/DvHvBvoYBQQUiM7+BvWnB
HM/ZQLPLhz83iavBOZ+kQBUIAL+PfqTB8knnQHVLq7/xHazBcV/vQBWsjD+1lYXBRy/kQM6Chb9L
KHnBn1cMQdHZBz8IKGvBeMyxQDwqUj90p6bBXqH0QDQFl7zeL67BuUO/QIP2yb97UKfBR2XCQOQ5
vkDJsZPBomTkQG7KAkCoMo7BFGvMQOpGE8B7LXfBmqOeQA9L+UCzhInBxe+JQA0Z1kAj1ILBfLah
QC5PnUDn/o7BWmEcQZi4aT9UI1rBIuTVQO7GI0HtQqLBpIk3QKX/h8A52ozBxfsXQfunkMAB+o/B
YY2VQFFN/T+vfKPBdyXHQEvtDEELrp/Bj0eEQDhuWsCTKozB08wGQRVHiMBtmIfB5EbdQDC1BEEw
Z5XBMLGlQB+/g8ApOYXBHxPsQNoXU8BbIYzBpK+NQBhmfkBRaZfBdJisQABLOEBhTpvB6mvCQP3g
6ECRGpDBudS6QBR9A0CjM5LBGrzJQLxUTMAXMYTB1AF6QIKls0CwD4rBhEDeQP8NskC65pnBnMf/
QOJrM0BOuZHBEim4QFIGIMDUrmbBRld9QKoXmEB4OqDBR5kNQQoAWT5LuLLBXGuyQJgfNsDVfKXB
OnjCQGmH0r6S0IrBDG4PQWKuGEAypHzBAhQFQXa+sL/wzlzB7M7jQEmnBECxO63BCiqGQBsmL7+t
r6DB8Mb7QGS4CsAYN67BE0uGQG6WA0HI147BdO+qQD0dCUEEH4TBqQmhQI3cyUAH33nB4XNbQNva
4kCZSH3B9SiyQEbUiUCX7YjBsB8UQWw/tz/W/kzBxyskQTPfxDs+71PB64coQWQvyj+4F2HBwd7F
QC1eKUHelKnB6aDNQNBvLkEakpvBQMD4QOTnI0HueqPBCB0IQC/WbsA23ZHBsqxGQO5Jp8BfaZDB
XDAdQP6ujMDKxoTBwQMkQYrApsAcs4zBXp0QQXT5nsAlH5fBabsfQVeTZMBHKpLBPLmNQJuAJEDi
pKrBmclvQMOvyz8Z55/BYEWkQN3cDEHlfJ7BtmTPQPFUAkG6ZabBQFKRQFYTUcCFQZTBKSh5QHbd
G8DwnojBQR/+QDWopsBvaIXBrC0OQdrwc8CRc4DBPlL8QHIi+0DDg5fBi2DiQPkyEkHK5Y/BrD2Y
QOQCi8DWl3rBSi2wQD6aocDzE4nBBXv6QH7XE8CQh43BfEzfQKlKbMB8s5PBtoRkQL9UXkBNn5PB
f1jIQL2OVkDTLZ/BaTWlQF1kuz/jq47Bm6BXQHdWnkBx64XBJ+VVQMggwEDu4Y/B3ZpkQO+8hUA8
cKXBoLraQLxudL4QhIXBMDQIQZ4ipT8WqnzBUK8BQeNoWL8mF2vB4EzdQIExlj+ov6vBZVGnQOUY
075Ae6XBNfjqQIu5nL9ttazBNaLwQK4afz/VCIbB+fjjQEvMkr9DaHrB4AUNQQC4uj5jWWzBbae0
QBL0aT97QqfBfYL4QOyn0z2Aa67B/EnCQKRtvb8XSKjBbBu/QOa2wEB5uZXBME7lQERM/z/NQo7B
B8XJQNTeFcBPmnfBY6eaQJRk/EDqz4vBFkaRQM7L2UARdYPBGC2lQBCjnkBYVY/BSREdQRf1Nj8h
K1vB0vMIQRkEAkEg45TBuYVeQAI0ncBbp47BcJEQQVozf8CRRZjB/e+XQGtXA0Br76PBPrTtQPbB
EUHhqZfBz2+OQJBUdsAjvYrBNdz2QETaaMBk15LBN4bGQFErBkGpW5zBF6WvQKKbj8CtHYPBo8H7
QNp6ccDxqYbBUI6OQPuVfEBMvpbB7NKtQLv0OEDsMJvBvke1QIhy7EA7wZTBQxG8QKcPAEC6d5LB
LZnSQJg0YsAXN4HBXc+CQI4/s0BVC4nBgfzaQFD0tEC/+JvBnbn/QBg2NUBVEZHBKRuqQJ/nD8DR
HWzBhvZzQOwhlUCMOJ/B3MoPQdJusz5WoLLBFRe1QEEJMMBBrKbBv/nCQNja+L64eIvBYLMQQYmu
DkAbZ33BTwsFQbuSxb+RV17BxHfnQAs7DECSIK3BcGCIQDLMG7+l96HBOMf/QJb5AsB9yq7B/DR4
QNEHBEFQEY/BDZ2rQNF3C0FX4ofBfX+uQKCv0kBXxX3BVD9wQCD35ECn8HvBLBO7QJhQjUCN+YnB
8+QUQRfznT8E+03B3YckQU4eU75NFlXBWHgpQft9rz/P7GHBaZ8WQZ7jCkGckJHBYSwDQUTH7EA+
8o7Bxf8NQVcF80CZKpzBs3MvQPKBjsCgEZTBpvaAQKZMtsAr9JLBBik9QN1lq8DSw4fB/cwOQV4B
ecAy/qDB+SAdQa1OU8BOdpXBGwUVQUe0oMD8RZbBm1SRQHErLEBM6arB0l5zQJ/P0j/m0KDBYvnj
QL8+GkEoWZDBKaD5QMldHUGDkZ3BlROfQG31WcCQopHB5GJ5QNonRMA3cobB4vXtQG+lJsBz15TB
J77dQKhfisAgp5XB6YOtQN8FEkEnJ57B9APQQNbx+0BtxqPBBiqgQCGdl8DI8HbB35K8QOflrMDc
xYbBAH4DQds3mcD2wYTBYawJQQ1pQsAG1IPBDHJsQN/lWkCR+pHBz5zJQCrmWUDTr57BQb6mQCxv
rj8eYo/BgBNwQKlOnkCsoIPBYQhWQPdBu0A7AY7BBeZXQN1zgUCT1KPB

>  <OMEGA_E>  (31) 
FCyYPvDvXT6UIOI+jD0ZPw==

>  <OMEGA_NBR>  (31) 
     35479

$$$$
50147921
     RDKit          3D

 81 83  0  0  1  0  0  0  0  0999 V2000
    6.7801   -0.1942  -16.7004 C   0  0  0  0  0  0  0  0  0  0  0  0
    8.4346    1.3438  -15.7733 C   0  0  0  0  0  0  0  0  0  0  0  0
    8.0849   -0.8358  -14.7410 C   0  0  0  0  0  0  0  0  0  0  0  0
    6.8205    1.0350  -21.3393 C   0  0  0  0  0  0  0  0  0  0  0  0
    4.9931   -0.4431  -20.6704 C   0  0  0  0  0  0  0  0  0  0  0  0
    7.0833   -1.3834  -21.5027 C   0  0  0  0  0  0  0  0  0  0  0  0
    7.4476    1.0494  -16.7398 C   0  0  0  0  0  0  0  0  0  0  0  0
    7.1247   -1.1506  -15.7226 C   0  0  0  0  0  0  0  0  0  0  0  0
    8.7276    0.4161  -14.7542 C   0  0  0  0  0  0  0  0  0  0  0  0
    5.5126    0.8547  -20.8366 C   0  0  0  0  0  0  0  0  0  0  0  0
    7.6085   -0.0847  -21.6610 C   0  0  0  0  0  0  0  0  0  0  0  0
    5.7725   -1.5594  -21.0140 C   0  0  0  0  0  0  0  0  0  0  0  0
    6.0890    5.9650  -18.5165 C   0  0  0  0  0  0  0  0  0  0  0  0
    7.1150    2.0285  -17.7857 C   0  0  0  0  0  0  0  0  0  0  0  0
    6.4743   -2.4715  -15.7010 C   0  0  0  0  0  0  0  0  0  0  0  0
    4.9074    7.8804  -17.4338 C   0  0  0  0  0  0  0  0  0  0  0  0
    4.3231    6.8441  -16.4743 C   0  0  0  0  0  0  0  0  0  0  0  0
    5.0710    4.9599  -17.8735 C   0  0  2  0  0  0  0  0  0  0  0  0
    9.7846    0.7318  -13.7205 C   0  0  0  0  0  0  0  0  0  0  0  0
    3.7132   -3.3933  -17.5987 C   0  0  0  0  0  0  0  0  0  0  0  0
    9.3314   -4.3619  -16.9951 C   0  0  0  0  0  0  0  0  0  0  0  0
    6.3147    8.8808  -20.1263 C   0  0  0  0  0  0  0  0  0  0  0  0
    4.6667    2.0449  -20.4580 C   0  0  0  0  0  0  0  0  0  0  0  0
    4.6278   -4.6166  -17.7971 C   0  0  0  0  0  0  0  0  0  0  0  0
    8.4497   -4.1609  -18.2408 C   0  0  0  0  0  0  0  0  0  0  0  0
    6.9537    8.3049  -18.8486 C   0  0  0  0  0  0  0  0  0  0  0  0
    5.7708   -4.6398  -16.7677 C   0  0  0  0  0  0  0  0  0  0  0  0
    7.3814   -3.0824  -17.9943 C   0  0  0  0  0  0  0  0  0  0  0  0
    4.4204    3.9957  -18.8892 C   0  0  2  0  0  0  0  0  0  0  0  0
    5.3831    2.9116  -19.4069 C   0  0  1  0  0  0  0  0  0  0  0  0
    6.0519    7.3324  -18.1866 N   0  0  0  0  0  0  0  0  0  0  0  0
    5.8186    2.0595  -18.2877 N   0  0  0  0  0  0  0  0  0  0  0  0
    6.5505   -3.3705  -16.7889 N   0  0  0  0  0  0  0  0  0  0  0  0
    3.9284    5.6715  -17.2567 N   0  0  0  0  0  0  0  0  0  0  0  0
    6.9950    5.5391  -19.2242 O   0  0  0  0  0  0  0  0  0  0  0  0
    7.9782    2.7921  -18.2053 O   0  0  0  0  0  0  0  0  0  0  0  0
    5.8965   -2.7909  -14.6677 O   0  0  0  0  0  0  0  0  0  0  0  0
    3.8929    4.7572  -19.9758 O   0  0  0  0  0  0  0  0  0  0  0  0
    8.8666    0.0882  -22.1252 F   0  0  0  0  0  0  0  0  0  0  0  0
    5.2582   -2.8009  -20.8734 F   0  0  0  0  0  0  0  0  0  0  0  0
    6.0049   -0.4134  -17.4197 H   0  0  0  0  0  0  0  0  0  0  0  0
    8.9664    2.2829  -15.8156 H   0  0  0  0  0  0  0  0  0  0  0  0
    8.3287   -1.5578  -13.9757 H   0  0  0  0  0  0  0  0  0  0  0  0
    7.2147    2.0311  -21.4763 H   0  0  0  0  0  0  0  0  0  0  0  0
    3.9959   -0.5800  -20.2790 H   0  0  0  0  0  0  0  0  0  0  0  0
    7.6851   -2.2436  -21.7560 H   0  0  0  0  0  0  0  0  0  0  0  0
    4.1270    8.1902  -18.1445 H   0  0  0  0  0  0  0  0  0  0  0  0
    5.2443    8.7535  -16.8557 H   0  0  0  0  0  0  0  0  0  0  0  0
    5.0798    6.5576  -15.7291 H   0  0  0  0  0  0  0  0  0  0  0  0
    3.4446    7.2636  -15.9622 H   0  0  0  0  0  0  0  0  0  0  0  0
    5.5971    4.3695  -17.1089 H   0  0  0  0  0  0  0  0  0  0  0  0
    9.3155    1.2172  -12.8520 H   0  0  0  0  0  0  0  0  0  0  0  0
   10.2736   -0.2000  -13.3998 H   0  0  0  0  0  0  0  0  0  0  0  0
   10.5344    1.4077  -14.1575 H   0  0  0  0  0  0  0  0  0  0  0  0
    2.9099   -3.4098  -18.3500 H   0  0  0  0  0  0  0  0  0  0  0  0
    3.2733   -3.4241  -16.5910 H   0  0  0  0  0  0  0  0  0  0  0  0
    4.3033   -2.4721  -17.7133 H   0  0  0  0  0  0  0  0  0  0  0  0
   10.0847   -5.1370  -17.1996 H   0  0  0  0  0  0  0  0  0  0  0  0
    9.8362   -3.4167  -16.7468 H   0  0  0  0  0  0  0  0  0  0  0  0
    8.7034   -4.6756  -16.1482 H   0  0  0  0  0  0  0  0  0  0  0  0
    7.0073    9.5971  -20.5924 H   0  0  0  0  0  0  0  0  0  0  0  0
    6.1038    8.0632  -20.8312 H   0  0  0  0  0  0  0  0  0  0  0  0
    5.3764    9.3934  -19.8678 H   0  0  0  0  0  0  0  0  0  0  0  0
    4.4749    2.6512  -21.3555 H   0  0  0  0  0  0  0  0  0  0  0  0
    3.7112    1.6911  -20.0434 H   0  0  0  0  0  0  0  0  0  0  0  0
    4.0285   -5.5323  -17.6863 H   0  0  0  0  0  0  0  0  0  0  0  0
    5.0585   -4.5803  -18.8086 H   0  0  0  0  0  0  0  0  0  0  0  0
    9.0845   -3.8517  -19.0842 H   0  0  0  0  0  0  0  0  0  0  0  0
    7.9517   -5.1106  -18.4856 H   0  0  0  0  0  0  0  0  0  0  0  0
    7.8933    7.7986  -19.1148 H   0  0  0  0  0  0  0  0  0  0  0  0
    7.1659    9.1288  -18.1514 H   0  0  0  0  0  0  0  0  0  0  0  0
    5.3447   -4.7808  -15.7635 H   0  0  0  0  0  0  0  0  0  0  0  0
    6.4448   -5.4773  -17.0009 H   0  0  0  0  0  0  0  0  0  0  0  0
    7.8831   -2.1135  -17.8544 H   0  0  0  0  0  0  0  0  0  0  0  0
    6.7224   -3.0304  -18.8736 H   0  0  0  0  0  0  0  0  0  0  0  0
    3.5922    3.4853  -18.3759 H   0  0  0  0  0  0  0  0  0  0  0  0
    6.2541    3.3959  -19.8725 H   0  0  0  0  0  0  0  0  0  0  0  0
    5.1377    1.4644  -17.8608 H   0  0  0  0  0  0  0  0  0  0  0  0
    3.4483    5.0353  -16.6528 H   0  0  0  0  0  0  0  0  0  0  0  0
    3.3113    5.9700  -17.9847 H   0  0  0  0  0  0  0  0  0  0  0  0
    3.4900    4.1724  -20.6068 H   0  0  0  0  0  0  0  0  0  0  0  0
  1  7  2  0
  1  8  1  0
  2  7  1  0
  2  9  2  0
  3  8  2  0
  3  9  1  0
  4 10  2  0
  4 11  1  0
  5 10  1  0
  5 12  2  0
  6 11  2  0
  6 12  1  0
  7 14  1  0
  8 15  1  0
  9 19  1  0
 10 23  1  0
 11 39  1  0
 12 40  1  0
 13 18  1  0
 13 31  1  0
 13 35  2  0
 14 32  1  0
 14 36  2  0
 15 33  1  0
 15 37  2  0
 16 17  1  0
 16 31  1  0
 17 34  1  0
 18 29  1  0
 18 34  1  0
 20 24  1  0
 21 25  1  0
 22 26  1  0
 23 30  1  0
 24 27  1  0
 25 28  1  0
 26 31  1  0
 27 33  1  0
 28 33  1  0
 29 30  1  0
 29 38  1  0
 30 32  1  0
  1 41  1  0
  2 42  1  0
  3 43  1  0
  4 44  1  0
  5 45  1  0
  6 46  1  0
 16 47  1  0
 16 48  1  0
 17 49  1  0
 17 50  1  0
 18 51  1  1
 19 52  1  0
 19 53  1  0
 19 54  1  0
 20 55  1  0
 20 56  1  0
 20 57  1  0
 21 58  1  0
 21 59  1  0
 21 60  1  0
 22 61  1  0
 22 62  1  0
 22 63  1  0
 23 64  1  0
 23 65  1  0
 24 66  1  0
 24 67  1  0
 25 68  1  0
 25 69  1  0
 26 70  1  0
 26 71  1  0
 27 72  1  0
 27 73  1  0
 28 74  1  0
 28 75  1  0
 29 76  1  1
 30 77  1  6
 32 78  1  0
 34 79  1  0
 34 80  1  0
 38 81  1  0
M  CHG  1  34   1
M  END
>  <OMEGA_C>  (32) 
lfbYQJriRr5emoXBSPQGQfoBrD91X3zBxlsBQS/5Vb8k22vBaUHaQHl5hD/OtqrBYcefQJPg4r4G
XaXBFKriQOERsb+eBazBHVPuQJhThj8I64XB0v3jQINFk7+2j3vBP6QLQQEJ1T5kEWzBbmewQL7M
Wj9fsabBk3jzQDh2rb3LSa3Bdri4QM6bx7+YHKjBr9jCQJnhvkDKIZTBz63jQC/SAUAFSY7BwS3P
QG0sHsA7N3vBKgmdQE8s/EBzeIvBLleKQMIC20BZy4PBrUWiQNa3nkDx/I7Bzo0cQbNVOz8eh1vB
PaVtQHMsWcA8yozBnU0VQQmVi8De9YfBMBLKQNsXDkGfAqHBs1WVQFTfAkABqqPBihaUQMu6k8Bd
YI7B7DEHQcUlhcAa7ZHBbYTeQOjgBEH7yZbBoKq4QGJ5lMBJJIbBezTsQEVGRcBs9I/BvXONQPC5
f0AUHZfB9UGsQD5XOkBqQZvBjanBQEGj6kA5fpHBvzG6QNnOA0AtTZLBC57RQCa2V8C/T4bBTWt7
QMh8tUCfDYrBSNffQJtAsUAZy5nBpU3/QDKxMkBhpJHB0K+8QIqeMsDKrmrB5SR5QEs7mEBzzp/B
jd0NQfGutD19ALHBZkOoQLRBM8DM/KbB2CfAQFWn0755W4vBSHYPQdYaEkCpDH3BKUIFQc9lx79F
nF/BpN7mQBb9AUBdz6vBLLx/QEB9FL9yO6LBVuz1QLOXD8AyDK7B/Q+EQOEKA0HWJ5HBRdGnQE0O
DEF92IbBBI6iQPvX0UBJqnvB03RcQGxv6EA4ZX/BUxuzQOzSi0AK34jBGgwVQbDMmz/PoU3BemAk
QTrCTL7EZVbB0YwoQd8vtD8ZhWLBhTs6QNE6WsDRzJLBAH5RQIUkW8BguoTBk7SJQNQ2HsDKtI3B
AlshQXhipMDImInBR2EdQYeqWsCD+YXBKUELQZ2elcB+L4HBxzvgQL2NGUFDvaTB9VHDQLoCAUFS
pqbBUwusQFxLFkFY8Z7BEDKPQNytKUAb2KrB5YRtQGZ22D/ZWKDBxOmAQPEIscCAfY3BV9+hQBiS
ksDqd5bBIloRQbOBdsB8rJjBCXT+QDOKo8B34pPBhJX8QECO+UAW65jB4k7lQMIPEkEcNpHBuger
QFH8mMAiN3zBFDzOQNpFr8DcAYjBcEL8QF9EB8DB1Y7B4h3XQKvyQcAK/ZbBSeZlQI4OX0DCAZPB
VSHIQPFWWUDX+p7Bs2ekQJVxuz/z4o7B2LBcQM8goUDYOIXB5OxTQIYKv0Cu4I/BQlxfQFaEhUC+
2qTBTHDdQB0TlL5lmIXBHP0HQTmIqT/UXHzBGf4DQQjgXb9PtWvBIavZQK0dhz+n4KrBHXWgQHXa
5L6HGKXBh3ziQM+Mrb8BfqzBqdnwQPkUfT+J7IXBX2TpQLY6nL+tP3vB9W4NQard0j4TFWzBH1Ww
QAxYWz8Ql6bBbuDyQPKkV70Zuq3BvnC5QAKmxr8zFajBO4TCQDOGv0DPgpTBQ43kQPqK/T/wIo7B
QxzSQJaLH8BBU3nBNVqdQAC//EBcoYvBePGLQHKn20DZwYPBPSOjQBYpn0Cy947BPe4dQegnSj9u
c1vBfI96QGEqZMC47ovBt+gFQXRwN8B6oJbBv23HQBPzD0GI5qDBKTqVQLEuAkDxWqPBZrGkQDzq
jcAVRI7B8oQKQdayhMAtTpDBaNDdQC5ZBUGeSJfBjhnAQAuml8BIM4TBELAGQVRne8DGRoTBhdON
QESgfkBXw5bB9HesQMiYOEC/5prBZmPBQI1c60B65pHBksy6QCyCAEB2C5LB/pnfQIsSa8CqwIHB
7sp9QCjYtUA/24nBDbbeQJbzsUBobZrBxQL/QI5BM0AgOJHB3fuvQHT5HcB5rG/B49N3QInwlkB9
eZ/BQ1oNQRvuCT6RrbHBN+epQLE9M8AHuabBpnLFQGC8Db+JcYvBxsQPQfxtEkD6An3Bn30IQe7N
yb+7fF/BC+DlQPKiA0C19qvByB2BQO7MGL9mqKHBmmj1QNE6DcDa7a7Bu5iDQDcgA0FJI5HBeW6o
QD52DEFeJIfBwfikQFHg0kB88XvBFnVgQA/v6EC+7n7Bsgu1QGQOjUBh5IjBd+sVQbzMoD8LrE3B
MnomQcls573jJVbBO2cpQUoSwD8pb2LBNfdWQBUNWcCJZZPB3ABRQDGPgsBFJYbBYJ+HQDZyJsCn
lIjB0sEIQQsHQ8BwMJ/B8kXqQIF1JMDIaJXBbYUQQY/2A8C80ZPB2V3dQBBwG0HTsKTBuVe+QCaY
A0HWvabBdpSqQGhiGEENI57BQ7OOQG7dKUBCcKrBd69tQEe41T+tAKDBusWZQKNzrMDyr5HBrOS4
QBs7esBUH5TBX8//QBxWnsDxKpPBI0obQaMWjsDlk5HBN7L6QK8O+kCwHJrB9O7mQJnREUHngZHB
RI+qQEdCm8AlmXrBCYLRQOHGtcCnh4XBg+oLQUF0msBz2X/BzTEQQZ8NRMCnooHBsadnQBd1XkC6
ZpLBA1zIQKVuV0Bno57BLEGlQNI+sz+DrI7BKUxgQIGNoUCp44TB6wdVQAoUv0Bfk4/BIk9dQIDD
g0AfWqTB

>  <OMEGA_E>  (32) 
oP42PmiPvz4=

>  <OMEGA_NBR>  (32) 
     38337

$$$$
50147899
     RDKit          3D

 78 81  0  0  1  0  0  0  0  0999 V2000
    5.1389   10.5230  -22.0675 C   0  0  0  0  0  0  0  0  0  0  0  0
    5.6621   11.2140  -20.9567 C   0  0  0  0  0  0  0  0  0  0  0  0
    5.2243    9.1174  -22.1290 C   0  0  0  0  0  0  0  0  0  0  0  0
    6.2664   10.5008  -19.9048 C   0  0  0  0  0  0  0  0  0  0  0  0
    5.8350    8.4016  -21.0800 C   0  0  0  0  0  0  0  0  0  0  0  0
    6.9067    1.1605  -21.3696 C   0  0  0  0  0  0  0  0  0  0  0  0
    5.2990   -0.3953  -20.3857 C   0  0  0  0  0  0  0  0  0  0  0  0
    7.3829   -1.2307  -21.3379 C   0  0  0  0  0  0  0  0  0  0  0  0
    6.3560    9.0940  -19.9618 C   0  0  0  0  0  0  0  0  0  0  0  0
    5.6702    0.9180  -20.7353 C   0  0  0  0  0  0  0  0  0  0  0  0
    7.7630    0.0862  -21.6693 C   0  0  0  0  0  0  0  0  0  0  0  0
    6.1517   -1.4696  -20.6933 C   0  0  0  0  0  0  0  0  0  0  0  0
    6.0764    6.0383  -18.5288 C   0  0  0  0  0  0  0  0  0  0  0  0
    8.4152   -0.1778  -14.9390 C   0  0  0  0  0  0  0  0  0  0  0  0
    6.9888    1.8696  -17.6044 C   0  0  0  0  0  0  0  0  0  0  0  0
    4.9176    7.9762  -17.4634 C   0  0  0  0  0  0  0  0  0  0  0  0
    7.2707   -0.5268  -16.9162 C   0  0  0  0  0  0  0  0  0  0  0  0
    4.3200    6.9597  -16.4913 C   0  0  0  0  0  0  0  0  0  0  0  0
    5.0686    5.0492  -17.8589 C   0  0  2  0  0  0  0  0  0  0  0  0
    7.0742    0.8861  -16.4298 C   0  0  1  0  0  0  0  0  0  0  0  0
    9.1951   -4.5007  -17.0725 C   0  0  0  0  0  0  0  0  0  0  0  0
    7.5514    2.5469  -13.7197 C   0  0  0  0  0  0  0  0  0  0  0  0
    4.7683    2.0705  -20.3803 C   0  0  0  0  0  0  0  0  0  0  0  0
    7.0125    8.3464  -18.8192 C   0  0  0  0  0  0  0  0  0  0  0  0
    8.1338   -3.4150  -16.8646 C   0  0  0  0  0  0  0  0  0  0  0  0
    8.5425    2.3087  -14.8695 C   0  0  0  0  0  0  0  0  0  0  0  0
    8.7383   -2.3684  -15.9324 C   0  0  0  0  0  0  0  0  0  0  0  0
    4.4416    4.0495  -18.8537 C   0  0  2  0  0  0  0  0  0  0  0  0
    5.4209    2.9381  -19.2896 C   0  0  1  0  0  0  0  0  0  0  0  0
    6.0644    7.4017  -18.1936 N   0  0  0  0  0  0  0  0  0  0  0  0
    7.9106   -1.1798  -15.7691 N   0  0  0  0  0  0  0  0  0  0  0  0
    8.2279    1.0539  -15.5586 N   0  0  0  0  0  0  0  0  0  0  0  0
    5.7235    2.0988  -18.1230 N   0  0  0  0  0  0  0  0  0  0  0  0
    3.9239    5.7740  -17.2583 N   0  0  0  0  0  0  0  0  0  0  0  0
    6.9548    5.6026  -19.2651 O   0  0  0  0  0  0  0  0  0  0  0  0
    9.0638   -0.3688  -13.9151 O   0  0  0  0  0  0  0  0  0  0  0  0
    7.9895    2.4136  -18.0632 O   0  0  0  0  0  0  0  0  0  0  0  0
    3.9414    4.7691  -19.9812 O   0  0  0  0  0  0  0  0  0  0  0  0
    8.9499    0.3201  -22.2729 F   0  0  0  0  0  0  0  0  0  0  0  0
    5.7900   -2.7291  -20.3621 F   0  0  0  0  0  0  0  0  0  0  0  0
    4.6718   11.0709  -22.8726 H   0  0  0  0  0  0  0  0  0  0  0  0
    5.5995   12.2913  -20.9126 H   0  0  0  0  0  0  0  0  0  0  0  0
    4.8216    8.5888  -22.9804 H   0  0  0  0  0  0  0  0  0  0  0  0
    6.6625   11.0316  -19.0518 H   0  0  0  0  0  0  0  0  0  0  0  0
    5.9053    7.3250  -21.1297 H   0  0  0  0  0  0  0  0  0  0  0  0
    7.1951    2.1696  -21.6246 H   0  0  0  0  0  0  0  0  0  0  0  0
    4.3609   -0.5764  -19.8822 H   0  0  0  0  0  0  0  0  0  0  0  0
    8.0353   -2.0571  -21.5782 H   0  0  0  0  0  0  0  0  0  0  0  0
    4.1459    8.2783  -18.1867 H   0  0  0  0  0  0  0  0  0  0  0  0
    5.2561    8.8574  -16.8987 H   0  0  0  0  0  0  0  0  0  0  0  0
    6.3075   -1.0010  -17.1553 H   0  0  0  0  0  0  0  0  0  0  0  0
    7.9226   -0.5538  -17.8018 H   0  0  0  0  0  0  0  0  0  0  0  0
    5.0692    6.6816  -15.7354 H   0  0  0  0  0  0  0  0  0  0  0  0
    3.4400    7.3927  -15.9933 H   0  0  0  0  0  0  0  0  0  0  0  0
    5.5991    4.4854  -17.0774 H   0  0  0  0  0  0  0  0  0  0  0  0
    6.1452    0.9451  -15.8437 H   0  0  0  0  0  0  0  0  0  0  0  0
    8.7985   -5.2785  -17.7417 H   0  0  0  0  0  0  0  0  0  0  0  0
   10.0938   -4.0535  -17.5225 H   0  0  0  0  0  0  0  0  0  0  0  0
    9.4552   -4.9495  -16.1025 H   0  0  0  0  0  0  0  0  0  0  0  0
    7.7985    3.4907  -13.2115 H   0  0  0  0  0  0  0  0  0  0  0  0
    6.5295    2.6041  -14.1226 H   0  0  0  0  0  0  0  0  0  0  0  0
    7.6165    1.7161  -13.0017 H   0  0  0  0  0  0  0  0  0  0  0  0
    4.5927    2.6841  -21.2762 H   0  0  0  0  0  0  0  0  0  0  0  0
    3.8091    1.6806  -20.0091 H   0  0  0  0  0  0  0  0  0  0  0  0
    7.8772    7.7864  -19.2049 H   0  0  0  0  0  0  0  0  0  0  0  0
    7.3518    9.0698  -18.0632 H   0  0  0  0  0  0  0  0  0  0  0  0
    7.8711   -2.9548  -17.8286 H   0  0  0  0  0  0  0  0  0  0  0  0
    7.2326   -3.8508  -16.4087 H   0  0  0  0  0  0  0  0  0  0  0  0
    8.4764    3.1421  -15.5845 H   0  0  0  0  0  0  0  0  0  0  0  0
    9.5634    2.2540  -14.4636 H   0  0  0  0  0  0  0  0  0  0  0  0
    8.8850   -2.8276  -14.9437 H   0  0  0  0  0  0  0  0  0  0  0  0
    9.7117   -2.0600  -16.3416 H   0  0  0  0  0  0  0  0  0  0  0  0
    3.5989    3.5619  -18.3418 H   0  0  0  0  0  0  0  0  0  0  0  0
    6.3406    3.3945  -19.6845 H   0  0  0  0  0  0  0  0  0  0  0  0
    4.9530    1.6559  -17.6645 H   0  0  0  0  0  0  0  0  0  0  0  0
    3.4390    5.1488  -16.6468 H   0  0  0  0  0  0  0  0  0  0  0  0
    3.3112    6.0630  -17.9939 H   0  0  0  0  0  0  0  0  0  0  0  0
    3.5534    4.1606  -20.5990 H   0  0  0  0  0  0  0  0  0  0  0  0
  1  2  2  0
  1  3  1  0
  2  4  1  0
  3  5  2  0
  4  9  2  0
  5  9  1  0
  6 10  2  0
  6 11  1  0
  7 10  1  0
  7 12  2  0
  8 11  2  0
  8 12  1  0
  9 24  1  0
 10 23  1  0
 11 39  1  0
 12 40  1  0
 13 19  1  0
 13 30  1  0
 13 35  2  0
 14 31  1  0
 14 32  1  0
 14 36  2  0
 15 20  1  0
 15 33  1  0
 15 37  2  0
 16 18  1  0
 16 30  1  0
 17 20  1  0
 17 31  1  0
 18 34  1  0
 19 28  1  0
 19 34  1  0
 20 32  1  0
 21 25  1  0
 22 26  1  0
 23 29  1  0
 24 30  1  0
 25 27  1  0
 26 32  1  0
 27 31  1  0
 28 29  1  0
 28 38  1  0
 29 33  1  0
  1 41  1  0
  2 42  1  0
  3 43  1  0
  4 44  1  0
  5 45  1  0
  6 46  1  0
  7 47  1  0
  8 48  1  0
 16 49  1  0
 16 50  1  0
 17 51  1  0
 17 52  1  0
 18 53  1  0
 18 54  1  0
 19 55  1  1
 20 56  1  1
 21 57  1  0
 21 58  1  0
 21 59  1  0
 22 60  1  0
 22 61  1  0
 22 62  1  0
 23 63  1  0
 23 64  1  0
 24 65  1  0
 24 66  1  0
 25 67  1  0
 25 68  1  0
 26 69  1  0
 26 70  1  0
 27 71  1  0
 27 72  1  0
 28 73  1  1
 29 74  1  6
 33 75  1  0
 34 76  1  0
 34 77  1  0
 38 78  1  0
M  CHG  1  34   1
M  END
>  <OMEGA_C>  (33) 
l3GkQGFeKEE+irDBHDC1QL5sM0Fdp6fBui2nQKvgEUE5CLHBC4bIQDQDKEELPZ/Bbbi6QO5sBkHc
o6jBXwPdQMWLlD/s9KrBn5GpQD9ryr7dFaPBlUDsQGWGnb8ftKrBFWTLQCSBEUHQsZ/BVXK1QI4C
az/y4aXBWmr4QKiIsD2oWq3BINvEQLwbvL/Yi6XBjHHCQKo5wUDyOpTBxaQGQeIJNr71BW/BS6Tf
QNBN7z/h1YzB/1ydQNI8/0AHtYvB0qnoQA7bBr9NVIfBgz2KQH+13kAe7oPB2jGiQKWSoUDy3o7B
nl/iQITVYj9RcIPBHR8TQQIGkMCMlIjBOKXxQDAAI0D4g1vBDZaYQNmDBEDFCqPBcGbgQMmKBUG7
jZbBMSQCQeuOWsDI6obBQq4IQVvCE0Cf6W3B888LQVmTF8A7637BniGOQLSVgUBw1JbBJXitQAwJ
PEAYUZrBYQ/CQNfa7EBqjJHB1SP9QIIDl79rTnzBVqUDQdTkhj8Q8HjBDCe3QIhSBkDU+5DBryF7
QIbEuEAREYrBc43eQNFIs0DVHprBVAURQVXXvL4RpF7Bx6n/QAt5GkBjgZDBiT98QFOcmEB32Z/B
rDIPQQXloz4AL7LBvEe5QMmoLsCO5aLBwH+VQEoiMUES+7bB8i6zQEWpREHpTKfB5UqaQKVrCUHb
17fB9DLVQJSBMEH/aZjBLPi8QKFm6kCOCanBOz7mQDLaCkAj/6zBgoyLQK6QE7+mDp/By5AAQUun
A8AhoKzBaauEQBl0BEFofpHB0TGoQAa4DUGiMIfBpdbJQC0hgL8bPonBFIb9QELFDb8Kao7B1Tai
QG3P1UANxHvBKShcQACR7ECQ5H/BsiuzQFWIj0BtnojBx6XEQK30cT+0f33BlsYMQanpqMDv7o3B
BYAhQY62gcD7LYzBr0gXQWlinsD30YDBBo35QBpnX0B5YlPBcvHQQEKqJkBc9mHBDrrzQM2n2z8g
B1DBMveSQALJK0CWNarBvsdzQL4d1z+XEqDB0xH8QBYq+UCao5nBx0HrQP8dEUF0gZDBVeD7QCAb
PcD3oI7Bq3HnQNZydsDzRIPBd58HQUkYSUD5WXnBxQMZQe1BEEC9amfB+SgOQZ/3NMBxGW/B8mIb
QTzWA8CIu4LBEVRmQLP2Y0ABvJLB7eXKQAY/WUDKeZ3BAX+eQFj00z/4UI3BoxhcQM7CpECsLIXB
X+pTQM8DwkB384/B7WpjQLYjhUDRyqTBoYqmQFtxJ0G3RbDB7c22QGGPMkFLWafBxX2pQFX1EEFY
vrDBufDJQA84J0Hd4Z7Bf9e8QCmUBUFMTajB3szaQFgKgj/BJarBCrymQCYU+76u7aHBetDoQJTG
sL87e6nBaBzNQES5EEGJVJ/BpGSzQL5fTz/E5qTB7X31QOBVor0QbqzBtnHBQOLeyr+6OKTBkAXD
QDggwECP6pPBIl0GQTvjNL8f73TBkDrhQDbi6j+exIzBSQCeQNV+/kDBhYvBA73XQCcKBr/ZQ4fB
2ZKJQNMc3kBd64PBM/mhQF34oEArv47BUT/jQLiMWz/qRoPBleYQQQdoXMCQh4vBJ9sYQTxF3z9G
IF3BSmOXQNpJ/j8dLaLBjL/hQJ/SBEFaH5bBK2TxQN/KYsAkdInByTMVQYga2T/hfXXB/LHjQNI0
NsA93n3Bu3KOQJYOgUA9yZbB+a+tQJExOkA/AprBnv7CQKm060BNL5HB5zzqQHY4sb/1Un7Bhm4G
QRz7Hj8HgHzB/Fa4QM8+CUCWWJDBfzZ6QJqFuEDzMorBCJzfQEW4sUBEl5nBS3kSQWgSmb+kp2fB
AcAAQfAzEkAuEJHBcQp/QKPYl0Cb9J/BBKkNQQT99j0LbbHB5mO1QGceNcDPS6HBi8yXQMMoMEEz
wrbBDpW0QG/KQ0HIAafBz+qcQP5zCEF3k7fBsTnWQIrBL0HhBpjB7kC/QAW36EAKrqjBK3bkQB/f
AECaaKzBoZOIQHRgJb+D5Z3B6kb9QI9BDsDOQKvBFQmGQIBcBEFlcJHB29eoQCwyDUH844bBY9W0
QFhnJ78quIfBZPXlQBrDN7/hKY/B/LqgQBvD1EB4b3vBP1RaQPlG7ED2HYDBNx+yQNvdjkDSXojB
mtbLQEXllT+HZ3rB2dIUQSYMfcBkE5PBZo4VQa6oGMByFYzBHaMZQbjuesBY6YTBeO8jQU4aJEBF
QlnBWn4JQfTm9D+Q+VTBtr4fQVwkSj8ovlfBzqWQQEGlI0CJgqnBWVVyQNeHzz8TvZ7BhnL9QMSJ
90AlH5nBxnvsQNNrEEF6EpDBzVfgQEuJRMDjKJDBPIHoQKtnk8DJ/IjBFoAOQU9kKkACk3rBcsAk
QdjzxD+aV33BqYfBQMcXQ8AwHnvBkJX2QB8cUcCLoHDBttllQMSlY0Bf1pLBr6PKQPkVVkCNmZ3B
W9ifQCFZ6D9K7IvBhnFZQLOgpEAIdYXBerdUQJ0rwkB/N5DB7exmQHtGhEDL7aTBsXeoQP0gJkEt
+a/BbnOuQH/WD0FaybDBUyu2QPkhMUEGwKbBL1TCQKuMBEEKZajBZdnJQMDeJUEtVZ7BNRrYQD4H
iz+KzqrBGlKmQHR4975TdaLB9zDoQOVFpr8JpqrB2jLQQGCUD0GCJJ/BJHuxQIKnVT+xU6XBQ3Tz
QECWpjxQcq3Bma3BQDFZxr+vIKXB8JLDQJb0vkAg55PBongFQZqmN78GHHXBHNvdQBHV5j93nYzB
u5+hQA8W/kCzEovBVa7VQJo2EL/KYIfB+nOLQDL33UBrtIPB+aehQJOxoEAzvY7BwpbfQIiSUT+A
LIPBLKEVQcBIdcAlO4nBaDcUQeJL5z+s+1vBteWUQIrq/T+tOaLBjebkQGCrA0Hp8ZXB8cX7QAph
X8BhtIrBb5cSQYO42z+SgHTBeILnQOoPOsDhW4DBKjONQGk8gUADw5bBRXSrQG7tOEBt/ZnBzq7F
QG4y6kB+45DB027qQEv3t78kZH/BrpAEQb6iHj/wDnzBz0C1QGzfBkD5X5DBJTZ7QPt5uUA0NYrB
B/feQIUEsEBg2pnBapsRQUAql7/xnWfBqVL+QA5tEEAuypDBYgV+QMRsmEB275/BAVMMQYojiD6r
mrLBM0G3QLjsM8B5QKLB6FyZQHXJLkFQbbbBlcujQHFpB0H+17fBSJGxQB43QkHRI6bBxfrGQDjy
5kBSBqnBoBvUQBdOLkHUPZfBDqfgQGs0BkAN+azBXdSIQEqSLL9XOJ7BBBb9QEaZB8B6vKzBzD6K
QJEcBUEI6ZDBCtmtQBtqDEFFPIbBpPSyQP7XPb+flIfBMBLjQP95NL/vb4/B2+ehQBMV00C+/nrB
hw5fQHEL7UC6y3/BQEWxQKgzjkBmWYjBtnDHQEemjT99ZnrBGxAcQUuxh8CHvpDBpoIeQcILO8CD
DofBSlgXQROQksAb1YLBndYeQdDwKEA+k1fBzzYEQZVs/T++MlXBXMEaQZemXT/fo1XBci2NQGK2
JEDRZanBj2puQAlnyz/atJ7Bgw8AQUOb9EBW+pjBwlTwQP1CD0HG+I/BGb34QPHiL8D1J5HBYWjq
QKr7jMCN7ozBuTIMQczNKkCJkHrBRr0iQU8Cxz+qAXvBQIjFQGpdTMCpIYDBCyH4QHyvVcAg03LB
GYViQOSXZUBFz5LB0t/IQNRuU0CsgZ3BuG2cQOmP4T8lJozBdyhYQDD7pUDCnoXBck1XQMxrxED8
PJDBg8FkQEk2hUAn6KTB94enQJ5OKEFqIrDBXpC3QAtKM0HRJKfBeEyqQH7SEUEUqbDB6jjKQHzP
J0FQqJ7BNi69QM1NBkH3MqjBPZ7bQOzRiT8PIKrBRbemQLKi6b7smKLBEHTpQGNZqb/Z86nBliHN
QFdPEUHFJZ/BtcmzQHC2Wj9qH6XBJG32QABhQby5iKzB7JPBQJOSxb8S+6TB7h7CQDocwUCS5ZPB
Cu0KQQbCW789ZIHBAW7gQIOu5z8c8YzB5CedQL5Q/0BcbIvBU/3PQMrXAr9JdobBVX+IQPLL3kAh
5IPBfzKhQLPKoUBBuo7B9LziQFfvVj9XYYPB8HPfQFCnXcCQv27Bmx0ZQX71lj9+vF3BXXmXQJBK
AUDVSKLBxjjhQKxGBUF755XBgyPSQI51ZMBPNYPBrt0VQVejuz+xq3XB8FrxQMSwM8CnnIrB+uCN
QETAgUCoxJbBA0utQFLVO0A6+ZnB0zPCQMqW7EBbE5HBdh71QC9rsL+UwofBtwYHQc7KAT/9qX/B
8Jy3QHZsCkCnUpDBDWd4QGlDuUC1N4rBmlreQGD5skDzuJnBaXEaQQfuvb9KKnzBLFoAQeS7EkC9
/5DBKxZ+QEiFmEC58p/BBFMOQS5UUD4OTLHBtBS1QKIUM8DHcaLB4BqZQJUgMUFOobbBNIi1QNOF
REEDxKbBwfGdQAZsCUHdjLfB+1fWQEY/MEHCwJfBKnq/QHAq6kBJn6jBqYLlQJ44BUA/GqzBNRWI
QKEmIL9e1Z7BmBL+QHYsCsDZyKvBLVKFQDvgBEGcWZHBQvynQJ+IDUFQvIbBwtu6QDazY7+2G4DB
7e69QCdQ374E/o3B13ifQIdd1UBKT3vBxvNXQLvo7EAdIYDBbGCxQKPQj0BtVYjBKz/QQIU0oT8j
YHnB9IDIQM+KgMA9xGTBCZ7/QLoFecBSrGzB1cHfQL76GcCM5mnBxkUkQWNh9T+X9FbBoqYJQbqm
nz+DZ1XBKr8fQWVbLD4ftlvBv8GQQAeOJkAyj6nBdYlyQBES0j8z757BygD9QN1q+EBT2JjBh7/r
QOXNEEE1zI/Bj77RQLIrlMDgiYXBW+KxQGhMScD9JoTBeVYPQSbIHkCJgnfBAG8lQQB1sz8k0X3B
ZpQIQfx4UcCdAorBRbrlQBqZOMAv5ZLB57RkQG3eZEA/15LB/2DKQMgWWEBkc53B5BKfQD+j7j8F
x4vBCnBXQGVNpUC/g4XBvy1TQO73wkCNQZDBFDJmQNPuhEAt76TBHUaoQIqeJ0Ehm7DBroqsQPIw
EUFqIbHBD7W2QBrQMkGxgqfB8GK/QKryBUEokqjBYX7JQJqcJ0FS8p7BgMDbQPkLjz+VvarBt0mh
QAg2pr5MxqTBKuTiQHQ9p7/106vB/wfOQNgsEUHic5/BW16yQEtWdj9ababBEuvzQKDkjrwkfK3B
5Jm5QK6wur/uc6fB81jDQHdTwUDp55PBsCH+QO7ro7+7JHrB8wjbQH9WzT91II3BUSaeQIHv/0CV
sovBD9HcQOCGZ7+IaY3BmmGJQGzY30B/FITBzyiiQNowokDHtY7BE8LaQKAzpD4FTYbBkKGhQNzA
ecDkAIvBqQQbQazTWD8AsWLBCHmYQFkKC0AqeKPBgEjiQKJnBUF8JJbBpOnKQHGFhMDSg4TByqgF
QYOpkD+6Im7BlZjxQOAiVsCq4IjBsV2OQGyCgkAXu5bBhzGtQBZ/PEDqH5rBM1jDQEv47EDBOZHB
NvvuQIxS9L99XIbBagj/QLQG2D0+K37BTZuzQDjPAUCnCJHBpVZ6QNv5uUDjRYrBiczfQDrvskAi
oJnBFg8EQfi17b9KkWnBzXX8QA6FC0DCcI/BH1N+QKUamkDyxJ/BVbINQeFqBj6AvbHBHGmpQOlP
LMC6u6XBa+2ZQGA7MEGKLrfBoV2hQLqfCEEiGLjBQVqzQCP+Q0FmHKfB+KXCQAiH6UDH+KjBBnbU
QNg1MEHF+JfBo9roQIrEBkD17qvB05aBQC4o4b45daHBbID1QGBsC8Ct6a3B5G6GQAf9BEE9spHB
ltGoQIL9DUHBGIfBfbm8QOtwmb/TJ5DBbZHxQDCXOr9cYZTBP0OgQNnD1kCClHvBlZ1ZQGEs7kAO
ZYDBySCyQGsckEAgTYjBJMe8QOpclT4EsoHBGFyHQJu/j8BxiIfBIVCZQExgNcA+wYrBgcemQKy7
hsBTWpPBKFceQaNM0z8SJVfBVvkZQacQ6r0GM1rBWv4nQfhJTT+Kj27B+DiWQGiRNUCudarBgmFw
QGj47D/EFKHBsh7+QPWi+EAOCZnBDr/sQFYYEUFKG5DBHC/FQDSZdcDWW3jBe6bSQCDYpsAAx4TB
O+zxQDWBlz+O+mHBIvsGQZ5jBkASV3bB9IMHQT0scMB1UIXBTcvyQG/WXcChnpHB2bhlQDu2ZkBV
wZLB1NvLQFUSWEDTupzBDmyZQDlC1z9nXY3BZ19ZQGBHpkBJgIXBix5VQOlWw0B0WJDBNqZlQG74
hkBDzqTB

>  <OMEGA_E>  (33) 
PKbsPviY/z6o+ek+CEwYP5onDT8=

>  <OMEGA_NBR>  (33) 
     44676

$$$$
50147914
     RDKit          3D

 74 77  0  0  1  0  0  0  0  0999 V2000
    5.3682   10.4375  -21.9662 C   0  0  0  0  0  0  0  0  0  0  0  0
    5.9005   11.1056  -20.8457 C   0  0  0  0  0  0  0  0  0  0  0  0
    5.4083    9.0304  -22.0341 C   0  0  0  0  0  0  0  0  0  0  0  0
    6.4689   10.3682  -19.7905 C   0  0  0  0  0  0  0  0  0  0  0  0
    5.9839    8.2905  -20.9825 C   0  0  0  0  0  0  0  0  0  0  0  0
    6.6968    1.0999  -21.4544 C   0  0  0  0  0  0  0  0  0  0  0  0
    5.1376   -0.4913  -20.4502 C   0  0  0  0  0  0  0  0  0  0  0  0
    7.2021   -1.2840  -21.4803 C   0  0  0  0  0  0  0  0  0  0  0  0
    6.5141    8.9598  -19.8542 C   0  0  0  0  0  0  0  0  0  0  0  0
    5.4878    0.8343  -20.7778 C   0  0  0  0  0  0  0  0  0  0  0  0
    7.5552    0.0424  -21.7998 C   0  0  0  0  0  0  0  0  0  0  0  0
    5.9940   -1.5496  -20.8044 C   0  0  0  0  0  0  0  0  0  0  0  0
    8.4963   -0.2695  -15.0707 C   0  0  0  0  0  0  0  0  0  0  0  0
    6.0945    5.9164  -18.4850 C   0  0  0  0  0  0  0  0  0  0  0  0
    7.0280    2.0695  -17.6574 C   0  0  0  0  0  0  0  0  0  0  0  0
    8.5312    1.1141  -15.7433 C   0  0  0  0  0  0  0  0  0  0  0  0
    5.0074    7.8723  -17.3797 C   0  0  0  0  0  0  0  0  0  0  0  0
    6.9662   -0.2657  -16.8467 C   0  0  0  0  0  0  0  0  0  0  0  0
    4.3447    6.8572  -16.4493 C   0  0  0  0  0  0  0  0  0  0  0  0
    5.0352    4.9572  -17.8578 C   0  0  2  0  0  0  0  0  0  0  0  0
    7.1759    1.1732  -16.4343 C   0  0  2  0  0  0  0  0  0  0  0  0
    5.7533   -4.6673  -17.2543 C   0  0  0  0  0  0  0  0  0  0  0  0
    4.5966    1.9759  -20.3596 C   0  0  0  0  0  0  0  0  0  0  0  0
    7.1292    8.1858  -18.7062 C   0  0  0  0  0  0  0  0  0  0  0  0
    7.2476   -2.4607  -15.5567 C   0  0  0  0  0  0  0  0  0  0  0  0
    7.6952   -3.2869  -16.7869 C   0  0  0  0  0  0  0  0  0  0  0  0
    4.3862    4.0041  -18.8845 C   0  0  2  0  0  0  0  0  0  0  0  0
    5.3379    2.8927  -19.3666 C   0  0  1  0  0  0  0  0  0  0  0  0
    6.1407    7.2670  -18.1069 N   0  0  0  0  0  0  0  0  0  0  0  0
    7.5221   -1.0321  -15.7390 N   0  0  0  0  0  0  0  0  0  0  0  0
    5.7555    2.1016  -18.2096 N   0  0  0  0  0  0  0  0  0  0  0  0
    3.9119    5.7138  -17.2585 N   0  0  0  0  0  0  0  0  0  0  0  0
    9.1617   -0.6003  -14.0967 O   0  0  0  0  0  0  0  0  0  0  0  0
    6.9653    5.4627  -19.2192 O   0  0  0  0  0  0  0  0  0  0  0  0
    7.9635    2.7248  -18.1053 O   0  0  0  0  0  0  0  0  0  0  0  0
    3.9049    4.7650  -19.9912 O   0  0  0  0  0  0  0  0  0  0  0  0
    7.1024   -4.6018  -16.7340 O   0  0  0  0  0  0  0  0  0  0  0  0
    8.7203    0.3028  -22.4334 F   0  0  0  0  0  0  0  0  0  0  0  0
    5.6649   -2.8192  -20.4802 F   0  0  0  0  0  0  0  0  0  0  0  0
    4.9289   11.0043  -22.7738 H   0  0  0  0  0  0  0  0  0  0  0  0
    5.8724   12.1841  -20.7967 H   0  0  0  0  0  0  0  0  0  0  0  0
    4.9978    8.5193  -22.8923 H   0  0  0  0  0  0  0  0  0  0  0  0
    6.8713   10.8818  -18.9298 H   0  0  0  0  0  0  0  0  0  0  0  0
    6.0206    7.2125  -21.0376 H   0  0  0  0  0  0  0  0  0  0  0  0
    6.9626    2.1158  -21.7070 H   0  0  0  0  0  0  0  0  0  0  0  0
    4.2139   -0.6939  -19.9285 H   0  0  0  0  0  0  0  0  0  0  0  0
    7.8577   -2.0976  -21.7535 H   0  0  0  0  0  0  0  0  0  0  0  0
    8.6337    1.9167  -14.9981 H   0  0  0  0  0  0  0  0  0  0  0  0
    9.3528    1.1825  -16.4714 H   0  0  0  0  0  0  0  0  0  0  0  0
    4.2645    8.2312  -18.1071 H   0  0  0  0  0  0  0  0  0  0  0  0
    5.3753    8.7198  -16.7828 H   0  0  0  0  0  0  0  0  0  0  0  0
    5.8958   -0.4839  -16.9753 H   0  0  0  0  0  0  0  0  0  0  0  0
    7.5005   -0.4864  -17.7825 H   0  0  0  0  0  0  0  0  0  0  0  0
    5.0647    6.5238  -15.6874 H   0  0  0  0  0  0  0  0  0  0  0  0
    3.4749    7.3157  -15.9560 H   0  0  0  0  0  0  0  0  0  0  0  0
    5.5279    4.3547  -17.0805 H   0  0  0  0  0  0  0  0  0  0  0  0
    6.4102    1.4502  -15.6947 H   0  0  0  0  0  0  0  0  0  0  0  0
    5.3795   -5.6989  -17.1766 H   0  0  0  0  0  0  0  0  0  0  0  0
    5.1032   -3.9971  -16.6727 H   0  0  0  0  0  0  0  0  0  0  0  0
    5.7518   -4.3553  -18.3091 H   0  0  0  0  0  0  0  0  0  0  0  0
    4.3107    2.5582  -21.2480 H   0  0  0  0  0  0  0  0  0  0  0  0
    3.6929    1.5741  -19.8781 H   0  0  0  0  0  0  0  0  0  0  0  0
    7.9835    7.6027  -19.0806 H   0  0  0  0  0  0  0  0  0  0  0  0
    7.4763    8.8933  -17.9387 H   0  0  0  0  0  0  0  0  0  0  0  0
    6.1669   -2.6005  -15.4065 H   0  0  0  0  0  0  0  0  0  0  0  0
    7.7905   -2.8184  -14.6694 H   0  0  0  0  0  0  0  0  0  0  0  0
    7.3720   -2.7772  -17.7065 H   0  0  0  0  0  0  0  0  0  0  0  0
    8.7913   -3.3800  -16.7851 H   0  0  0  0  0  0  0  0  0  0  0  0
    3.5336    3.5169  -18.3889 H   0  0  0  0  0  0  0  0  0  0  0  0
    6.2096    3.3441  -19.8628 H   0  0  0  0  0  0  0  0  0  0  0  0
    5.0587    1.5303  -17.7758 H   0  0  0  0  0  0  0  0  0  0  0  0
    3.3874    5.0933  -16.6754 H   0  0  0  0  0  0  0  0  0  0  0  0
    3.3277    6.0511  -17.9967 H   0  0  0  0  0  0  0  0  0  0  0  0
    3.5044    4.1828  -20.6261 H   0  0  0  0  0  0  0  0  0  0  0  0
  1  2  2  0
  1  3  1  0
  2  4  1  0
  3  5  2  0
  4  9  2  0
  5  9  1  0
  6 10  2  0
  6 11  1  0
  7 10  1  0
  7 12  2  0
  8 11  2  0
  8 12  1  0
  9 24  1  0
 10 23  1  0
 11 38  1  0
 12 39  1  0
 13 16  1  0
 13 30  1  0
 13 33  2  0
 14 20  1  0
 14 29  1  0
 14 34  2  0
 15 21  1  0
 15 31  1  0
 15 35  2  0
 16 21  1  0
 17 19  1  0
 17 29  1  0
 18 21  1  0
 18 30  1  0
 19 32  1  0
 20 27  1  0
 20 32  1  0
 22 37  1  0
 23 28  1  0
 24 29  1  0
 25 26  1  0
 25 30  1  0
 26 37  1  0
 27 28  1  0
 27 36  1  0
 28 31  1  0
  1 40  1  0
  2 41  1  0
  3 42  1  0
  4 43  1  0
  5 44  1  0
  6 45  1  0
  7 46  1  0
  8 47  1  0
 16 48  1  0
 16 49  1  0
 17 50  1  0
 17 51  1  0
 18 52  1  0
 18 53  1  0
 19 54  1  0
 19 55  1  0
 20 56  1  1
 21 57  1  1
 22 58  1  0
 22 59  1  0
 22 60  1  0
 23 61  1  0
 23 62  1  0
 24 63  1  0
 24 64  1  0
 25 65  1  0
 25 66  1  0
 26 67  1  0
 26 68  1  0
 27 69  1  1
 28 70  1  6
 31 71  1  0
 32 72  1  0
 32 73  1  0
 36 74  1  0
M  CHG  1  32   1
M  END
>  <OMEGA_C>  (34) 
M8irQCYAJ0Gvuq/BNtG8QI2wMUH7w6bBAxGtQHR8EEHERbDB2QDPQC/kJUHbUp7BYny/QLSlBEFB
3KfBb0zWQJvJjD+1oqvB12akQISK+77ymaPB73fmQFBapL+h16vBTnPQQH9bD0F31Z7BWZyvQGaV
VT/iOKbBW8TxQK6ULT3uZa7BNs+/QGJYxr9db6bBzPAHQe75ib6oIXHBvgXDQFdTvUA04ZPBU+Xg
QGZzBEBcQo3BmH8IQQ+ajj9x5HvBqjygQKTp+0CNCYvBQuveQEgDiL7yxYbBlgeLQGlu20AUmIPB
cyChQFihnkC+3I7BwqDlQBsrlj9feYPBNhu4QJtalcDPCIrBWxeTQJrr/D9f4KLBbiLkQBb5AkE/
ppXBcOznQEd8HcBT6HjBaT/2QBRcUsB6S4bBIVyMQP8hgEByE5fB0s+qQEAiOUC37prBZYDEQGGL
6EDk2pDBKrXwQHcchL8m03vB3iy4QKKABkAqrZHBQFx6QB7XtkCCEYrBKpYSQRCrGb8PjGHBj+Pe
QNnOrkDrwJnBGtX+QE1jLkCr15DBLul5QAp7mED57Z/B9UbjQChCk8Ap34XBfoYLQX4Hmz6hd7PB
KEe1QDBtNMCI16PB4rmdQKERMEGsMLbB3uq7QCzyQkGWX6bBou2fQApPCEF/I7fBsuHbQL8bLkFI
cJfBn6jAQKTM5kD1TKjBZs3eQNloB0Dyp63B+deGQLSkMb+RbZ/BMnL7QKI/BsA+B67BzCMKQbZX
9T9r+G/BP6UVQVpblz9jxYPBbXaIQOqyA0Fo25DBVQKsQH2EC0EdQ4bBXaq8QHDC976CzYfBaQTw
QHcJ+b6FQo7BGhKiQDnD0ECq/3rBgWReQNsZ6kDDS3/By+SwQF1Zi0DapIjBNyDNQLqguT9wHXvB
xCSsQIxdtsDEaYnBpE2jQLrQf8DEYYXBaw64QLpei8AXeZLBZvGJQG+5I0DQ+6nBEVhsQH16yT9t
Bp/B/Hj/QJFJ80D6pJjBnz3vQNdKDkFsgo/BdVfFQBpvJsACgXbBcEv5QOhgNMDMtWrBRefrQO68
McDapo3BIqkMQYVRWMD8R4bB6iZiQGMVYUBiHJPBbLXGQBYFVkAX557B5uChQIrhwz/UNI7BpctY
QKf8okBGZ4XBRfhUQKeiwUBB+Y/BJ0hgQEPZhUBKAqXBznmpQJp0J0Epna/BysGuQAkqEUG/t7DB
xEW3QKHXMUEpOabBJP7BQL9ABUG/cKjBXlPKQK/3JUFa7p3B4kXWQDP5jT++2qvBGjelQGSK+b6T
kKPBtubmQKHGor8DCqzB5OXPQF6tD0GCBJ/B8gSwQLu8Vj/GRabBtL7xQFo4Yz2Rsq7BuKfAQMln
xb+HdqbB0UgGQUj/wr6/MnHBkCXDQFqxvUC/GZTB8jriQNB3A0A1WI3Bb/sIQQikej/uoXzBIHyg
QDIk/ED6L4vBuvHZQGvqeL7lSYbBNd6LQOmp20BqooPBJuehQHDOnkCs5Y7BEC3mQECDlj8sa4PB
PvYPQa4gh8BQ8o7BzJ+TQNQK/T+70qLBqg7kQCAuA0Ez8pXB5rjaQJjaGcAzmXbBjA/lQCQPVMAk
5ITBeAiNQLHkf0DF/pbBsqSrQJowOUDi7JrBwJfEQDXp6ECtGJHBiNroQGyRgr/vYnrBHF25QDKd
BkAetJHBQ/x7QNvItkCiAYrB7jERQffjR7/tOGLBNK/eQMJNr0B8FprBqR0AQWPVLUBr0JDBobh5
QKgAmECz0J/BtVcJQaUUWMBeR4bBWVALQRAhpD5V7rPBnKO2QKr7M8AmvKPBtdaaQMiUMEEf+bXB
cA+kQLA2CUFg6LfB8zizQA/sQkHTY6XB3xzGQIhc6ECKSqnBILXUQBTwLUG/t5bBRHHeQMsJCEAq
8a3B7vGHQLBvMb+gRp/BE+r7QGxDBcC4Rq7Bg5YMQWUV5D90J3HBW6oVQfw5bz8taITBHFeIQACs
A0Ev8pDBt06sQHm4C0HYe4bBrha3QI0Brb4TQYfBbvfpQCUJEL8Gso3B7EWjQDdU0UBsLnvBmjZg
QBM46kDfQn/B4T6yQPDXi0DttYjBsubPQFYyxj8DlXrByYYhQV4Jh8D1gI/Bzk8KQSz1p8C2f43B
NB0JQcdLdsDIepbBbB2KQOriI0Bx5KnBDNFtQNM4yT+05Z7BkTH/QFi580DhD5nBP4rvQNZpDkFW
z4/Bh/C3QNseGsCw5XPBXhTrQBDWMsAFUmjBDH3YQKpaisCdY4PB9TjWQMHGOcDWKYzBRkhkQFxH
YED56pLBtlHHQHtnVkBL9J7B7QajQDAdxT/qKo7Bb1pbQD3hokClQIXBZLRVQONCwUCt24/BmOxf
QP8ohUAY1aTB3VisQLBaKEHGua7BEta8QHONMkGsjqXBCNetQNfhEUFVlq/BPszOQP5OJkFnPp3B
5Pq/QACZBUHAS6fBANDWQEARfj8tLavB4b2hQLfmAb++SaPB8FbjQK32tL/9+6rByIbQQDzRD0GO
FJ7BowyvQC9SSz+BD6bBlvbwQJZR472Im63Bd+O7QLwczr/9vqXBD1IJQdAMd70q5m/BG9XCQK42
vUDMxZPBipHgQEYwA0CUq43BDFQIQX+tpD9+p3vBxQ+gQMD6+kB3j4rBfiriQIAhg75aJIbBzVSK
QCbJ2UD7aIPBTLCgQHcxnkDQA4/BILLlQOSpmz8vjIPBSFwJQQfucsAUwJTBYF+TQBJG/T9HNKPB
+x/kQObzAkHvC5XB26nuQNvyFcCX6XTBY1cEQSD9TcBgOoLBwD2MQNVcgEBkcJfBwqiqQAU4OUDR
MZvBfmvEQGwW6ECJc5DBv+XzQBLrZ7/HTXnBZYK3QGwfB0Dm1JHB2j55QKoHtkD1LorBxPQUQUCN
m76mnGDBB7TeQKonr0Btt5nB6vP+QPTvJ0BH3JHBK8Z7QC4wmUB6UaDB6+z4QPwnRsBqCo3BGKQL
QSQspz3UYrLBqWKvQBTCNsBK7qLBXo2eQOHDMUFAGbXB3rC7QDvGQ0HB6KTBjxOhQOITCkG4mrbB
yEnbQKkmLkHdNJbBrEHBQPbD6EBE+afBsCXhQFbS/j/zOK3Bu4CDQF9bKL/yR5/BOiX3QILOEMBJ
/azBI8cIQZUfCECaTnDBqZAVQfVJsT+0koPBu5OIQKyrA0FiV5DBtdqrQPG1CkExjoXBkJbAQHk0
DL9EYYfB9ez0QHDBAb8WUI3BcwWhQDhPzkBHpnrBlsNcQNAm6EAJ5H7BiSuwQJ5eikDQ24jBoznM
QPx7vj/7wHvBAX8CQf9basBDyJzBy70ZQac1WcDUm5TBO7cJQf+9m8CqwZLBwhSMQEgiI0BTgarB
ZsxqQFpgzz8Xl5/Bw3L/QFaC80BIJpjBLjzvQMnyDUEEw47BuJjMQESSJsAjcnbBK235QMgMI8CF
emTBRDEVQf+/OcARAYLBGyEDQeGgiMCOaH/BEOJgQL/YYUBXqpPBrNLGQEPaVUAZE5/BwdKgQE73
yT8JJI7BJfNWQFLCoUDOt4XBG6JUQIiXwUD6EpDB6ppiQLThhkChgaXB+m2oQJriJkEm+K/BVJyu
QAWeEEGQ4LDBxfO0QA2pMUFDk6bBEq7BQOwjBUEzbajB5rzHQBw0JkHUGJ7BIbHXQJLakj+JbavB
Z0imQFHq7L5AcaPBB5zoQLSZnb+BsavBjIDOQLf2D0F1BZ/BUCexQIrqXT/2/6XBVIHzQMyuzD0I
Nq7BC/vBQLdywb+FT6bBOxgGQfUhyb6Xl3DB5dDCQNTVvkCf55PBFGziQAekAEDPVI3BlNQIQeBn
dD8fN3zBH1+fQHwi/UBRGYvBcA/aQBnukL74RIbBy3yKQBuK3EDOoIPBS2mhQMvYn0BrzY7B8wvm
QD+WkT9xVoPBRgCgQGIRkMA4MYjBQWKUQPV7/z8zmKLBwt3iQNfuA0Ed0ZXBKjfdQN7KHcAH/nbB
PfPjQDtYWMApU4XBthGNQNTagECN8ZbBQvOrQAzZOkDEqprB0M3DQCwf6kD27ZDBsdPrQKmLjL82
XHvBZBS5QOB1CUCSRZHBKD16QNKut0DhD4rB6BoQQYpLQr/CyWDBVcneQJV+sEDCxpnBC9cAQfF9
IUDwoJHBROx6QKm5mEAg3J/BZDjLQD/qksDbGoTB6GMMQfgcwD4JPLPBBMO3QBk6MsCpv6PBVxWa
QNyxL0HJerbBebqkQBdaCEEeDbjB5yGwQBO3QkGn4aXBkoDGQMos6ECOIanB/f7QQJR0LkED3pbB
wc/fQFmmCkBbca3B78CIQOUHLb84Sp/Bw939QChkAsCX463BWkQMQVEt4j8k23DBHaQVQY57Zz/b
IITBe3OHQEMsBEEk6pDBjOiqQNUzDEErV4bB2hS3QG7zyr6Bp4bBYSnoQCBBEL+XA47BK5uhQCRB
0kBwBXvB6uhcQJD06kB2bH/BYXqxQP0BjUAnjIjB1GLPQJYiwT8Bl3rBH4OPQHPErsAm84bBr6+O
QIgibcBJ8YPBL/CgQEWxiMAyy5DB+NyKQC3sJECPranBI2ZvQGajyj8ytZ7BNHX+QLOT9UAiz5jB
E7btQNxzD0G+vY/BkPS6QPdYHMD593LB9GPvQL21N8A2YmnBx47ZQG6HNsDAl4zBSgkDQXq6aMCE
A4bBqc9jQIVLYkCj9JLBsd/HQA/NV0Asnp7B2OuhQP3i1T/XR43B4RJZQD23o0D7YYXBYLJUQDUj
wkCR/Y/BzcZhQI3GhUBB56TBEPSlQAMWKEG/y7DB8pqqQMuvEUG0bbHBtkK0QPErM0HKp6fBML+9
QMddBkFT76jBIFrHQKflJ0EOKZ/BGCfdQPLYjT+CZKrBnDukQArnwr6vOKTBji3mQICXp79chqvB
pk7MQCl/EUFox5/BljW0QEBVaz8W56XBDBv2QABv4buFNq3Buju9QKJFv78xBqfBqpoFQUychr8S
RnfByK/CQIyawUArOZTB/LveQJIS6D9674vBPoQDQSMl7j61BXrBAPOcQLjK/0Ah/ovB+DnmQPHD
Lb98pYvBEVWJQNml30CQMYTBkp2iQEUWokDfw47BxGfhQD3CET9QtYTBYj+TQNfJfMDqKIvBMG6Z
QFbRBkDL4KLBWtbgQGmrBUGwiJbBF20DQUJVQsBIfojBvgzeQAuZdsCAXIbB0ByPQKiSgUD8l5bB
Ep+uQGeNO0Cb4JnBQirCQIJE7UBAm5HB+YMAQdIfz7+bjYXB4PC2QJPnA0BHkZDBqeZ6QJs/uUB4
OYrBMsUKQYa10b9i3WbBgsreQOqPs0AoGprBquL+QHcvHEAwg47BxzN+QAdCmEBFsp/BUme9QCD3
X8DPAo7ByqcOQaglMj77i7HB+OitQO5jL8DGXaXBTGiXQE3CMEEGU7fBMn+fQIozCUGNbLjBvpKw
QFNTREFaK6fBPEzBQMlo6kBWaqnBHzzSQGNpMEHPJpjBqU7pQMDTBkBDqavBcteEQIphBb9FyaDB
xV35QLqhCsCdrq3BG/b/QG+MdT80s2rBpx4SQSgnZj+DfIDBs6iEQIuGBEEX7ZHBiVanQFQjDkGt
hYfBRq7GQKXoj7+XPY3BbMj1QAeF2L42RZPB/s+gQKJQ10Bd9HvBRHhZQPmV7UBjbYDBt3mzQOy4
kEAcYIjBRXvDQJ7K+j41HoDBbq14QEQRacCiXpHB8jCTQLd8ocBjeYrBSfGJQG9mYMBIc4PB2kWV
QGbjL0AN86nBB+1zQFeo4D+7HKDBq638QE5X+UDmfZnBPlnrQGBREUGme5DBKqAQQfk/XcBHvoPB
WWcHQSFlRsDxDJHBrFvlQBqcncDrFYfBpmvSQPX3aMDQdnzBRSVoQNtFZEAffZLBk4/MQNAcWEB4
0pzBLKidQGK0zT/DRY3BKoFbQKlrpUClUoXBmmRUQE/wwUDRO5DBI9hlQAqNhEAPnqTBwzalQDkz
KEGu07DBSumzQBtnM0HGwqfBeaKpQDbIEUEYYLHBnRXHQD84KEH5Pp/Bium8QNWOBkHR3qjBunrd
QP3pjT/2carBB6WkQLsfvL5xCKTBveXlQOvJp78Fl6vBk8fLQIbLEUGwxp/B77S0QDSqbT+a1qXB
ag/2QGCISLztUq3BdSK9QCU6vr9F96bBK9IFQQwMWr8UsXLBOZvCQIxLwkDuQpTB5ozfQD7x5T/m
JozBkJIDQSx+IT8mo3jB89KcQHUnAEEA9YvBt4jpQNJiM79eDIrBUPiIQAQK4EBLOoTBicmiQHea
okAqxo7BOkfiQE6AHT8WPoTBzyyxQHAWhMCdhojB7wyaQEiwB0Az46LBxYrgQGMRBkGZhpbBpX0E
QVfLQMCf/IPBQjH5QLh7ZcCr147BEnOPQDa/gUCCjJbB4BWvQBIXPEBA25nBxh3CQF7m7UBCkZHB
RUb7QFuzzr/a4IHBR4a3QJbGA0CQmZDBntZ6QDKeuUBQSorBICMOQXfior+vQ2LBkpDeQKJstECc
NZrBfpT/QOMBG0Bb2I7BXxl+QLMumECTpp/BJmDLQCwSXsBLbpDBkX0OQYDLIj6t1rHBCTmtQKGS
LsCRdKXBs4uWQJ3MMEHUXLfBAHawQJKTREG8WKfBiz6eQFc1CUG8ULjBljrSQLnSMEFNSpjBUlbA
QInE6kAyS6nB2sjpQBWwBkAFwqvBJJOFQMgqAL8MZ6DBrMT4QJMEC8CNzq3BYVz/QKHDnj88g2rB
QEsSQdyUgT+FDYDB8qeEQDviBEHm5pHBTTCnQAJUDkHobYfBlSjLQH7ai7+qM43B6i0AQVhOEb+P
qZDB5jegQKG810DF6HvBLV5YQNDh7UCph4DBR72zQMaGkUDrWYjBCfvDQFw6Dj+Vk3/B6jCPQF6X
fsAne4rBT2y4QGeIpsBweojBL+63QCQAbcDilYDB0EWWQA3FMECe+KnBL9V0QOQ34z+TMKDBxHr8
QOFM+kAFfZnB4/HqQH/GEUHffZDBonv8QEijacCCEnvBWRUWQZ3FQsBZ7IPBr7cEQaK8QsB0VJXB
UvAAQWjSlMBlNY/BljNpQNFfZEAcZZLB0f/MQKrwWEDzxZzBJkeeQAZazj/fOY3BtVFbQKy1pUDh
a4XB5plUQP9CwkCiVJDB0uxlQFNOhEAQi6TB0JmiQMEmJ0GNxrDBCJaxQKOUMkGMz6fB9J2nQI3C
EEEaRLHB2KbFQHGnJ0FnV5/B+sS7QLHKBUHQzajB1nPcQOXxjD9xxarBZlGkQHWowb5tB6TBKqrl
QEOhqL8FlKvBxPDKQENCEUHRz5/BMumzQNo9az9QDKbBrEX1QHABkLwej63BrjS9QOyAv7/GyqbB
HZADQfijUL/3lnLBkFnDQFulwUAKNZTBNmPhQLYx8D8JoIzBABMGQafDHj8EOHvBFAyeQI1q/0DI
oYvBlBHfQAhlGr98DInBKlOKQIq83kC+/YPBTG2jQOTboUDRz47BEFbjQJsSRz/5F4TB56sNQVXS
c8A6AI7BzkuZQOwoB0CQEaPBQKHgQCzRBUG2mZbBptfTQEnnLsDgbnvBOl7SQM3Bb8DaD4fBHMSP
QB2WgUAVsZbBWlGvQFnLPEDkTJrBlOjCQNMx7UDxdJHBRPbrQMgPwb/sYoDB8jW5QKGlBUBCG5HB
faV8QAXWuED8MYrBtAcLQfJ4nb98uWHBZEPfQC3ts0AyMJrB3G8AQS2KIkB4Io/BIZh9QFZ5mEA2
o5/Bphr6QJJhj8AWCojBLP0NQYJnIT6ELbLBEDquQAVeL8DG1aTBpUGTQDOOL0EUR7fBzKutQLi7
Q0FecKfBUAOcQIECCEHfILjBdwfRQGBvMEEVd5jBZKK/QApG6UCJLqnBeGfoQPI/BkA/PqzBtlCF
QMZfA7/rXaDB5Ln4QGpXC8Dauq3BtN8GQWNQrT/bIW7BRGAUQaxWNz8troLBDaWFQGHBBEFLc5HB
rt2oQJyqDUEVAYfB6ti9QNL3S7/CgovBLmH0QKymNb8wAJDBrsahQDvd1UAuoXvBjIlbQOt57EAO
KYDBvGC0QNFGkEB8eYjBWofIQCiBbT90CX3BqQMcQcpHjsDsR47BWw0IQWlVZ8BiMZbBIZwRQdXT
NsCKEorB+5CUQFJKL0CXM6rBzR10QNws4j9tGKDBY5b8QFUM+kCxpJnBliPrQDewEUGYqJDB3dyy
QH/aHMB1QHfB0CjjQIzHTcAJmG3Bnie4QCmrjsDqooXB12/MQK/gTMCNj47BvXhqQDkaY0DghZLB
JpXMQMJMWkDngp3BJaCgQOGYzT+mvI3BrftcQLq7pEAwZIXB4VRWQKAIwkAsLZDBkBhlQDfYhEAs
kaTB

>  <OMEGA_E>  (34) 
MDbpPjT06T5sV/M+NIHmPgDzEj/Exww/fHwBPw==

>  <OMEGA_NBR>  (34) 
     53034

$$$$
50147892
     RDKit          3D

 84 87  0  0  1  0  0  0  0  0999 V2000
    5.2647   10.5018  -21.8624 C   0  0  0  0  0  0  0  0  0  0  0  0
    5.4487    9.1125  -22.0123 C   0  0  0  0  0  0  0  0  0  0  0  0
    5.6782   11.1450  -20.6786 C   0  0  0  0  0  0  0  0  0  0  0  0
    6.0577    8.3674  -20.9834 C   0  0  0  0  0  0  0  0  0  0  0  0
    6.2812   10.4012  -19.6467 C   0  0  0  0  0  0  0  0  0  0  0  0
    6.7656    1.0120  -21.3883 C   0  0  0  0  0  0  0  0  0  0  0  0
    5.1201   -0.4880  -20.3820 C   0  0  0  0  0  0  0  0  0  0  0  0
    7.1882   -1.3888  -21.3120 C   0  0  0  0  0  0  0  0  0  0  0  0
    6.4821    9.0127  -19.7989 C   0  0  0  0  0  0  0  0  0  0  0  0
    5.5194    0.8126  -20.7556 C   0  0  0  0  0  0  0  0  0  0  0  0
    7.5977   -0.0878  -21.6668 C   0  0  0  0  0  0  0  0  0  0  0  0
    5.9543   -1.5873  -20.6605 C   0  0  0  0  0  0  0  0  0  0  0  0
    6.1136    5.9414  -18.4930 C   0  0  0  0  0  0  0  0  0  0  0  0
    8.0682   -1.1488  -14.9454 C   0  0  0  0  0  0  0  0  0  0  0  0
    6.9698    1.8708  -17.8034 C   0  0  0  0  0  0  0  0  0  0  0  0
    5.0342    7.8669  -17.3258 C   0  0  0  0  0  0  0  0  0  0  0  0
    7.1629   -0.5661  -17.2039 C   0  0  0  0  0  0  0  0  0  0  0  0
    8.4052    1.1358  -15.8909 C   0  0  0  0  0  0  0  0  0  0  0  0
    4.3802    6.8260  -16.4186 C   0  0  0  0  0  0  0  0  0  0  0  0
    5.0565    4.9655  -17.8839 C   0  0  2  0  0  0  0  0  0  0  0  0
    7.1263    0.8721  -16.6658 C   0  0  0  0  0  0  0  0  0  0  0  0
    9.1910   -3.8110  -16.9381 C   0  0  0  0  0  0  0  0  0  0  0  0
   11.4766    0.7006  -14.3711 C   0  0  0  0  0  0  0  0  0  0  0  0
    4.6382    1.9996  -20.4262 C   0  0  0  0  0  0  0  0  0  0  0  0
    7.1303    8.2255  -18.6783 C   0  0  0  0  0  0  0  0  0  0  0  0
    7.7245   -3.6513  -17.3791 C   0  0  0  0  0  0  0  0  0  0  0  0
   10.3668    1.5195  -13.6938 C   0  0  0  0  0  0  0  0  0  0  0  0
    6.8680   -2.9190  -16.3171 C   0  0  0  0  0  0  0  0  0  0  0  0
    9.0841    0.6763  -13.4989 C   0  0  0  0  0  0  0  0  0  0  0  0
    4.3958    4.0340  -18.9288 C   0  0  2  0  0  0  0  0  0  0  0  0
    5.3334    2.9091  -19.3979 C   0  0  1  0  0  0  0  0  0  0  0  0
    6.1612    7.2840  -18.0815 N   0  0  0  0  0  0  0  0  0  0  0  0
    7.3223   -1.5206  -16.0894 N   0  0  0  0  0  0  0  0  0  0  0  0
    8.5158    0.1825  -14.7802 N   0  0  0  0  0  0  0  0  0  0  0  0
    5.6823    2.1026  -18.2340 N   0  0  0  0  0  0  0  0  0  0  0  0
    3.9398    5.7065  -17.2565 N   0  0  0  0  0  0  0  0  0  0  0  0
    6.9814    5.5029  -19.2402 O   0  0  0  0  0  0  0  0  0  0  0  0
    8.2651   -1.9699  -14.0557 O   0  0  0  0  0  0  0  0  0  0  0  0
    7.9329    2.4633  -18.2837 O   0  0  0  0  0  0  0  0  0  0  0  0
    3.9461    4.8071  -20.0380 O   0  0  0  0  0  0  0  0  0  0  0  0
    8.7924    0.1068  -22.2691 F   0  0  0  0  0  0  0  0  0  0  0  0
    5.5790   -2.8311  -20.2855 F   0  0  0  0  0  0  0  0  0  0  0  0
    4.8063   11.0740  -22.6554 H   0  0  0  0  0  0  0  0  0  0  0  0
    5.1228    8.6190  -22.9160 H   0  0  0  0  0  0  0  0  0  0  0  0
    5.5325   12.2088  -20.5631 H   0  0  0  0  0  0  0  0  0  0  0  0
    6.2005    7.3031  -21.0993 H   0  0  0  0  0  0  0  0  0  0  0  0
    6.5907   10.8941  -18.7369 H   0  0  0  0  0  0  0  0  0  0  0  0
    7.0803    2.0091  -21.6586 H   0  0  0  0  0  0  0  0  0  0  0  0
    4.1748   -0.6402  -19.8825 H   0  0  0  0  0  0  0  0  0  0  0  0
    7.8204   -2.2344  -21.5396 H   0  0  0  0  0  0  0  0  0  0  0  0
    4.2843    8.2462  -18.0356 H   0  0  0  0  0  0  0  0  0  0  0  0
    5.4075    8.6972  -16.7084 H   0  0  0  0  0  0  0  0  0  0  0  0
    6.2234   -0.7800  -17.7346 H   0  0  0  0  0  0  0  0  0  0  0  0
    8.0090   -0.6732  -17.8985 H   0  0  0  0  0  0  0  0  0  0  0  0
    9.2696    1.0184  -16.5610 H   0  0  0  0  0  0  0  0  0  0  0  0
    8.3866    2.1609  -15.4925 H   0  0  0  0  0  0  0  0  0  0  0  0
    5.1073    6.4709  -15.6734 H   0  0  0  0  0  0  0  0  0  0  0  0
    3.5152    7.2701  -15.9042 H   0  0  0  0  0  0  0  0  0  0  0  0
    5.5549    4.3435  -17.1259 H   0  0  0  0  0  0  0  0  0  0  0  0
    6.2689    0.9719  -15.9840 H   0  0  0  0  0  0  0  0  0  0  0  0
    9.7555   -4.3350  -17.7234 H   0  0  0  0  0  0  0  0  0  0  0  0
    9.6331   -2.8180  -16.7694 H   0  0  0  0  0  0  0  0  0  0  0  0
    9.2321   -4.3939  -16.0062 H   0  0  0  0  0  0  0  0  0  0  0  0
   12.3721    1.3273  -14.4946 H   0  0  0  0  0  0  0  0  0  0  0  0
   11.7224   -0.1708  -13.7464 H   0  0  0  0  0  0  0  0  0  0  0  0
   11.1297    0.3585  -15.3573 H   0  0  0  0  0  0  0  0  0  0  0  0
    4.4426    2.5728  -21.3445 H   0  0  0  0  0  0  0  0  0  0  0  0
    3.6861    1.6404  -20.0084 H   0  0  0  0  0  0  0  0  0  0  0  0
    7.9843    7.6602  -19.0797 H   0  0  0  0  0  0  0  0  0  0  0  0
    7.4831    8.9219  -17.9034 H   0  0  0  0  0  0  0  0  0  0  0  0
    7.6973   -3.0739  -18.3149 H   0  0  0  0  0  0  0  0  0  0  0  0
    7.2963   -4.6497  -17.5517 H   0  0  0  0  0  0  0  0  0  0  0  0
   10.7232    1.8618  -12.7110 H   0  0  0  0  0  0  0  0  0  0  0  0
   10.1305    2.3910  -14.3220 H   0  0  0  0  0  0  0  0  0  0  0  0
    5.8224   -2.8999  -16.6582 H   0  0  0  0  0  0  0  0  0  0  0  0
    6.9339   -3.4711  -15.3679 H   0  0  0  0  0  0  0  0  0  0  0  0
    9.3264   -0.1899  -12.8656 H   0  0  0  0  0  0  0  0  0  0  0  0
    8.3285    1.2980  -12.9964 H   0  0  0  0  0  0  0  0  0  0  0  0
    3.5273    3.5619  -18.4463 H   0  0  0  0  0  0  0  0  0  0  0  0
    6.2358    3.3481  -19.8483 H   0  0  0  0  0  0  0  0  0  0  0  0
    4.9355    1.6896  -17.7128 H   0  0  0  0  0  0  0  0  0  0  0  0
    3.4181    5.0709  -16.6874 H   0  0  0  0  0  0  0  0  0  0  0  0
    3.3512    6.0654  -17.9809 H   0  0  0  0  0  0  0  0  0  0  0  0
    3.5406    4.2354  -20.6793 H   0  0  0  0  0  0  0  0  0  0  0  0
  1  2  2  0
  1  3  1  0
  2  4  1  0
  3  5  2  0
  4  9  2  0
  5  9  1  0
  6 10  2  0
  6 11  1  0
  7 10  1  0
  7 12  2  0
  8 11  2  0
  8 12  1  0
  9 25  1  0
 10 24  1  0
 11 41  1  0
 12 42  1  0
 13 20  1  0
 13 32  1  0
 13 37  2  0
 14 33  1  0
 14 34  1  0
 14 38  2  0
 15 21  1  0
 15 35  1  0
 15 39  2  0
 16 19  1  0
 16 32  1  0
 17 21  1  0
 17 33  1  0
 18 21  1  0
 18 34  1  0
 19 36  1  0
 20 30  1  0
 20 36  1  0
 22 26  1  0
 23 27  1  0
 24 31  1  0
 25 32  1  0
 26 28  1  0
 27 29  1  0
 28 33  1  0
 29 34  1  0
 30 31  1  0
 30 40  1  0
 31 35  1  0
  1 43  1  0
  2 44  1  0
  3 45  1  0
  4 46  1  0
  5 47  1  0
  6 48  1  0
  7 49  1  0
  8 50  1  0
 16 51  1  0
 16 52  1  0
 17 53  1  0
 17 54  1  0
 18 55  1  0
 18 56  1  0
 19 57  1  0
 19 58  1  0
 20 59  1  1
 21 60  1  0
 22 61  1  0
 22 62  1  0
 22 63  1  0
 23 64  1  0
 23 65  1  0
 23 66  1  0
 24 67  1  0
 24 68  1  0
 25 69  1  0
 25 70  1  0
 26 71  1  0
 26 72  1  0
 27 73  1  0
 27 74  1  0
 28 75  1  0
 28 76  1  0
 29 77  1  0
 29 78  1  0
 30 79  1  1
 31 80  1  6
 35 81  1  0
 36 82  1  0
 36 83  1  0
 40 84  1  0
M  CHG  1  36   1
M  END
>  <OMEGA_C>  (35) 
CnioQHEHKEEo5q7BnFuuQK3MEUEtGbDBGrS1QL5RMkHUbaXBltjBQL3gBUH33afB6v/IQEFrJkFa
LJ3BZH/YQDaJgT8zG6vBHNijQNDe+b5aDqPBiAXmQPfEsb8Lf6rBFm3PQBg0EEEpZJ7Bxp6wQCgG
UD+DC6bBYiDzQHi+s72XVa3BiIm+QD0uy7+eSKXBiKLDQDcgvkCf8ZPBJhcBQeEMk79oIG/B6gjf
QLZ27z9obY7BchihQPS9+0BHm4rBaDblQBbqEL+FoYnBzXsGQWRhkT8aQX7ByCqMQKZu2kAyWYPB
lM6hQMTlnkBREo/BSgrkQC4/Xz+iU4XBLA4TQdjmc8BPgYfBIqA3QStZMz8D8GXBCGyUQDf0/z/R
aKPBXCvkQJ6bA0E5bZXBzi73QD6vacBXCIvBVN4lQcR/wj+aGVvBasbbQIDROsBdiYLBaVgRQegh
LT+K+1fBPaqMQO8WgUAWbpfBWquqQAwuOkDaLpvBkCjFQOsW6UDTppDBolDqQDmjwr8lt4DBokAI
QYDiOj7De2zBTNW1QPOQBkA035HB6SR8QH6btkBXDYrB/mffQAsYsEDd65nB+D0EQe8k/L8P5GDB
Dtr9QJKmHUAQRZLBe4x8QGLTmUDjTaDBoq0MQYC92j0gJ7LBFIeyQAQwNcDASKLBDs2ZQCcvMUFF
PrXB6u2jQJ7nCUEEVLfBeAqxQFxXQ0E5gaTBHWrGQE2z6UBTy6jB4ebSQBVOLkEb5ZXBbZHiQMWV
AEDQRK3Bp5eFQHLmI79aD5/BU0D6QN7/DsAzUazB5BiJQD/wA0HkSJDBYAqtQOYnC0G4qoXBXCbH
QL+vR79k4I3B/yQAQVZWLL82MI/Bc1AUQdtbgj/ifITBsS8GQbpMCkA94XfBBW+jQK8Rz0A5xnrB
KflgQEyk6ECOd37BhMGxQN79ikDWAYnBlprIQPnNeD9mvn/BrhYcQfK3isCXyY3BUyEaQexZNMCy
J4bBvbYTQYWajMCrDIDBGfRFQS7mqT/w6WfB7I47QZHiLr4P8VvBaRMyQcyNtz6qt3XB+SmOQAep
JEBwwarBZOlrQNv50T8zEaDBsH//QKYg9UA3o5jB4nXvQCbADkEwOo/BXlD2QFq6RMD3hJLBMnvp
QLzKlMDwaYzBK5IrQd1N7j8jYEvBqBYiQdEGGUC+JmXB7VC6QC2XOcAARIXBoeLdQLglXsDp4nXB
8zgVQcNpQr6V2U3BW0EFQVIkpj8w8U/Bjr5hQHj2Y0AIkpPB6YvHQJVHVkBRyZ7BTO+dQNhD2D/E
s43BsMFaQOhEokDHf4XBcnlWQOcXwkDe2I/BiphiQGCIh0BGb6XBXPKlQCGUJkH5vK/BkZ62QC+Z
MUHN1KbBRfKoQDIbEEFOSbDBWyPKQJ4qJkGicp7By7a8QIWkBEH176fBzg3bQG1Ylj/rbqvBrw2s
QM7Z975+MqPB4t7vQPFRlr9pKKvBS03NQN6sD0F4957BJZe0QEFdWj/KF6bBm534QHGmJj7D9a3B
mJPJQKSgv78dyqXB6y7DQInIvUCc8ZPBGAsDQR+4ZL/LWGzBIOngQKPc9D/Vc47B3rafQCpr+0AF
34rBGe3jQPIo8r6++YfBtfcIQQsSoT8pOn/B4GmMQP1M2kAcSYPBWNmhQPhVnkCc7Y7BtczmQOqc
gT+PyITBAb8LQU09csCYT4jBZshBQeXMhD/lVFXBK4qVQE0L+j/uEKPBvFXiQKqlA0Eb2pXBC7vm
QNYAZMCmKYjBWNUwQXQm+T47fGTBgf3XQEvrLMC1Gn3BJoIaQVGMXj9PTFzBuIGMQHdAgEDjN5fB
dv2qQFqUOUBcAZvBP9vDQMsL6UBl6pDB4SDrQAwhq78zDX3BW6oKQcTT3T6UDWzB+Fi3QE2WB0DY
rJHBsJJ8QD2ktUCVtYnBVVjfQMPJr0Cvz5nBxWsHQb9F0r+1bV3Bgzb/QG7QHkDJwpLBRgl7QFyv
mEAQFaDB8ZUOQfwe8z4hLbPBVCXBQLHvMcCgIaPBs9qWQKVcL0G1JrbBV2u0QEnTQkH9b6bBdhac
QISsB0G8G7fBRbjWQFWhLkFxmpfBLTW/QJnc5kBHYqjB+MbhQIvCDECclK3Bt+aOQAv/Or8D/57B
VkIDQWvj+b/LH63BifeGQHsQA0EIh5DB7yyrQEV2C0HAL4bB8vvDQNp8Lb9mSovBcGP8QJv7ML+t
Do7B0coVQTjMfT/QP4XBuWoKQTh7FEDV2nrB7qKkQOXqz0Bz53rBIOVhQHlC6EAyD37BSmiyQFiH
ikA78ojBN2/NQHZdnT8O3n3B3BMQQSDOjMD6Ro/BKO4TQe0MNMCH04jBNqYQQZSbicDC7oDBP8dR
Qd1CQz87NlvBMm1AQYiGCEAgk1TBNWA/QcFJHT/QQ0XBh3CMQJ4iIUD2RKrBepFxQJ5WwT/fbp/B
OwH+QIxn9UC18pjBqy3tQK4oD0G+xY/B2lfdQF9+Q8Bom4/B98fWQE1UkcCitofBpT4zQYDkaD8d
jXTBqTEyQd/rG7/NPWXBPPO0QJ2uJsC5t33BOUfhQK2tTcD1O27BnXMXQcxHvz4O40zBqIYZQWzc
+j9tNlrBtTNiQB6YYUC/RZPBB1bHQBLVVkAcup7B+QmgQJsI2j+SUI3B0mBdQElHoUAV7YTBQNhU
QIlDwEA0ZI/BF+hgQMEuhkDBJqXBLrupQO8TKEHQP6/B7CC6QGecMkFJKqbBQP6rQLOaEUGl/6/B
vLfMQHWyJkF70Z3BgMq+QDunBUFVrafBoP7YQKLngj+0u6rBvKykQFx1/r5wyKLBMmvnQBS8r78/
GKrBvTPPQBQ1EEEQi57BbgexQPb/Tj8lvaXB9Cb0QHRVib1s5KzBo9S/QO4Fy799+KTB09zCQJtO
vkAG25PBrHEBQR4ucb9TzG3B8DTgQNQcAUA5NY7B9ayfQFVF/EAL0orBUoHeQNBYt76m/4fBFIEK
QTcwlj/5nYDBoseKQAI220CZfIPBLL6gQIpDn0AWC4/BrxrnQDVLjD/csITBV1bBQByylcD/pIjB
ao8wQd3i7T9bpUXBZyaUQHHa/T9KKqPBqk3jQGmuA0FidpXB5/TfQBx6X8CoK4fBwLQbQerNwD8z
GFHBgczMQFDRIcAmpX3BZI0gQZyG6z6VOmLBo+OLQJBTgUB6bpfBmDqqQIQ3O0C2J5vBU//DQB10
6UASupDB+KnjQBCGnr8cS33BQKQNQZhAcT6zfm/BQa22QHbcCUDYwJHBtcJ5QGAWt0C9HYrBBxff
QE4VsED4qpnBi+oDQTlx179VV17BJ+T9QEbqKECsSpLB5xx7QAbpmUCHVaDBjUUNQaSqED6fmLHB
4yO0QLpqNcB/BqLBnWqbQJQ7MUHPpLXBQW64QIPVQ0GTm6XBj1CfQEuLCUHu87bBJxzZQHbKLkFy
15bBNazAQCTh6EA5RajBG7fiQEp8AUBi5azBcV+GQIotKb8p157BtQP8QImBDcD/4KvBgcSHQAv4
A0FHlZDBX1KrQDeYC0Fp9IXByKq9QGk/5L7XFovBJFT1QJCEJ7/MQ47BwooVQYcBaz/vKIfB3NAN
QZGKDECkqHvBWwSiQF8p0ECS9nrBbgVeQId/6UBI2n7B/WmwQJFli0AK7YjBbwTRQBcgsD8jbnzB
aKrOQJr1q8A8l47BCk29QENkpsCh9oDBfReiQNzvicASb4vBSV8tQZksJ0BZOjnBkUA3QcJAdD+H
MD7BRBM8QazOEECzR1HBvBKNQIdFIkA2karBcEVsQHpBzj/2qJ/BXr3+QM0X9UC/jJjBk1buQDjk
DkHAQ4/Bezj/QGPHdsCoXYTB7QLkQJXePcAa1o7BgCcQQamrjD90hkXBM/oUQVEUGkCgnVjBi/2q
QPEzFsC+y4DBUwjPQKV8P8A7uW3B68YtQf7BUD+tWmzBES4lQVvX976weFrBMUNgQOAKZEDdmpPB
147GQA/yV0Ct8p7BuZSfQFnt2D9wnI3BM1RYQI7jokCNh4XBVDdUQLJMwkAO9Y/BU41hQIuCh0Cl
eKXBqx6pQIwzJ0Hata/B6/SuQIvuEEFbv7DB/0O2QIXAMUFNTqbBSCDCQHQ1BUEHZajBM0bJQOQP
JkEk8J3BccHXQIoAkz+QPavBYIqnQJYU9L5cAqPB99rqQPJzm7/U86rB/nfPQNjLD0EX+J7Blh6x
QIqNWj8o4aXBcp/0QBRa7j09va3BM1fEQBRFwb9FlKXB/NTCQE0TvkD86JPB1icBQVOSeL8UdW3B
Xw3gQGoLAEDeBo7BSdifQKe7/EB3JovB2nzcQJqKtr72kofBxcUKQaw2jz+eqYDBNhqLQNxO3EDJ
nIPBf7SgQMNxn0AJ647BHRznQLJ+iz+Mb4TBLmW+QLVplcAfOIjBheYvQRxi9D9Z6EXBqAqTQP6W
/D8Px6LBfY/jQENzA0GU1ZXBMnLdQKCqX8AwuYbBwB8bQeIRvj8g5VDB2KDKQDdhIcDYynzBQF4g
QWwm2j7LwmHB9nmLQIVPgUB8LpfBV4apQK2xOkDI2prBNhLEQMhv6UBo/pDB/QriQHDmnr80inzB
2LcNQQ4QQz79Y2/B0FS2QKejCUDUcZHBzQd6QKaft0B8BIrBX/veQI9er0Cpq5nBe74DQfoi3L8+
Hl7BcNn9QGHjJUCeV5LBvZJ6QAC7mUAbIqDB0dsMQcJCzz69zbLBmT+7QH0qMsA2xaLBro6aQFwv
MEFtIbbBK7ykQIvaCEHx8bfB9sCxQMvPQkHahKXB55/GQMpM6EDcMKnBwSPTQNYmLkFytpbBdSPf
QGu6CkBjbK3BRiOKQNzbM7/2157BTHIAQdmNAMBO76zBs9KHQC/wA0Gu8pDBwo6rQBEKDEEycobB
cyK7QKQu0r6OWorBZgbyQCXlLb+6CY7BaE4VQTqLUj82TYfBU+AOQarRCEDUHXzBrXqiQLbD0UA2
K3vBaOFeQCj26kAgLX/BknWwQOTLi0AZxYjBGAzSQL+Psz94sHvByojLQP3Yq8DPJo7BSA26QE0L
psAwioDBMVWfQCxIicBfCYvBm2IsQUj7KkBqtznBBFI3QWpvhD/dOz7BG/M6QRTnFECP3lHB/saJ
QJpTIkBf+anBZpNsQM9ixj9W/57B99f+QH5O9ECj4pjBis/uQIDGDkGkto/BWIb8QAHAd8Cv5IPB
Qc7hQL85PsDfY47BewsQQfJIiD+P/ETBkawTQdjTFkBBn1jBseSoQAT7FMCdX4DB1q7MQAjgPsA4
2GzBxsotQZivRj+Hq2vBddskQX8aA79tvlnBPFBfQJ67ZEBXS5PBH8fFQDfwVkAXvZ7BCFGfQH4b
2j/hL43BgxBZQHDHo0CySIXBCfRTQOlRwkB73Y/BuHpgQAZIh0CiN6XBbbCqQH8oKEHJr67Bzcqw
QGnyEUEb6K/B2ke3QJFlMkEeJqXBG7fDQJv6BUH1m6fBN/7JQG5zJkH/05zBw6XZQAk3hj8yAKvB
A0SkQA/b7L5tZ6PB8IrnQHvOrL9qVKrBCILQQAg/EEFiDJ7B9yaxQDCzVz/xQqbBurz0QHT5Pb1X
C63B2Xu/QL1Ex782bqXBJiLDQClOvkBwwJPBmbv9QJE3lb8DY3HBQZbcQLS/+j/9dI7BjCmgQEvu
+0D2h4rB0+DfQNXY+b6Hg4rBmOAEQSNSjz/ALn/ByJeKQBCM2kA0aoPBTVOgQIpRn0ChOY/BIXzg
QHLfbT8SqYXBn8+UQN7HTMDaVYbB35k5QTxGZj9F91HBaE2UQL/NAUBa3KPBUEHkQLKWA0GO+JTB
kqe+QMxsacCO54DB0qEqQbz5pz4W5WLB3ivmQNNNPMD7uoXBxkcTQXSnAz9Gu1vBzX2LQCtWgkCo
2JfBFJypQCgTPUCwmZvB+5fEQCAy6UCdaZDBJ+vpQIqZwr8NcYLB4TQFQRZDKT5tlG3Bo/CzQOI3
CkCrQJLBoBp5QCUht0DJQorBubDfQKoasEBYd5nBjSICQVt4AcCduWPBLc77QHlFI0A+G5LBveV7
QHWrm0AyraDB/70NQTayHj5llLHBR3CzQOh5M8DyjaLBJFmcQMtWMUF0EbXBWvamQCsaCkHHM7fB
WpKyQEhqQ0EhOaTBYnPIQGzu6UDVjKjBhmHTQMFLLkEPf5XBb9fjQJcQA0BWD63BvYiFQO9OH7/g
qZ/BsCX8QJdADMBbAazBBaeIQPIfBEGyT5DBuNKrQOUvC0HfgYXBK92/QAF9L78s0I3BBcD3QIpC
Cr+q95DBepESQfxRcD+p7YTBwbkFQXlKCUAa33jBv3ShQMC/zkBq0XrBK6ddQO/U6ECXtH7BUm+v
QBqxikBNLYnBJlHFQBA0hD9zIIDBYDBzQB9kbsB/qYLBLsGQQC1VB8BOT4XB6DCWQO4iXMCi6o7B
oktKQaEARD9ZHFfBCEY2QYpZ/D+J10/BFwo3QRWTvz5nt0LBGnmOQLHEJUC6SKvBZVtrQPEG1T+8
pKDBCs//QMP49EAvBJjBmQfvQEyvDkGWsY7B89a8QL8pWsDMpnDBrUbCQMB7l8C67oHBYzMtQTR+
Wj9+JHLBc/ctQVZrPr9cBGXB0YoBQeeIXsBWG4PB3dHjQEUGP8AQgY7BiOcPQds6Eb6nA07BLJkQ
Qcnvxz8CF1fBKrFeQNo0ZkCfLpTBrbHGQFpWWUDWE5/B78SbQIpA3T/dTY7BC+JWQIi/okBl0YXB
EkFUQMgGw0AdFpDBMG5iQJnIiUDg7qXB3UKqQBvvJ0HuTa/BkW66QHGDMkE6NabBaYSsQLV0EUHF
BLDBPePMQDqlJkE/053BGSG/QMSMBUGup6fBpS3ZQJVagz9nsKrB1ZqkQCU8976lt6LB45nnQEYm
r7/Uz6nBYGfPQPMmEEHShJ7BPBGxQJ6hUT/KwaXBglz0QIg9iL3iuKzBjea/QDSLyb8euaTBKNjC
QE1ovkBYz5PBBMECQd7HgL/glW/B6OPeQOSwAEC0AI7B87OfQM11/EC9z4rB/8rrQDeCyr49MIrB
bqYFQbrZqj/tinzBvneKQAN620A3hIPB3oOgQO56n0B3DI/BTvPkQIKEfT/2MYXB2QK6QEqllcB0
iYXBC7o1QTwKKz8A+mHBiEiUQNjk/z9MR6PBlnPjQJitA0HeaJXBe97CQIzrT8BXr4HB8mEkQdtN
yT8zOljB0FjwQEAfNMA82YTBO9MOQQ6xUz/1LFbBzcKLQAWngUCyeZfBOxuqQEjLO0D/KpvBahjE
QEmG6UDDqpDBlLv2QDXosr97/4HBgfIGQdXPtD5RM2vB1MS1QILdCUCcxpHBxTp5QLdlt0DgKorB
nxffQDkesEAfm5nBRcEEQRx07L/Ob2HBemH9QCjIJkDz+JHBoj17QCFMmkBAYqDBdGkNQWDgCj7N
Z7HBxla0QDlKNMBQlaHBIyCcQJ4OMUEtvLXBvKm4QKy8Q0EOq6XBQ/qfQLNbCUFL+rbB4SbZQAPH
LkFv2JbBXPnAQJOp6ECpN6jBiv/iQBiKAUDu5qzBvB6GQFJXJL/m2Z7BmEL8QLdZDcBye6vBnv2H
QPwfBEHlm5DBa1erQNSnC0Hg64XBYzfOQESINL8rRI7BQgMDQa89rL6CCZDBuVcUQcwspj96G4PB
KbEDQW0CFkA60XXBYX2hQExX0EB18HrB0EZdQHDf6UAwA3/BRPuvQEOJi0AY6ojBuw/IQFCkdj8C
LIDBamWZQDMRn8AWNoPBiBG9QIwBl8ANTI7BsDfRQFmtq8DG3oHBydREQfUbnT9dN2PBohQ4QWUQ
Wb45r1fBqawwQUnQrj5LAXLB5MiNQESAI0CxsqrBI/NrQPAL0T/h5J/Bjeb+QMYJ9UDNeJjBbXTu
QGzsDkFtOY/BgYyrQAQbJMBfWoXBqbK/QJ9yTcAx2nHB5ZYpQTgM8z/UPkjB7C4iQSzxHEDlkGLB
xe0DQQjEW8AEkYDBpp/0QHZGPMATho3BjfkQQfh2I71DjkvBYecCQUs4wT++OE/Bn9BfQHi/ZECG
r5PBpbnGQL5aWEDG157BY02eQPlu2D9/y43B/31XQDI9o0DTmoXBOP9TQNqqwkBhCJDBRc9hQPjw
h0B3iqXB

>  <OMEGA_E>  (35) 
sOfnPgDf8T5mggA/0JkAP1QZAT8eTAY/

>  <OMEGA_NBR>  (35) 
     61011

$$$$
50147875
     RDKit          3D

 85 88  0  0  1  0  0  0  0  0999 V2000
    6.2373    9.4741  -22.4034 C   0  0  0  0  0  0  0  0  0  0  0  0
    7.4653    9.2776  -21.7391 C   0  0  0  0  0  0  0  0  0  0  0  0
    5.0235    9.3382  -21.7000 C   0  0  0  0  0  0  0  0  0  0  0  0
    7.4820    8.9494  -20.3697 C   0  0  0  0  0  0  0  0  0  0  0  0
    5.0379    9.0121  -20.3306 C   0  0  0  0  0  0  0  0  0  0  0  0
    6.7890   -0.0234  -16.6874 C   0  0  0  0  0  0  0  0  0  0  0  0
    8.3966    1.5657  -15.7634 C   0  0  0  0  0  0  0  0  0  0  0  0
    8.1168   -0.6208  -14.7282 C   0  0  0  0  0  0  0  0  0  0  0  0
    6.8010    1.1920  -21.3687 C   0  0  0  0  0  0  0  0  0  0  0  0
    5.0006   -0.3147  -20.6896 C   0  0  0  0  0  0  0  0  0  0  0  0
    7.1127   -1.2237  -21.5014 C   0  0  0  0  0  0  0  0  0  0  0  0
    7.4127    1.2429  -16.7237 C   0  0  0  0  0  0  0  0  0  0  0  0
    7.1532   -0.9591  -15.6983 C   0  0  0  0  0  0  0  0  0  0  0  0
    6.2684    8.8195  -19.6624 C   0  0  0  0  0  0  0  0  0  0  0  0
    8.7547    0.6330  -14.7725 C   0  0  0  0  0  0  0  0  0  0  0  0
    5.4934    0.9924  -20.8726 C   0  0  0  0  0  0  0  0  0  0  0  0
    7.6123    0.0832  -21.6740 C   0  0  0  0  0  0  0  0  0  0  0  0
    5.8054   -1.4204  -21.0119 C   0  0  0  0  0  0  0  0  0  0  0  0
    5.9808    5.9700  -18.3567 C   0  0  0  0  0  0  0  0  0  0  0  0
    7.0368    2.2216  -17.7530 C   0  0  0  0  0  0  0  0  0  0  0  0
    6.5248   -2.2869  -15.6604 C   0  0  0  0  0  0  0  0  0  0  0  0
    4.5101    7.0878  -16.9573 C   0  0  0  0  0  0  0  0  0  0  0  0
    4.9612    4.9643  -17.7861 C   0  0  2  0  0  0  0  0  0  0  0  0
    9.7704    1.0058  -13.7168 C   0  0  0  0  0  0  0  0  0  0  0  0
    3.8388   -3.3729  -17.4647 C   0  0  0  0  0  0  0  0  0  0  0  0
    9.4744   -4.2821  -17.0305 C   0  0  0  0  0  0  0  0  0  0  0  0
    4.6272    2.1725  -20.4972 C   0  0  0  0  0  0  0  0  0  0  0  0
    6.2800    8.4683  -18.1932 C   0  0  0  0  0  0  0  0  0  0  0  0
    4.8191   -4.5384  -17.6910 C   0  0  0  0  0  0  0  0  0  0  0  0
    8.5461   -4.0202  -18.2311 C   0  0  0  0  0  0  0  0  0  0  0  0
    5.9633   -4.5225  -16.6625 C   0  0  0  0  0  0  0  0  0  0  0  0
    7.5237   -2.9178  -17.9042 C   0  0  0  0  0  0  0  0  0  0  0  0
    4.3124    4.0572  -18.8494 C   0  0  2  0  0  0  0  0  0  0  0  0
    5.3067    3.0262  -19.4097 C   0  0  1  0  0  0  0  0  0  0  0  0
    5.5338    7.2302  -17.9832 N   0  0  0  0  0  0  0  0  0  0  0  0
    5.7709    2.1511  -18.3218 N   0  0  0  0  0  0  0  0  0  0  0  0
    6.7069   -3.2320  -16.6942 N   0  0  0  0  0  0  0  0  0  0  0  0
    3.8953    5.7888  -17.2053 N   0  0  0  0  0  0  0  0  0  0  0  0
    6.9561    5.7333  -19.0608 O   0  0  0  0  0  0  0  0  0  0  0  0
    7.8347    3.0904  -18.0870 O   0  0  0  0  0  0  0  0  0  0  0  0
    5.8775   -2.5699  -14.6582 O   0  0  0  0  0  0  0  0  0  0  0  0
    3.7889    4.8584  -19.9101 O   0  0  0  0  0  0  0  0  0  0  0  0
    8.8720    0.2730  -22.1275 F   0  0  0  0  0  0  0  0  0  0  0  0
    5.3249   -2.6713  -20.8371 F   0  0  0  0  0  0  0  0  0  0  0  0
    6.2267    9.7293  -23.4527 H   0  0  0  0  0  0  0  0  0  0  0  0
    8.3941    9.3788  -22.2810 H   0  0  0  0  0  0  0  0  0  0  0  0
    4.0833    9.4840  -22.2111 H   0  0  0  0  0  0  0  0  0  0  0  0
    8.4228    8.7974  -19.8615 H   0  0  0  0  0  0  0  0  0  0  0  0
    4.1084    8.9090  -19.7904 H   0  0  0  0  0  0  0  0  0  0  0  0
    6.0335   -0.2748  -17.4169 H   0  0  0  0  0  0  0  0  0  0  0  0
    8.8763    2.5329  -15.7897 H   0  0  0  0  0  0  0  0  0  0  0  0
    8.3667   -1.3252  -13.9486 H   0  0  0  0  0  0  0  0  0  0  0  0
    7.1774    2.1938  -21.5136 H   0  0  0  0  0  0  0  0  0  0  0  0
    4.0043   -0.4668  -20.3017 H   0  0  0  0  0  0  0  0  0  0  0  0
    7.7317   -2.0747  -21.7443 H   0  0  0  0  0  0  0  0  0  0  0  0
    4.9626    7.1149  -15.9550 H   0  0  0  0  0  0  0  0  0  0  0  0
    3.7632    7.8906  -17.0442 H   0  0  0  0  0  0  0  0  0  0  0  0
    5.4415    4.3462  -17.0133 H   0  0  0  0  0  0  0  0  0  0  0  0
    9.2582    1.4756  -12.8642 H   0  0  0  0  0  0  0  0  0  0  0  0
   10.2942    0.1005  -13.3762 H   0  0  0  0  0  0  0  0  0  0  0  0
   10.4983    1.7125  -14.1418 H   0  0  0  0  0  0  0  0  0  0  0  0
    3.0367   -3.4166  -18.2161 H   0  0  0  0  0  0  0  0  0  0  0  0
    3.4025   -3.4512  -16.4579 H   0  0  0  0  0  0  0  0  0  0  0  0
    4.3769   -2.4181  -17.5579 H   0  0  0  0  0  0  0  0  0  0  0  0
   10.1945   -5.0725  -17.2887 H   0  0  0  0  0  0  0  0  0  0  0  0
   10.0176   -3.3593  -16.7790 H   0  0  0  0  0  0  0  0  0  0  0  0
    8.8741   -4.6015  -16.1658 H   0  0  0  0  0  0  0  0  0  0  0  0
    4.4573    2.7933  -21.3893 H   0  0  0  0  0  0  0  0  0  0  0  0
    3.6625    1.8052  -20.1170 H   0  0  0  0  0  0  0  0  0  0  0  0
    7.3185    8.3323  -17.8569 H   0  0  0  0  0  0  0  0  0  0  0  0
    5.8118    9.2808  -17.6182 H   0  0  0  0  0  0  0  0  0  0  0  0
    4.2715   -5.4882  -17.6014 H   0  0  0  0  0  0  0  0  0  0  0  0
    5.2458   -4.4551  -18.7014 H   0  0  0  0  0  0  0  0  0  0  0  0
    9.1523   -3.7051  -19.0931 H   0  0  0  0  0  0  0  0  0  0  0  0
    8.0088   -4.9473  -18.4799 H   0  0  0  0  0  0  0  0  0  0  0  0
    5.5421   -4.6679  -15.6568 H   0  0  0  0  0  0  0  0  0  0  0  0
    6.6602   -5.3424  -16.8903 H   0  0  0  0  0  0  0  0  0  0  0  0
    8.0650   -1.9763  -17.7290 H   0  0  0  0  0  0  0  0  0  0  0  0
    6.8481   -2.7978  -18.7638 H   0  0  0  0  0  0  0  0  0  0  0  0
    3.4901    3.5074  -18.3682 H   0  0  0  0  0  0  0  0  0  0  0  0
    6.1615    3.5573  -19.8539 H   0  0  0  0  0  0  0  0  0  0  0  0
    5.1363    1.4630  -17.9700 H   0  0  0  0  0  0  0  0  0  0  0  0
    3.5673    5.3870  -16.3504 H   0  0  0  0  0  0  0  0  0  0  0  0
    3.1326    5.8783  -17.8458 H   0  0  0  0  0  0  0  0  0  0  0  0
    3.3895    4.2970  -20.5642 H   0  0  0  0  0  0  0  0  0  0  0  0
  1  2  2  0
  1  3  1  0
  2  4  1  0
  3  5  2  0
  4 14  2  0
  5 14  1  0
  6 12  2  0
  6 13  1  0
  7 12  1  0
  7 15  2  0
  8 13  2  0
  8 15  1  0
  9 16  2  0
  9 17  1  0
 10 16  1  0
 10 18  2  0
 11 17  2  0
 11 18  1  0
 12 20  1  0
 13 21  1  0
 14 28  1  0
 15 24  1  0
 16 27  1  0
 17 43  1  0
 18 44  1  0
 19 23  1  0
 19 35  1  0
 19 39  2  0
 20 36  1  0
 20 40  2  0
 21 37  1  0
 21 41  2  0
 22 35  1  0
 22 38  1  0
 23 33  1  0
 23 38  1  0
 25 29  1  0
 26 30  1  0
 27 34  1  0
 28 35  1  0
 29 31  1  0
 30 32  1  0
 31 37  1  0
 32 37  1  0
 33 34  1  0
 33 42  1  0
 34 36  1  0
  1 45  1  0
  2 46  1  0
  3 47  1  0
  4 48  1  0
  5 49  1  0
  6 50  1  0
  7 51  1  0
  8 52  1  0
  9 53  1  0
 10 54  1  0
 11 55  1  0
 22 56  1  0
 22 57  1  0
 23 58  1  1
 24 59  1  0
 24 60  1  0
 24 61  1  0
 25 62  1  0
 25 63  1  0
 25 64  1  0
 26 65  1  0
 26 66  1  0
 26 67  1  0
 27 68  1  0
 27 69  1  0
 28 70  1  0
 28 71  1  0
 29 72  1  0
 29 73  1  0
 30 74  1  0
 30 75  1  0
 31 76  1  0
 31 77  1  0
 32 78  1  0
 32 79  1  0
 33 80  1  1
 34 81  1  6
 36 82  1  0
 38 83  1  0
 38 84  1  0
 42 85  1  0
M  CHG  1  38   1
M  END
>  <OMEGA_C>  (36) 
2ZfHQAKWF0EXOrPBAeTuQOtwFEG16a3BHsCgQBZpFUGuma3BPWzvQMEwD0ES9aLBTDahQGkxEEEJ
paLB2j/ZQFrHv7y2f4XBSFgGQR9pyD/0NnzBdN4BQSTtHr+hpmvBeqHZQGeTmD8y86rBNgWgQKkh
ob5khKXB2ZrjQNqinL/RAqzB+TTtQLwVnz87yoXBKefkQFuFdb8+LHvBdpbIQIocDUGsTJ3BLRMM
QewMIj8pXGzBy8mvQP4Ofj8k+6bBTpjzQGVVqj1HZK3B2MW5QNvPtb9cGKjB62K/QKIKv0Bt2pLB
Hy3hQLcuDkAVBo7B98rQQNlcEsAlkXrBG1OQQPzO4kCBqIfB38GeQIjbnkDsSY7BgVMcQRu+gD/3
d1vB5651QBTeV8Cpt4vBB5cXQVwHicBePojBqBGUQFgKC0BX+qPBDfbIQFN+B0HGi5HBzDWaQJ06
kcA3h43BrrwIQdKlgMAz2ZHBQtO+QAO4kMDmTIXBhsLwQGy8OsCzO4/BWf+JQH/UgUCly5bBUNCp
QNatQUAdR5vB1BSxQN5d50CP3Y/Bhau4QGyrCUABk5LBO5/WQNPYTsCfjYXBT015QA0+uUCBpInB
r5jeQFF3t0CVfJjBHrb6QIHJRUAvspDBPRS8QMx5JMD7h2rB4HxyQFV4m0DeR5/BuPMNQVXBiz4z
BbHBQ2WqQLr2KsB3sqbBPUHHQBOrG0E2n7vBFk4GQWYPFkFzP7LBQKqCQFy+F0FnsLHBoMMGQSnC
DEFr5J7B1neDQGqLDkG1Up7BFhLBQBuwjL7pVYvBUgUOQdYbIkB1onzBI94FQVCfqb9QLV/BWK3l
QAVoDEDaG6zBCiOAQKwB777LaaLBOmr3QK/HBMBT9K3B7M2eQNys40DER3/BpddwQG1//EBtWojB
+SCuQF0Ui0AvG4jBtiEUQTDhvD+g003B4rQkQau9zT3SBFbBFvknQewz2z/8RGLBBFlCQBSpWsCq
upHBHsNZQBrgXMDVqYPBRw+MQFzBGsChdozBrhwjQVNSosA1T4rBA0ggQX3+VsBWO4bBKPwNQTg/
k8CDU4HB/qGOQBXGMkA0HavBtWZqQD8S5z+T76DB7TDqQPxQBUHs2o7Bnvq5QE1+FEEi8ozBDrCI
QHGfr8C/z4zBxt2nQBKQjsCLnJXB/W8SQaggbcCsvpjBIiQAQU1QnsDa1pPBJ1mxQJBflcBfgnrB
vCDVQE71qsBgH4fBCgoBQcP1/L8E1Y3BQyPbQGgPM8BVHJbBSF5fQKp5YEAO8pLBnirFQFerY0DM
1J7BLlykQKlEuz+Lwo/BW09kQOxhrECYzYLBX3xIQPQavEAxxI7BT+5YQGyBiUCEg6TB41PDQPCK
GEEUYLPBOirrQEOJFUFqTK7Bkw2dQCYDFkHQi63B5czsQHQOEEHmYKPBe52eQCOOEEHBoKLBGXbd
QOQz2r1/H4XBGWUIQSsVxj/pU33B210FQbLcGb9nTWvB0QDaQKSbmz81HqvBgjuhQPUWn77yeqXB
ZB3lQNsPmb8g/avBU5HwQBlBlj/vAYbBJ6jqQLcsfb8Hx3nBfIbGQJ+WDUFyhp3Bg60OQXWKLD/w
3WzBGWGwQAIngD81EafB3G/0QLz/7j0QgK3B1Hi7QBsttL8jAKjBJ9C/QD86v0B46JLBZ9XiQAJM
CUBOPo7BIznTQAIMD8Bux3XBwsiPQFwH40Cp7YfB+fafQHSankBALo7BjLgfQbi0jD/0Il3Bzj9r
QAnaicCz74/By4sXQU36ccAbepbB3KCUQFr4CkCU6qPB/hDIQGS5B0Fa0ZHBaWGXQKPeWcBB8YrB
ZLQCQW3OUcAOiJHBVzC2QGiQh8CL7oPBSEQCQRrmasAErIXBRwSLQKlLgUCumJbBDI6qQPvuP0D9
FZvB/72wQFOB50BoFpDB2qe5QBAgBkDWeZLBlqXaQNUZWcAf3IDBMDR7QHR0uEDrcYnBVQ/fQPXN
t0DTipjBUHj7QJh+QkAN7pDB0XW1QDOzDMBpBWnBKZ90QBv6mkBUGZ/BsEwOQbj1pD6gK7HBmLqs
QCSDKsC3hKbBZSPCQLPKHEGovrvBWDkEQeJvF0GkybLBAh19QBVCGEHqc7HBfqgFQTO/DUGjfZ/B
6E6BQLiiDkGIJp7Bk+zEQP1V0b7DtIrBBfYPQeLqIEBxw37BhIsKQftTpL+09F7B6ITlQG0uDkBv
YqzBG3qBQPJe8r43VKLBBU35QLSJAsBm463BuuCdQLbg5UDFyn/Bt/dtQNao+0Dn94jBf/yvQLEZ
i0D9C4jB7ioYQfr8yz/4WE/B+5soQc+JWz6YoVfBic0qQRJR5j84+mTBPss/QNcfbcB055TB61uF
QNMnosD28JTBqndGQEm9mcAHkonB6AwYQfhZYMAy/p7BkzQlQd7AVMCtTJLBymYYQWkCnMALs5XB
mTiPQKHTM0BA9KrBenxrQCsp5j+w7qDB35PpQMapBUFqVI/BWEG5QEaOFEE6EY3Btq2pQPQZOsBY
U5HBn42HQOBEKcBo9IXB89ABQfjAC8CBSJLBUwbqQOwEb8DfrpXBW1ylQHOVksCha3nBM7LBQKVm
o8A1fIjBALMFQUbal8BK84TBDpYOQa8sRsAoYYHBhkhhQDr0X0ARspLBwhDGQJK+YUDvlp7BRkCl
QLhdtT/lj4/BDgRpQCwXrEDfbILBzuFIQLvDuUCLYI7BvbZaQPAIiUBKT6TB

>  <OMEGA_E>  (36) 
gMzXPJRSmj4=

>  <OMEGA_NBR>  (36) 
      2973

$$$$
50147883
     RDKit          3D

 70 73  0  0  1  0  0  0  0  0999 V2000
    5.4984    9.4501  -22.4985 C   0  0  0  0  0  0  0  0  0  0  0  0
    6.8306    9.2281  -22.0942 C   0  0  0  0  0  0  0  0  0  0  0  0
    4.4520    9.3689  -21.5581 C   0  0  0  0  0  0  0  0  0  0  0  0
    7.1175    8.9205  -20.7499 C   0  0  0  0  0  0  0  0  0  0  0  0
    4.7369    9.0664  -20.2134 C   0  0  0  0  0  0  0  0  0  0  0  0
    6.7612    1.2450  -21.3649 C   0  0  0  0  0  0  0  0  0  0  0  0
    5.2639   -0.3685  -20.3039 C   0  0  0  0  0  0  0  0  0  0  0  0
    7.3272   -1.1258  -21.3619 C   0  0  0  0  0  0  0  0  0  0  0  0
    6.0707    8.8396  -19.8070 C   0  0  0  0  0  0  0  0  0  0  0  0
    5.5757    0.9599  -20.6588 C   0  0  0  0  0  0  0  0  0  0  0  0
    7.6369    0.2035  -21.7143 C   0  0  0  0  0  0  0  0  0  0  0  0
    6.1420   -1.4107  -20.6535 C   0  0  0  0  0  0  0  0  0  0  0  0
    6.5131   -1.1896  -15.5400 C   0  0  0  0  0  0  0  0  0  0  0  0
    6.0519    5.9886  -18.3425 C   0  0  0  0  0  0  0  0  0  0  0  0
    7.0017    1.9194  -17.5484 C   0  0  0  0  0  0  0  0  0  0  0  0
    6.0332   -0.1165  -16.4795 C   0  0  0  0  0  0  0  0  0  0  0  0
    8.3397    0.2047  -16.0945 C   0  0  0  0  0  0  0  0  0  0  0  0
    4.5318    7.2324  -17.0759 C   0  0  0  0  0  0  0  0  0  0  0  0
    5.0106    5.0408  -17.7285 C   0  0  2  0  0  0  0  0  0  0  0  0
    7.0566    0.9936  -16.3195 C   0  0  1  0  0  0  0  0  0  0  0  0
    9.4982   -4.1503  -17.0274 C   0  0  0  0  0  0  0  0  0  0  0  0
    4.6712    2.0864  -20.2404 C   0  0  0  0  0  0  0  0  0  0  0  0
    6.3699    8.4962  -18.3673 C   0  0  0  0  0  0  0  0  0  0  0  0
    8.5112   -2.9933  -16.8715 C   0  0  0  0  0  0  0  0  0  0  0  0
    8.7372   -2.2699  -15.5160 C   0  0  0  0  0  0  0  0  0  0  0  0
    4.3827    4.0842  -18.7540 C   0  0  2  0  0  0  0  0  0  0  0  0
    5.3721    2.9938  -19.2051 C   0  0  1  0  0  0  0  0  0  0  0  0
    7.9048   -1.0658  -15.4508 N   0  0  0  0  0  0  0  0  0  0  0  0
    5.6591    7.2734  -18.0024 N   0  0  0  0  0  0  0  0  0  0  0  0
    5.7248    2.2047  -18.0237 N   0  0  0  0  0  0  0  0  0  0  0  0
    3.9371    5.9065  -17.2239 N   0  0  0  0  0  0  0  0  0  0  0  0
    5.8493   -2.1724  -15.2311 O   0  0  0  0  0  0  0  0  0  0  0  0
    7.0047    5.6917  -19.0548 O   0  0  0  0  0  0  0  0  0  0  0  0
    8.0107    2.4384  -18.0160 O   0  0  0  0  0  0  0  0  0  0  0  0
    3.9071    4.8291  -19.8767 O   0  0  0  0  0  0  0  0  0  0  0  0
    8.7820    0.4839  -22.3751 F   0  0  0  0  0  0  0  0  0  0  0  0
    5.8594   -2.6810  -20.2879 F   0  0  0  0  0  0  0  0  0  0  0  0
    5.2795    9.6825  -23.5302 H   0  0  0  0  0  0  0  0  0  0  0  0
    7.6316    9.2941  -22.8156 H   0  0  0  0  0  0  0  0  0  0  0  0
    3.4318    9.5389  -21.8691 H   0  0  0  0  0  0  0  0  0  0  0  0
    8.1377    8.7466  -20.4411 H   0  0  0  0  0  0  0  0  0  0  0  0
    3.9355    9.0076  -19.4919 H   0  0  0  0  0  0  0  0  0  0  0  0
    6.9965    2.2633  -21.6372 H   0  0  0  0  0  0  0  0  0  0  0  0
    4.3534   -0.5855  -19.7651 H   0  0  0  0  0  0  0  0  0  0  0  0
    7.9984   -1.9267  -21.6348 H   0  0  0  0  0  0  0  0  0  0  0  0
    6.0135   -0.4841  -17.5161 H   0  0  0  0  0  0  0  0  0  0  0  0
    5.0296    0.2325  -16.1950 H   0  0  0  0  0  0  0  0  0  0  0  0
    8.8409    0.0007  -17.0522 H   0  0  0  0  0  0  0  0  0  0  0  0
    9.0229    0.7584  -15.4338 H   0  0  0  0  0  0  0  0  0  0  0  0
    4.8801    7.3820  -16.0433 H   0  0  0  0  0  0  0  0  0  0  0  0
    3.7982    8.0110  -17.3319 H   0  0  0  0  0  0  0  0  0  0  0  0
    5.4661    4.4646  -16.9097 H   0  0  0  0  0  0  0  0  0  0  0  0
    6.8246    1.5779  -15.4169 H   0  0  0  0  0  0  0  0  0  0  0  0
    9.3262   -4.6524  -17.9908 H   0  0  0  0  0  0  0  0  0  0  0  0
   10.5267   -3.7615  -16.9951 H   0  0  0  0  0  0  0  0  0  0  0  0
    9.3523   -4.8695  -16.2080 H   0  0  0  0  0  0  0  0  0  0  0  0
    4.4069    2.6847  -21.1248 H   0  0  0  0  0  0  0  0  0  0  0  0
    3.7568    1.6685  -19.7939 H   0  0  0  0  0  0  0  0  0  0  0  0
    7.4520    8.3424  -18.2439 H   0  0  0  0  0  0  0  0  0  0  0  0
    6.0402    9.3201  -17.7173 H   0  0  0  0  0  0  0  0  0  0  0  0
    8.6586   -2.2776  -17.6936 H   0  0  0  0  0  0  0  0  0  0  0  0
    7.4841   -3.3856  -16.9065 H   0  0  0  0  0  0  0  0  0  0  0  0
    8.4664   -2.9461  -14.6917 H   0  0  0  0  0  0  0  0  0  0  0  0
    9.7963   -1.9870  -15.4252 H   0  0  0  0  0  0  0  0  0  0  0  0
    3.5325    3.5833  -18.2679 H   0  0  0  0  0  0  0  0  0  0  0  0
    6.2638    3.4563  -19.6536 H   0  0  0  0  0  0  0  0  0  0  0  0
    4.9619    1.8278  -17.4985 H   0  0  0  0  0  0  0  0  0  0  0  0
    3.6065    5.5726  -16.3411 H   0  0  0  0  0  0  0  0  0  0  0  0
    3.1784    5.9357  -17.8746 H   0  0  0  0  0  0  0  0  0  0  0  0
    3.5193    4.2361  -20.5095 H   0  0  0  0  0  0  0  0  0  0  0  0
  1  2  2  0
  1  3  1  0
  2  4  1  0
  3  5  2  0
  4  9  2  0
  5  9  1  0
  6 10  2  0
  6 11  1  0
  7 10  1  0
  7 12  2  0
  8 11  2  0
  8 12  1  0
  9 23  1  0
 10 22  1  0
 11 36  1  0
 12 37  1  0
 13 16  1  0
 13 28  1  0
 13 32  2  0
 14 19  1  0
 14 29  1  0
 14 33  2  0
 15 20  1  0
 15 30  1  0
 15 34  2  0
 16 20  1  0
 17 20  1  0
 17 28  1  0
 18 29  1  0
 18 31  1  0
 19 26  1  0
 19 31  1  0
 21 24  1  0
 22 27  1  0
 23 29  1  0
 24 25  1  0
 25 28  1  0
 26 27  1  0
 26 35  1  0
 27 30  1  0
  1 38  1  0
  2 39  1  0
  3 40  1  0
  4 41  1  0
  5 42  1  0
  6 43  1  0
  7 44  1  0
  8 45  1  0
 16 46  1  0
 16 47  1  0
 17 48  1  0
 17 49  1  0
 18 50  1  0
 18 51  1  0
 19 52  1  1
 20 53  1  1
 21 54  1  0
 21 55  1  0
 21 56  1  0
 22 57  1  0
 22 58  1  0
 23 59  1  0
 23 60  1  0
 24 61  1  0
 24 62  1  0
 25 63  1  0
 25 64  1  0
 26 65  1  1
 27 66  1  6
 30 67  1  0
 31 68  1  0
 31 69  1  0
 35 70  1  0
M  CHG  1  31   1
M  END
>  <OMEGA_C>  (37) 
/PKvQHYzF0Ht/LPB4ZPaQH6mE0HiwLDBf3aOQDbnFUEBd6zBT8LjQDK6DkHI/6XB9JSXQAEQEUEV
taHB4VvYQLZdnz8/66rB3HGoQCKsvL5vbqLBvnjqQDAbkL815arBUEPCQO1uDUHMdJ7B3GuyQBK6
dT8zRaXBu2H0QNRiUD7wtq3BpIvEQM6QtL9rOqXBHWvQQNZFmL/Lo3jBNKnBQH2iv0BxvZLBxw3g
QDKu9T83Y4zBPhDBQNiT7r391YPBgm8FQaSSUT6JwYDBsQSRQKpv50CKm4jBF1egQGhOoUD8043B
jM/hQGdafj9YjoLB1PgXQQHPhMAHOIjBH3qVQByHBUBj7KHB39XLQGDwB0El8JLB+i0IQQCTP8DB
+IbBqssLQYxGEcBtQXjBBz+MQGOxgkA9CJbBieirQOiaP0AOpJnBOPT8QP5qiL9mNnfBnxe1QNq/
6EDbBJDBkTG3QAwaDUCRMJDBLvp7QLwBvUB8yonBLS27QD8JC8CKsnPBUCbgQIUitkAucJjBASwA
QQAPHEC/IJDBIA56QOCHmkBqA5/BD4MMQYi89z4hALPBKIC7QCmVK8CnTaLB+/GoQKTrGkHlPbzB
CDb0QJa0FEFChrbBIKJbQC+fGEH4867B6jMCQRPyC0Fdh6PBvt57QEcfEEFk75vBZOPfQFXaEEDp
GK3B/U6LQC/kFb8DH57BMfP/QLKe9r8ZFK3BSm7AQBra977kIIzBkPKgQNEbbj5jj4HBN3QNQRcp
Ozr6aojB+F0QQVcpQj/N8HbBuCmcQIQ57EC5WIDBxBVzQBwtAEHTp4rBq+quQDnejkD+RofB1GLa
QNz3yT+Aq3bBNTgVQW3glMA37Y/BjW0oQRy8cMAM9ofBEaMVQRXTm8DwqYHBbwWNQOPSK0CX/6jB
329wQDeR1T/qWZ7BG3fuQFl6BUF385HBDknBQEkfFUEXvY3Bf4kKQYnDEcCHjI3BBX7vQJitWMBq
QIfBZXYHQWOMPMAIEWvByr0cQSNW/r/KzXbBHBRiQGlVZUCoJJLBxHDIQHgzXUCTOp3BgseeQNf2
6T/d/IvBC9FmQN5SskCjuoLBGGtLQDzxvUA2/47BejxhQOWNh0BoE6TBsAnBQFHbFkEkD7XBw6zo
QJLKFEE4xa/B6oaaQGpEFEFZVa/Bc97pQJc4EEHrvaTBQKebQGO4D0EHTqTBOAHeQJd2nD/YhqrB
LfWlQKWOmL5rWaTBCq7oQIx1mL+veavBwFzDQGi9DUFC/J7Bpgu1QL1cgT+jGKbBB9T3QMwf9T2W
M63BqsG/QCrrsr8jB6fBpwUCQR8p8r7OH3DBHky/QM++wUCsIZPBgwXlQNt1CkD3eozBFukCQdx3
fD8f/XfBOhHcQE22qL65w4fBvHKOQOa85UAUhYjBmZqgQL8WoUAh+Y3B6IH5QASTYj9VwYfBt9UG
QdQSZ8CV7YzBsIuZQEt1C0CS86LBNXrEQOgaCUE+IZPBtCfgQFhXX8A+QYjBxW3fQBohJ8BqHnzB
AmWNQLVdgUAcAZbBCmyuQBCOQEBY7JnBoL7vQMMyn78e+n/BjG+uQOzt6UAV7pDB3mK8QHQeB0CZ
I5HB7Cd6QFK8ukCfvYnBZ+sIQRJ7Xr/J5V7BhpHeQM81ukDrv5jBj6D6QDzSS0B++YzBEKF4QA/W
mECs4Z7BhKIPQZ1yoz7KWLHBcVyxQEWuKcBRMqXB1C7AQJttGkGIgr3BdBIDQSy3FkEhLrTBT194
QPbEFUHNZrPBQh4EQRieDkEisqDBuVN8QNC+DUG/6J/Bl37pQIuKDkA23KvB/pSGQJpF6b4U9KDB
LXT8QMBmAsAlkK3BPefuQBmIzj9oLG/BlR0TQbw6sz/+LXbB2Iu7QCDGTb3EPoXBh9LaQGkQSr+5
wI/BP02dQLqE6UAOmYDBnS1qQCDR/UBVhonBOhSxQI62j0DdhYfBgSkLQTxPJT+jbozB32wGQaiv
h8AJJJTB29QMQRgMJ8BrBo/B6nsRQdcmgsAq84bBp8uUQAnJNEDW+anBMsR0QBQH5z8nKaDB4vDl
QHfkB0Hed5DB8H60QBwoFkGSyI7BIBPLQFtrQsDpTY7BPmHUQHjWj8CoOobBykG+QD2xIsAXVnbB
2G3zQKi+RcDO0m/BR79mQHvoX0CV+5HB5UjKQI2rYkAUM53BIJqnQAxRtz8QZ47BsMVmQDVAr0CB
rYLBZf5IQNvMukDd3I7BhqBgQJF5hUAV6qPBkAG4QFy0FUFvzrTBNELhQPTzEkGsd7DBXLSTQG3S
E0EcL67Blz7mQPxSDkFbgqXBCqOYQNlOD0F4NaPBGHjeQCnTlz9cfqrBN2+pQGbcsL6DBKPBePzt
QPL1mb+8aKnBIfnBQJt+DEEh1Z7BaI61QEXfdj/qBabBfYT6QDgV1T3AOKzBJ57FQOqetr8ZuaTB
txbnQLZhib/1K3/BeV/BQB3Tv0DPqJLBI9nbQK25CkAgkY3BCb/PQGz+Qr7VlYfBtlsEQacpfz9d
33/BUMCGQBiN5UCcSYzB/kSgQAy1n0A3Vo7BVCPdQEy6mz8FVITBVYorQexoDb5dUkjBbYGXQAgl
CUC0+aPBQNPHQFovCEFM+JLBeBIaQVdqxj4EA1fB2CgSQa3zPr8juGXBL66KQLM8hECsLpfBrGSq
QEQGRUDEYpvB8IIBQZQsdr4OvnPBJYCzQDM86EBenY/BqJO0QLlJEECMTpLB49h/QKlpuUAUxYjB
je/iQH9pEsC8m33BcM7hQIKot0AqyZfB6B76QG0SOUCj9Y/BQiZ3QChHnkCGtZ/BG8kQQcLtoz6j
jLDB0jC6QFZXK8D7vKHBTDW0QLpBGUFYNb3BdhH9QMdkFEHci7XBDSxoQBnXFUHehbHBWPECQUcr
DEGINKLB3pd5QMz+DUG/IZ7B20boQCcHDEC/l6zBroaKQIuvBL91aJ/BIaoBQcQdAsB72KrBs+rZ
QNYO1L5N0Y/B9+GsQFKBor6664bBRjMQQXLgXj8iXobBGkQJQcvF6T/NaHXBCYmAQMPl+0ARq4XB
BAVjQEgr7UCRCpPBTC+wQDEqikBzoIjBOMXHQJnFyT/E6HvBPCgxQUhJLD/h1z3BTCAlQSovdb/k
fT7Bxfo4QVehAr8/AFLB/ReTQBEtLUBgdKvBDsVwQGie4T9hNaHBIEXqQKpCB0F/N5HBHY+5QBV2
FUHXbI7BWaQMQTWKQj92Uk3B0X4gQQSMmj/Q1GDBXJYfQVhNj79gZm/Bk7QLQUpbyL/e6FvBwyJf
QNF7ZkABhJPBviDHQKvlZEDGip7B4vycQICi2T/cNo/BuL6DQHMbt0AY2YDBbQZFQKadr0AawYrB
fRldQAzAjEAS/6TBAtvKQOaQG0HGIbPBoYXxQJ3rF0Fdna3BIV+jQH3cGEGM2a3Bq8TwQBmQEUFW
z6LBXY2iQJuKEkEwCqPBmdbhQDDHpz9XfKvBWA+mQAzNI77n7qbB34/oQIwIjb93xK3BaUvJQOjV
DkG4gp3B5tm3QBemkD9VrafBAyH6QKayRj68lq7Bd36+QIRzo78K7anB20/RQCSA2L9ykXfBLS2/
QOdIwEDX85LBkPnZQHyhwz+LzovBNb7dQNbKTb7JrHjB22nLQDiCgr9tso3BsvqMQLOd5UCF44jB
VI+fQL0+oECK1Y3BNqvlQFs8mT1cNIjBxuMIQVGWfMA9UIzBmkmeQOj7E0ByGaTBYXbIQIJJCEHr
45HB+zrkQAcbg8A38ZDB3sLBQASIYsDbSInBlXuNQAbffUCxrJXBN8uuQAzCOUDEXpnBIbfLQF2h
CcD3PYbB6eavQNIS6UB8j5DBiwm0QAAE5j+vbpHBGpp2QCHcukA+XIrB8OzLQCHFFcCcJ2fBueTe
QPT2t0CfVpjBEzPzQEbMG0Cn1InBlld4QGr6lUAPoZ7BpDIRQb4BvD7FR7LBl+etQBIaIcBr0ajB
z3zLQH9wIEFxa7vBLd4HQUgBGkGErbHBl8aFQEqiG0EmF7LBEjIHQenGDkFSlZ7B2FKEQMyGEEGM
+Z7BNlHvQDtkE0AnBazBKbiFQHtklL7NEaTBplr7QEX5+r9cFbDBr5TDQFkA3D5Gm3LBmOj6QOcv
OryrTG/BgniqQEDfLL/NHo/B/jDaQCH/pr/1WZXBqguZQIqC6UDwrYDBf/JoQOoK/kCPgYrBereu
QLAnkEBW/IbBcd8DQVAOw72o8InB3JYUQRxgi8A1BJLBtVAMQY9xOMCp6orBQf4JQWDZj8C7tITB
KiagQAPYRUBmS6rBAIx5QFAiAEDtDqPBVG3pQCisBUFNGI/Bt4u5QM4VFUFJI43B1HbiQHg/Y8BI
kZjB69HdQFRApcBaW5LB13SiQLA7ZMB/TY3Bip3AQNw0hcDcCYLBr9JmQNOvW0CPlpHB+L3NQGpu
WUDnv5rB3sqaQN6fmj+3B5DBPmdeQPDYr0AmfIPBO9FIQJAsu0Aa84/BNlVhQF1OgkC9qKPBIR/B
QFBQFkFdsbPBr2fpQLB7EkHrAK/BYLabQMT3FEH8bq3BnU7sQAtJDUGgD6TBJJSeQHP1D0E7d6LB
0ULdQKpumj/BTarB3X+nQGX3rr5sZKPBpeLsQBxel7+AUanBge3GQMIKDEE4vZ3Bq9KzQLTfeD/5
J6bB0bH5QFzWBD7K4qvB1+XDQApbtb+kA6XB6wT2QI4MV78qj3vBtm3AQBIjvkDSPZLBTUvbQCbp
CUD86I3BKA3aQBSfJ77jIIbBQ6kGQRjgsj9ao37Bq8OGQIC65UDyI4zB2KidQJzqnkB8Ro7BGIjg
QDjVqD/m5oPBxSICQc0DpL4YAkfBfV2VQMe8CEDVEqTBeZjKQBAjB0Fc35HBstAVQZsw2D5dzE/B
AeAbQXwR+71U8mXBNHWIQGQAhECPSpfBadynQPpVQ0CvVZvB6XIKQTb2yD3SEHXBKyi0QO+45kDo
647BTd6yQK8zDkClKpLBDIJ6QJiXuUDmA4nBu/3yQI7mAMAuKXbBcyXhQME8tUBLLJfB2er4QIdi
NEBckpHB2kJ2QD2+nkC045/Bca0QQQWftT5v1K/Bze63QOQSK8DaWKLBq+q+QPdHGkF9FbzBGQkD
QViIE0EPzbPByKV5QArHF0GUC7HBDpkFQT8+CkEsf6DBRueBQDIcD0FtqZ3BECTnQEaSDUAtQ6zB
sjSIQP7gBb9GBqDBqT4BQVqSAMBipqrBbpvkQJwQ2L7hQ47Bwki4QD8a5b4KHoXBK2ISQUovzD+O
sIXB6acHQWcmDECXeHLBe0uAQKKk+0BNcoXBV2pmQMoE70AvFJPBwwasQGDwiEARaojB1FXJQPke
0z/LqnvBKf77QIFspT3EJjfBKBrpQGqKOL6i+FHBhcgFQUtMsr+KnkXBgiKRQNWrLUCBfavBlm1s
QCFX3z/fbqHBn6TsQKRvBUGtzo/BHbm8QP6CFEHgUo3Bdh4SQbFLvz/SIFHB51kjQc9CkD66xkTB
clAqQT+kyT7WsGvBMBcfQXfFmb9Nt2TB2f1YQLQ+Z0D12pPBELHEQLcWY0B1dJ7BCMebQIgN1j93
zI7B4Ud+QKhitkDKEYHBdOU/QLNRsUBUeYvBJo5cQG++jUAsT6XBJCnAQC/4F0GurbLBmCfpQGvP
E0Fsda7BucabQPxuFkHSDqzBAc7tQA8UDkE8n6PBtWGgQGLTEEFENKHBVkfaQO9zoD+cKavB1d2n
QH+sqb6wQ6PBdPjrQMeFj7/gbKrBiHPJQFKiDEGI9ZzB82uyQJwIfT9wRqbBvPL2QFzuSz7MQK3B
J47EQLU/sb8iXqXBffj7QDZCUL8ej3jBLMbAQOubvUB+R5LB+SDdQBhkAkAeNI7B+CXnQAHKoL6e
m4bBckwEQcNOwD8mhXvBbQeQQNWi5UAeMYjBwk+dQCGsn0CuHI7BKL3hQEiDlT+EUoTBOKY3QfuU
jT+HuGrB9zGUQL9dCECcoKPBhofOQCq0BkE+SZHBENglQR8Srj/4H1rBsDEUQa47iz5+71rBgNKI
QLTngkAm0JbBh0SoQKrMQUBW/JrBKK8IQVL5jz4zZG/Bcy+2QA6Q5kCo6o7Bjx20QHbJC0As+5HB
GEx3QPkivEDWCorBsSP6QOm++r/yqHHBgNbfQIYztEAgyZfB8Sn7QLDKK0CY3JHBdNpzQE2inECE
dJ/BeYoOQUXr6D488LHBpG+6QGZqKcCkbaLBUaC8QDFWHEG6/brBjYECQcIEFUFLibPBTLx4QGaO
GUGQTq/BMZoGQW7JCkHiaKDBe4OEQJC6D0G2H5zB4cXiQPYCEUBITK3BkcGJQCeQCL/9V5/BweIA
Qf499794IqzBkBT8QIev9r7ujY3ByBPIQA4dTb+S/YfBjugRQR/a4D+x9ILBs/kAQU/3FUBxq3DB
EfGYQGnz6EAncH/BplJ0QPW2/0A/cIrBWBOqQCKDi0B3pIfBvhzFQIiepj/7oH7BmcVDQec78z9S
j2nBkiw/QZ7KBj5vjWfBgbMwQWlyjT8q5HrB9ECOQD1vLkAY4arBWYJrQNNu3D9rp6DBvpPwQJLl
A0GSjI/B26bCQE7jE0H4RIzBb/0sQb7Qrj+JCkrBXoQeQeq0FUBEYV3BuqkbQeDmNr9SuVjB1rUI
QR8G6T6e7E3B/BxbQBdFZEARJ5PB07LEQLPBYUD5S57BE9ScQMKY1j+USo7BaFdfQLWhsEBFNIPB
rVdIQI4Av0BVbo/Bj85aQGnXikBMw6TBOmDBQK4ZGEElkbLBohLqQN/wE0EuKq7BrI+cQIDNFkFR
FqzBN/3tQGhZDkG4SqPB1mqgQCBLEUFYNqHBtnjXQA7ckz/eCKvBMtGlQFsb2L4YwaLBKk3pQHnh
m7/xQarBmyTJQLz+DEE3zZzBhC2wQKa0ZT8s3aXBfPrzQFxnzT2aNK3Bw2LCQH8svb959aTBEc7v
QAjaSb83FXnBwGHAQAhpvUByYpLBFZ3eQGufCkDNFI7B2QDYQPx3yb0GoIXBDiAIQa2Moj80lX/B
BfCQQCKN40CdsYfBgYadQIvUnkBUNY7BJG/jQCNJrj8G+IPBu3kZQc2U0z+2JEvBkmKSQJMsA0DF
I6PBO+7MQMqYBkF0MJHBK7EmQcxcWj+gelvBDLsZQZ/Xpr62z2TBjvqIQKmBgkBk/JbBORyoQGly
QECpIpvBCf8GQaLr/D378nDBq/mzQGBL5kCJW4/BjZu1QP8gDkBnApLB0uJ3QMy1ukBK3onBUbzq
QCSg+r+q1XPBvZnfQI9ntECY4JfBTun7QPQ7NkDSspHB0at1QIFtnEAzqp/BmuwMQeNntj4XA7LB
kOe4QEAxL8AYzqHBxWi+QG5JHEGs6rrBxyEDQeUKFUHVIbPBbNN6QJMIGkG8dq/BepMGQVMaC0Fy
7Z/BBjqEQPhZEEGNPJzBOq3fQIWDCkB6VK3BuACIQP0sH7/qr57BffL+QDXcAcAsD6zBKzDjQMEr
6r6OdY3BW0W1QLSCg77t9oTBBpMTQbLAij+vTobBG60MQVMCDEBYA3fBsFKdQLNA5ECz6n7BzNN0
QH8z/kBc2ojBjuuqQKBUikAF44fBCpHOQIhp5D+ke3vBiSwjQbHbHkDq10TB6BoLQd+ZA0Ax/lLB
wa8UQSIgfj8d6D3BKXuKQK9xJkCxfqrBsrxpQNFU0z8aj5/BnbbuQD+UA0E2O4/BO5vAQDqNE0Fa
F4zBKXsrQYrJwj8lm2jBAxA1QXOX6j4RhVPB7CskQVkkaL86gW/BqkwUQZIqd78QkFfBgLNaQMsP
ZECqaZPB7q3DQGqFX0Ah/Z7BrVSfQC5s1j/TRo7BfeVfQBxUrkDgIIPBYttIQLKKvkCINY/BOpRc
QM3PikCDAaXBCBS4QKDTF0G87LTBuNrgQDmpFEGYYbDBHiOTQFYMFkHFg67Bt7jkQP/FD0ExbaXB
ePeWQFJTEUHHh6PBf7DeQC68pD+Z0arBY4OqQKZhgr5pEaPBqDzuQE7rjL8EBarBD9i/QDE1DkGV
8p7B+pW2QK4Shz+S/6XBaHn6QMyRVj7v06zBclzGQCx3qr9AFaXBj7oIQUBKfL/gCX/BK92/QGwc
w0BHt5LBbJ/YQNE4uj/hMo7B4YnwQLw+c7+XlYjBOxvgQNHANj9kRXbBOA+EQC7T50DVqozBnE6g
QGhfokAHAI7BVwLUQFCziT55WIbBhCssQRptHEBRr1bB+R+aQERZDkDAPaPBLaTEQOnvCUHkD5PB
XlsdQZoe9T99OGjBTwQTQd3lGD8d3WDBCMeMQGByhECvfJbBFOysQBVWQkDHzZnBFM0EQcBT2j10
qHHB9+ywQLRX60Cszo/BLB6zQLAbCUDHlJDBBet7QDyyu0D5BYnBQwwXQeZx6L8XRX3B07PfQABU
u0ARG5jB/7r7QEl77j/MK5HBz/N9QCjJnECviJ/Bz5kQQbaV3z6USbHBdzm7QO1QJcBwE6LBTCC1
QASeG0FqUr3BhST9QLH7FUHoTLXBmsFnQEtOGEHGBbLBpv0BQSg3DUGi+KHBJVB1QKQWEEEQnZ7B
kRHoQIyiEkCW96zB9/OLQA073L4PSZ/B77cBQXvs9r/vpqvBTFYAQSs4V78rW5DBr1DdQFqS77+O
lojBW4HiQIO85z89kXXB2AzIQGacvD4qrGrBP8N5QDBh/kBkJ4bBkUNeQPiY7kCgiZPBsM+wQMMN
j0D26IfB42OyQN+Lab3lVIbBGIozQeu6WEDy/VvBFd0iQanhJ0APBkjBisM4QRsI2j8La1PBGT2X
QJxJOEC5RarBPZF0QGSr7D+4/aDBde7mQDJmCUGuF5HBI1W1QNgNF0FcnY7BxcUQQb4DKkDGe2vB
OqwmQUNM3j/D4HbBkpEfQfP5F77euF3BnMQJQeKoRT9IJ1LB2NZhQJ0baUBc3JLBV2bLQMe/X0Dg
OZzBAlSaQDk0AUCnnovBAByAQE8oukD6DIHBO69CQDvOsEAeWYvB+fJlQA4jikBtu6TB

>  <OMEGA_E>  (37) 
uHQAPxz0/z420Rg/LBsUP9yWEj8y0w0/BKcHP6J/PT8=

>  <OMEGA_NBR>  (37) 
     12070

$$$$
50147900
     RDKit          3D

 73 76  0  0  1  0  0  0  0  0999 V2000
    6.0301    9.3699  -22.5883 C   0  0  0  0  0  0  0  0  0  0  0  0
    7.2732    9.2372  -21.9360 C   0  0  0  0  0  0  0  0  0  0  0  0
    4.8310    9.2198  -21.8630 C   0  0  0  0  0  0  0  0  0  0  0  0
    7.3194    8.9620  -20.5558 C   0  0  0  0  0  0  0  0  0  0  0  0
    4.8749    8.9465  -20.4832 C   0  0  0  0  0  0  0  0  0  0  0  0
    6.9155    1.1704  -21.3424 C   0  0  0  0  0  0  0  0  0  0  0  0
    5.1460   -0.3163  -20.5478 C   0  0  0  0  0  0  0  0  0  0  0  0
    7.2228   -1.2484  -21.4209 C   0  0  0  0  0  0  0  0  0  0  0  0
    6.1200    8.8241  -19.8265 C   0  0  0  0  0  0  0  0  0  0  0  0
    5.6315    0.9853  -20.7898 C   0  0  0  0  0  0  0  0  0  0  0  0
    7.7112    0.0535  -21.6548 C   0  0  0  0  0  0  0  0  0  0  0  0
    5.9407   -1.4322  -20.8644 C   0  0  0  0  0  0  0  0  0  0  0  0
    8.1241   -0.2362  -14.9454 C   0  0  0  0  0  0  0  0  0  0  0  0
    5.9935    6.0346  -18.3979 C   0  0  0  0  0  0  0  0  0  0  0  0
    7.1669    2.2992  -17.6036 C   0  0  0  0  0  0  0  0  0  0  0  0
    8.3549    1.1601  -15.5654 C   0  0  0  0  0  0  0  0  0  0  0  0
    6.5051    0.1182  -16.5819 C   0  0  0  0  0  0  0  0  0  0  0  0
    4.4762    7.1300  -17.0313 C   0  0  0  0  0  0  0  0  0  0  0  0
    5.0387    5.0033  -17.7741 C   0  0  2  0  0  0  0  0  0  0  0  0
    7.6758    1.0230  -16.9215 C   0  0  1  0  0  0  0  0  0  0  0  0
    8.6818   -4.6907  -18.1094 C   0  0  0  0  0  0  0  0  0  0  0  0
    4.7841    2.1791  -20.4268 C   0  0  0  0  0  0  0  0  0  0  0  0
    6.1603    8.5413  -18.3449 C   0  0  0  0  0  0  0  0  0  0  0  0
    7.5491   -4.2178  -17.1919 C   0  0  0  0  0  0  0  0  0  0  0  0
    7.7489   -2.7302  -16.9147 C   0  0  0  0  0  0  0  0  0  0  0  0
    6.8325   -2.2576  -15.7799 C   0  0  0  0  0  0  0  0  0  0  0  0
    4.4254    4.0456  -18.8015 C   0  0  2  0  0  0  0  0  0  0  0  0
    5.4656    3.0589  -19.3521 C   0  0  1  0  0  0  0  0  0  0  0  0
    7.0279   -0.8206  -15.6056 N   0  0  0  0  0  0  0  0  0  0  0  0
    5.4763    7.2810  -18.0797 N   0  0  0  0  0  0  0  0  0  0  0  0
    5.9432    2.2011  -18.2668 N   0  0  0  0  0  0  0  0  0  0  0  0
    3.9395    5.7855  -17.1991 N   0  0  0  0  0  0  0  0  0  0  0  0
    8.8069   -0.7558  -14.0705 O   0  0  0  0  0  0  0  0  0  0  0  0
    6.9761    5.8188  -19.0992 O   0  0  0  0  0  0  0  0  0  0  0  0
    7.8865    3.2867  -17.6990 O   0  0  0  0  0  0  0  0  0  0  0  0
    3.8376    4.7933  -19.8690 O   0  0  0  0  0  0  0  0  0  0  0  0
    8.9462    0.2322  -22.1744 F   0  0  0  0  0  0  0  0  0  0  0  0
    5.4754   -2.6787  -20.6253 F   0  0  0  0  0  0  0  0  0  0  0  0
    5.9968    9.5870  -23.6457 H   0  0  0  0  0  0  0  0  0  0  0  0
    8.1905    9.3467  -22.4954 H   0  0  0  0  0  0  0  0  0  0  0  0
    3.8797    9.3143  -22.3655 H   0  0  0  0  0  0  0  0  0  0  0  0
    8.2713    8.8567  -20.0567 H   0  0  0  0  0  0  0  0  0  0  0  0
    3.9570    8.8302  -19.9263 H   0  0  0  0  0  0  0  0  0  0  0  0
    7.2872    2.1678  -21.5255 H   0  0  0  0  0  0  0  0  0  0  0  0
    4.1644   -0.4560  -20.1196 H   0  0  0  0  0  0  0  0  0  0  0  0
    7.8315   -2.1056  -21.6682 H   0  0  0  0  0  0  0  0  0  0  0  0
    7.8831    1.9485  -14.9606 H   0  0  0  0  0  0  0  0  0  0  0  0
    9.4279    1.3754  -15.6761 H   0  0  0  0  0  0  0  0  0  0  0  0
    5.6772    0.7016  -16.1528 H   0  0  0  0  0  0  0  0  0  0  0  0
    6.1534   -0.4124  -17.4790 H   0  0  0  0  0  0  0  0  0  0  0  0
    4.9391    7.2386  -16.0394 H   0  0  0  0  0  0  0  0  0  0  0  0
    3.6798    7.8797  -17.1483 H   0  0  0  0  0  0  0  0  0  0  0  0
    5.5631    4.4316  -16.9943 H   0  0  0  0  0  0  0  0  0  0  0  0
    8.3517    0.4951  -17.6104 H   0  0  0  0  0  0  0  0  0  0  0  0
    8.5579   -5.7626  -18.3231 H   0  0  0  0  0  0  0  0  0  0  0  0
    8.6517   -4.1233  -19.0512 H   0  0  0  0  0  0  0  0  0  0  0  0
    9.6492   -4.5254  -17.6125 H   0  0  0  0  0  0  0  0  0  0  0  0
    4.6162    2.7848  -21.3295 H   0  0  0  0  0  0  0  0  0  0  0  0
    3.8179    1.8254  -20.0377 H   0  0  0  0  0  0  0  0  0  0  0  0
    7.2063    8.4697  -18.0121 H   0  0  0  0  0  0  0  0  0  0  0  0
    5.6574    9.3546  -17.8011 H   0  0  0  0  0  0  0  0  0  0  0  0
    6.5791   -4.3775  -17.6854 H   0  0  0  0  0  0  0  0  0  0  0  0
    7.5765   -4.7796  -16.2466 H   0  0  0  0  0  0  0  0  0  0  0  0
    8.7964   -2.5546  -16.6287 H   0  0  0  0  0  0  0  0  0  0  0  0
    7.5171   -2.1597  -17.8262 H   0  0  0  0  0  0  0  0  0  0  0  0
    5.7832   -2.4623  -16.0385 H   0  0  0  0  0  0  0  0  0  0  0  0
    7.0902   -2.7843  -14.8491 H   0  0  0  0  0  0  0  0  0  0  0  0
    3.6429    3.4622  -18.2943 H   0  0  0  0  0  0  0  0  0  0  0  0
    6.3000    3.6141  -19.8056 H   0  0  0  0  0  0  0  0  0  0  0  0
    5.3294    1.4695  -17.9700 H   0  0  0  0  0  0  0  0  0  0  0  0
    3.6626    5.4055  -16.3166 H   0  0  0  0  0  0  0  0  0  0  0  0
    3.1546    5.7958  -17.8187 H   0  0  0  0  0  0  0  0  0  0  0  0
    3.4588    4.1961  -20.5033 H   0  0  0  0  0  0  0  0  0  0  0  0
  1  2  2  0
  1  3  1  0
  2  4  1  0
  3  5  2  0
  4  9  2  0
  5  9  1  0
  6 10  2  0
  6 11  1  0
  7 10  1  0
  7 12  2  0
  8 11  2  0
  8 12  1  0
  9 23  1  0
 10 22  1  0
 11 37  1  0
 12 38  1  0
 13 16  1  0
 13 29  1  0
 13 33  2  0
 14 19  1  0
 14 30  1  0
 14 34  2  0
 15 20  1  0
 15 31  1  0
 15 35  2  0
 16 20  1  0
 17 20  1  0
 17 29  1  0
 18 30  1  0
 18 32  1  0
 19 27  1  0
 19 32  1  0
 21 24  1  0
 22 28  1  0
 23 30  1  0
 24 25  1  0
 25 26  1  0
 26 29  1  0
 27 28  1  0
 27 36  1  0
 28 31  1  0
  1 39  1  0
  2 40  1  0
  3 41  1  0
  4 42  1  0
  5 43  1  0
  6 44  1  0
  7 45  1  0
  8 46  1  0
 16 47  1  0
 16 48  1  0
 17 49  1  0
 17 50  1  0
 18 51  1  0
 18 52  1  0
 19 53  1  1
 20 54  1  6
 21 55  1  0
 21 56  1  0
 21 57  1  0
 22 58  1  0
 22 59  1  0
 23 60  1  0
 23 61  1  0
 24 62  1  0
 24 63  1  0
 25 64  1  0
 25 65  1  0
 26 66  1  0
 26 67  1  0
 27 68  1  1
 28 69  1  6
 31 70  1  0
 32 71  1  0
 32 72  1  0
 36 73  1  0
M  CHG  1  32   1
M  END
>  <OMEGA_C>  (38) 
zvbAQCDrFUHHtLTBrb3oQJjLE0HifK/BoJeaQC2EE0F5567BNDjqQEhkD0FGcqTBlP+bQLEkD0Gf
3aPBLUzdQMbQlT9PvarBzqukQMHwob7VYaTBKCHnQPbMn7/oXavBFdfDQJ4vDUGmnJ7BFzW0QOY+
fD9tUabBWML2QKgvWz0ZPa3Blxq+QChRt7866qbBRvwBQfLjcb5EIG/Ba8q/QHobwUDhLpPBYVfl
QJslE0Aj1IzBeK0FQRh9lD8ADHnBByrQQOgR8j25p4TBXz2PQBwp5EAdQIjB8jyhQCsboEBJMY7B
RaD1QFTwgj8yX4fBougKQQ8alsD535DBOBeZQD52C0AYaqPB6yDFQFGpCEFawpLBXpLxQBn4hsAc
iYnBDvf3QBe8LsBhUYfBF6TaQEN9EMBQenzBLJ2NQNR1gUBzaZbBI+auQL/FQ0As0ZrBX+TgQNAV
Ur+DsHnB6D2vQPb96EAho5DBpy6+QCnfDEBdIpLBwiB8QOUiuUDVl4nBIukMQUZ7Qb/oIGHBFTzf
QIgzukAsy5jBL178QO9YUkCIl43BrJt1QHlimUCu857B0CMPQYq+bT40ZbHBYzavQJ5wK8CUAKXB
Lua/QGdkGUFkKr3BOAwDQUCMFUGA9rPBJE14QIwHFUGM7LLBL1cEQeC0DUEGdKDB4T59QI5IDUH+
aJ/BGDHpQEm9CkAkNKzBlkKFQO926b7f9KDBipv6QBDCBsCAWK3Bm0L8QAVo+T9uXm/BjNgWQeoN
sD9w0XrBjKu1QNmbMz/XOIHB2ujEQKIk07751IvBTQ2eQFCi50CbUIDBZIJrQJ0m/EC/L4nBSQWy
QNLPjUA69IfBgqAFQe6D/T4b4ozBW+0IQSdnuMCjlZLBUm0KQerxg8D1aJjB7GIaQdPPkMBa5ozB
QLiTQM46MkDcoqrBnlh0QMql6T8/TaDBwJnmQLqDB0HOGJDBYgm1QH2sFUGtaI7B0IfSQKsUjMC7
e43BBHPyQJPymMAg+YHBP74MQSF/I8CJB4XBSYzwQME3CsABnI7Bpg+5QCOXHcDyToDBuOLiQH4x
MsD8lW3B3yRpQLuUXUDLWpLBjpnJQEFNZ0DFcZ7BwIqqQNQZvD+Gwo/BTGdqQBr6rEBYiILBGuVJ
QEt3uUCrjI7BWF1dQI1GhkDYBqTBlbPBQOc0GEGqiLPBa1LqQKchE0H/VK/Bl1mdQFvRF0Eq3azB
P6TuQNmnDUFTdKTByZ6hQFNtEkE3/KHBNBjWQLNunT/WOKvBxPOiQEOnsr7+haPB8iHlQMTJlL/7
jqvB2UzKQP1lDUFowZ3Bq/quQCejeT9/9aXBFTrxQAoiJT72963BW/29QDFFtb/CWKbBvHD6QK7a
Zb4Q0W7B+snAQMp+v0An9JLBIUPkQL/nDUD4xo3BGA36QEU5mz8uZXfBI/vcQJ+ag77YsojBB92R
QH8V50DBX4jBVRKfQM1QoUAWFI7BFFn3QJNEgj9kt4fBDd5/QBM7csBzUYvBY7SSQKW5B0A4i6LB
TonOQGl2B0F9GZLBU9SdQFVgPsC4DYTBIg/NQP5sT8B0+obB7BvsQPLbIcCpXX7BJ1OKQHXdgkDC
O5bBqMypQP9WQUCTUZrBGSroQMYph786cX7BZye1QH+b6ECP/o/BCvi5QFBEDECpZZHBvYh6QBan
vUA8BorBpcUEQXQhE7/snV3B1SjfQDc9tkDftZjBZNr7QO09SkDw14/BBV90QJJFm0A0Cp/B9YML
QZZD0D4j2LLBDKeyQDTFK8CZ7aPBNHC+QP1lHEFB4LvBAhIDQUBxE0HNdLTB+Hh8QH6nG0FcGbDB
LdwGQQmpCUEQP6HBw8aFQLUiEkGF3pzBDS/fQPudD0BgI63BqwSFQOUcC7/Gfp/B9+L5QIDW/b9Y
ta3BpCLeQHg14j/WYHHBcMMLQQB43z+E8nLBUJa6QHeCvLzgu4jB3lblQFBaTL++EZDBc/qdQHip
6UAII4DB90F2QBmdAEHr7YnB2nGtQIC7jkB1hofBXdYLQZkgUz9w1orBV/E8QHBHZcB7HonB/j6F
QBq3X8AvtJPBT6eGQG5ym8C7V4rBYE+KQO8uLkASnKnBkblqQKTn2z9U557Bo1TwQD9HBEG4OJDB
NNzCQFC2FEGxGI3B8O6WQH6V87/zCYXBQVeYQIH4UMABW3fBignTQO1gisDKqYbB1gTTQFHqN8Bh
I4/Bk5PlQEgCOcCYEW7BG4kGQUmrMsAEcoHBF1FfQJ2wZEC1PZLBQsDEQG51YUART57BUGylQPPD
yT84vY3BKR5jQPNzskAnIIPBqi9LQE00wEByXo/BCqpaQAeXiEACGqTBhdK5QK1hF0FljrPByJHj
QET0E0EFpK/BJG+WQFWvFUGlnqzBbfvpQDzEDkG4yqTBrMecQA2QEEGkxKHBRoHaQLR+oj+XCavB
Q0KpQB6EsL5vEKPB+6btQI79i78NWarBI5bGQNYIDUFX1p3BGwCzQB5sez+3D6bB5733QAKzbj5e
Lq3BX4bGQMrPsL/uPKXBqcTvQOl+f7+m6HrBI5PBQJ1JvkCRqZLBweXbQHQrBkDiXY3Ba4vWQH56
hb65GIbBApYGQcKhkD8bNH/BLRaSQCaH5UCpKYjBQ/qeQNf3n0CNNY7B5zzgQCxjmT//soPB+jcN
QZB+urxwyjvBBGCUQAwgB0CbV6PBYTTNQGQxB0FpOZLBEO8VQWaMjz9D0UnBk0IlQWpwGD9VVVvB
fC8bQUneCL+b92jBUK6JQJVMg0C1ypbBqpaoQOJGQUB5yprBAwoHQZhNx73wkXLBDk61QDxd50C2
y4/B/ZezQOUODEAnqpHBxVJ7QEL8u0AfzYnBRFrrQKCiC8CyWHbBnOjgQNzmtEAiFJjBFG35QHka
NECKYZDBHoZ2QGXOnEBLhp/BY88OQWR3Az+U5rHB8lO9QNCeKcC7SqLBa/S0QN5PG0Gc4bvBeKj+
QJNOFUGb9rTB4O1sQBBQGEGQoK/BzvsEQe4dDEGuzKHBFK2BQB9UD0F0cZzBlEziQF5SEkDFM63B
+VyLQEeqEL+hGp/B4fQBQRj78b/HF6zBNbbhQBMhCr9lI47B2RO0QD9H775ia4XB/RASQezBiT8N
QobBEUYKQe09AEBvK3XByUOeQKwi6EAp3X/BWF52QJKL/0A6sonBqNisQPDAi0Dn5IfBlNbKQPzW
xj+soXrBnGoCQQSDxz4NkC/BpmQEQWN+PL/33UXBb6AaQRD2Cb8z7jPBpsCNQA7YLED1larB5ZZs
QL5j2D85QKDBlHfvQLh9BEHVuZDBw7TBQHZOFEFsG43Bu2kIQclB0T+yh1HBhaUeQfKF6j/tlz/B
7YgpQSUStz/C92XBk8ozQXTzUz7mllPBwWcmQUjcUL9PwnXBSB8YQQgAtL9DrV7B2EdcQNKAZkDq
DpPBg2bFQLDSX0CuGp7Bh0icQArx0j/OS47BusdlQItbsEAB2oLB1aBKQLSqvkD58o7B1X5cQHT4
ikCxv6TBykzCQDWUGEGoy7LBdMrqQC7NE0GObq7B1midQNVgF0E+VqzBxHLuQPnNDUFmm6PBCQSh
QI94EUFmgaHBQbrZQBiXnj84eqvBSsSmQAJMsb59zqPB6pXqQHdSkr9dFqvBVZPJQGu1DEFNHZ3B
pMmxQDYMej8bn6bB1g32QOswOD65tK3BuBDDQHnSs7+tE6bBPkX6QORHL7/OPHfBaKvAQE8EvUCH
XZLBKZHdQC5tBkCqO47Bz7ThQIb3O74ZboXB2v0FQW7Fxj/Fu3zBA/KQQG/240D174fBWKCdQOug
nkC0Jo7BqRHiQE2JqT8K5IPBq7RBQR3g1L/JyVzBrtWTQLLWB0AT3KPBNknNQDRoBkFpe5HB/ZZC
QbcUJ74yV2LBw48uQYaWkD5rg27B81MaQV7blj4AQmDBiNiIQLMygkBD4pbBAEioQKEHQUDdPpvB
e5wHQadS2D5rC27B4Cm0QHwb5kBtjo/BitO0QMzOCkDeUZLBjUR4QJLIukAv2YnBW2H7QOaX7L+n
HHHBQYTgQNOzs0BHmJfBvjj7QBhnMECa+5HBZOVyQII7nEBZaZ/BOjIOQQUp3j6DSrLBeHm4QGPx
KsCCWaPBVoy/QAYqHUHsGLvBS4MDQX69FEFfZLPBHMp8QMf8GkHIsa/BLrkGQZIMCkHAR6DBE8OE
QDWUEEHAjJzBkIziQMkrEEChe63BwpmIQOv9C79m6J/B5AsAQT16+r/U66zBTQ7yQKrf777k4YzB
583AQFoHE7+BhYXBY0gTQQJexj+fIoTBMucFQYJlIEDT83PB9iCdQA6h5UAwYn/BC6V0QAFd/kDs
T4nBSOuqQPg0ikDuzIfBD9HHQItazT8R8nzBwE1QQTRT+b9/E1TBUKEzQchC7r/KtVLB9YtAQQwV
EMCQnWvBIa2NQHIeLkAwFavB7O5qQFmn2z9a0qDBdAvvQPdSA0ENho/BwB/BQOl1E0E5bIzBGNVD
QWZg1T7Ub1PBvb9QQUwy3DyaV2zBGTsxQTscpj9svHTB7+MrQcJW0b7Y8HvBw1sZQealJL8+HFfB
lwcbQXqqkj+0IVXBvqdbQBFAYkA+MpPBcmXEQMCPYUAFo57BnEueQBKdzD9x747BAg5hQH3lrkDT
AoPBZ7FIQFwOvkD6Io/BpIVZQMudikBSu6TBhke4QG6GF0HXt7PBQibiQKDyE0FV66/BqzGVQIYM
FkFrrKzBOvvoQFPODkHDFKXBR/abQGv5EEE21aHBF7PaQJoYpD9J+6rBQ/ypQAoXqr4lzqLBnjTu
QEjrib/rNarBIuLFQLVIDUE4BZ7BknCzQBM4fj8a56XBnfn3QNwJfj7vJa3Bo1LHQM7jrr8o/aTB
A9rwQAjIjL8XunzBtWjBQMzQvkD5tpLBo6TcQAyUBEDsVo3BPNTbQAT4sb7akYfB+loFQUZhjT9V
+nzBlLqRQBlQ5kA4UojB4veeQKOOoECkLI7BKDDgQG1ujT8ZGITBxNYqQfNbCkA56VPBUNWUQFS2
B0DQLqPBdevMQBl4B0Hsa5LBBvojQajmgz+2oUTBQt0PQQmAmj5prUzBo3cUQR3dAr/3I2HB5t2J
QN91g0CwrZbBWh2pQBgVQkALqJrB/OoEQeBOLr6Kh3HBxw+1QGD050BL7Y/BnzK0QNMIDUCth5HB
BgJ7QFOavEDu2InBOVnsQPmsEsBYy3jBS8vgQKpMtUAcGZjB7dL6QNofMUBPQpDBxdJ1QGSTnEAM
bp/Bg8QOQVeVBz9yBLLBQGq+QKCUKMA99aHBzBWzQNRmG0GECbzBKgL9QIEmFUGvUrXB4ERqQCjP
GEESl6/BI4cEQfEHDEGhLaLBnBeBQJnmD0H6bJzB10fiQOsWE0BLNa3BFUWMQHGTDb9Pw57BHkMC
QV6u778f9qvBg73sQArAB7/iJY/BDgK6QAfhIb/4cIjB16QSQRjekT+PQITBWLAGQVDE+T/F0nHB
9MWdQBlh6UCFFoDBZ3Z1QOcSAEGC9InBR+2sQCiwjECvzYfBFOXGQENiqj/NfnzBhjw5QevvKUAf
k03BG1ouQW3L3j/5yGPBetIdQWxsOUCJSFXB2BqOQCBMLUBhbqrBQJxtQKKC2T9EEKDB2zrvQA7A
BEFIAJHBmaTBQBKaFEEwSY3BYiIxQX8BnD57S0PBwZogQcsNuz8KyzTBMjIKQYKgw75nHEDBO2AD
QabVhT8tKlDBIKckQX+fjb4m8mbBPV8TQa3xyr97hV3BYzVdQO5XZkAV4pLBRs/FQC7wYED9/J3B
fpmcQFhF2D9xBo7BlYxlQLY6sUAN3oLB905KQJjwvkBNAY/BuAVcQKhyikDRm6TBhTi0QODpFkEc
srLB7LveQBmOE0HKUq/BX1SSQLIuFUGETqvBQmPnQFZqDkG/kKTBEOqaQMwQEEHdi6DBjoncQNsu
lD/IoKrBH3KoQObHtr4PiaLB4ULsQIwcnb9ZRKnBmn7FQNWiDEFRJp3BlyC0QBt/cT+N26XBqG74
QKhRlD1pYKzBRHPEQDBeuL9OQqTBXmLvQPsmdb8Sx3vB/WvCQKQXvkCbZJLBX9ncQNAOB0BQ+43B
PAPZQHjhhL4YLYfBrvcEQblCmj+qjH7BK3SSQIwu5UDJ2IfBhCefQJDhn0C+Qo7BTkrfQCOImj/i
c4TBjl04QZmsPb+dNUXBf0uWQKy4B0A3vKPBCsnOQMQLB0Ewl5HBpwgyQWxpMD984UvBOroaQTUx
RD8oUlPBnTgWQS4TqL6XJWTBR2OKQDyNg0AODJfBntCpQPA9Q0CUOpvB/+4DQYAIhTy9GnHB1nu4
QBui5kBBoo7BDq+0QGnYDkA3JpLBWpF7QLr6u0Ck7YnByo7tQEAeCsA58HfBudvgQI9GtUBtLJjB
VRT7QBSBM0DP6pDBqhh3QOlgnUATpp/BZHoPQd5Sjj6ZBbHBMVK5QF60K8C3AqHBWJytQBbRGkHZ
8rrB+K74QCTsFEEg/bTB0YpjQLrHF0Gc5a3BCPwDQaTVC0Er/aHBB++AQAnDDkHb4prBpA/mQOrp
CUAg8KzB6P2JQJJdBb/Gqp7BjboAQXLkA8ATuarBbCboQPMzA7/Y247B8Na2QNhJBb9keYfB3tcR
QYm5jz/sPIXBBWIHQS0sB0D+4nTByJubQD6S50DIvX7B6lN5QFuY/0D/4onBb0isQKpCi0DN7YfB
yOLGQPgmwT87LX3BoSxJQWE7QL+T/j/BihAuQd9Oib+F9jfBPF82Qd/Ftb/c6FLBe4WRQJnCK0Aw
M6vB3pZuQPsp3z/x26DBLnLxQN7HBEEkjpDBxNHDQNgpFEFDZ4zBWS80QbQkrj80Gz7BCn48QbSt
gT+LDVnBPxQQQQHjHj/CgEXBl7kXQaqb4D9OcFrBP1EkQTap4L4niW7BbA8TQYXUo7+751vBezde
QKh7ZUCQZ5PBaGLGQMbeYkC6g57BGx6dQA6j2z9apo7B8QFkQOHJr0CkJIPByj9MQN6Gv0DHPY/B
AtxdQACwi0Ct9qTB

>  <OMEGA_E>  (38) 
MBf7PnzVzj4i+RE/CLQSPzT+FT9wbhc/

>  <OMEGA_NBR>  (38) 
     19215

$$$$
50147906
     RDKit          3D

 79 82  0  0  1  0  0  0  0  0999 V2000
    6.1985    9.4995  -22.5113 C   0  0  0  0  0  0  0  0  0  0  0  0
    7.4223    9.2547  -21.8555 C   0  0  0  0  0  0  0  0  0  0  0  0
    4.9858    9.4193  -21.7974 C   0  0  0  0  0  0  0  0  0  0  0  0
    7.4356    8.9311  -20.4850 C   0  0  0  0  0  0  0  0  0  0  0  0
    4.9976    9.1046  -20.4248 C   0  0  0  0  0  0  0  0  0  0  0  0
    6.7528    1.3529  -21.3831 C   0  0  0  0  0  0  0  0  0  0  0  0
    5.2053   -0.2975  -20.4587 C   0  0  0  0  0  0  0  0  0  0  0  0
    7.3222   -1.0164  -21.4343 C   0  0  0  0  0  0  0  0  0  0  0  0
    6.2241    8.8623  -19.7659 C   0  0  0  0  0  0  0  0  0  0  0  0
    5.5310    1.0423  -20.7516 C   0  0  0  0  0  0  0  0  0  0  0  0
    7.6495    0.3246  -21.7193 C   0  0  0  0  0  0  0  0  0  0  0  0
    6.0989   -1.3267  -20.8062 C   0  0  0  0  0  0  0  0  0  0  0  0
    8.6324   -0.2336  -15.0479 C   0  0  0  0  0  0  0  0  0  0  0  0
    5.9482    6.0230  -18.3132 C   0  0  0  0  0  0  0  0  0  0  0  0
    6.9189    1.9923  -17.6103 C   0  0  0  0  0  0  0  0  0  0  0  0
    7.4544   -0.4071  -17.0823 C   0  0  0  0  0  0  0  0  0  0  0  0
    4.4115    7.2270  -17.0643 C   0  0  0  0  0  0  0  0  0  0  0  0
    8.3473    1.1747  -15.5779 C   0  0  1  0  0  0  0  0  0  0  0  0
    4.8934    5.0542  -17.7438 C   0  0  2  0  0  0  0  0  0  0  0  0
    7.1338    0.9525  -16.4883 C   0  0  1  0  0  0  0  0  0  0  0  0
    7.7470    3.5714  -14.9382 C   0  0  0  0  0  0  0  0  0  0  0  0
    5.3375   -4.2720  -16.6056 C   0  0  0  0  0  0  0  0  0  0  0  0
    4.6028    2.1520  -20.3356 C   0  0  0  0  0  0  0  0  0  0  0  0
    6.2361    8.5328  -18.2921 C   0  0  0  0  0  0  0  0  0  0  0  0
    8.1094    2.1705  -14.4221 C   0  0  0  0  0  0  0  0  0  0  0  0
    6.4650   -3.5177  -15.8989 C   0  0  0  0  0  0  0  0  0  0  0  0
    7.7047   -3.4218  -16.8212 C   0  0  0  0  0  0  0  0  0  0  0  0
    8.7547   -2.4751  -16.2165 C   0  0  0  0  0  0  0  0  0  0  0  0
    4.2813    4.1158  -18.7988 C   0  0  2  0  0  0  0  0  0  0  0  0
    5.2664    3.0207  -19.2462 C   0  0  1  0  0  0  0  0  0  0  0  0
    8.1800   -1.1332  -16.0189 N   0  0  0  0  0  0  0  0  0  0  0  0
    5.4792    7.3060  -18.0516 N   0  0  0  0  0  0  0  0  0  0  0  0
    5.6261    2.1673  -18.0944 N   0  0  0  0  0  0  0  0  0  0  0  0
    3.8085    5.9128  -17.2509 N   0  0  0  0  0  0  0  0  0  0  0  0
    9.1512   -0.5139  -13.9725 O   0  0  0  0  0  0  0  0  0  0  0  0
    6.9580    5.7311  -18.9445 O   0  0  0  0  0  0  0  0  0  0  0  0
    7.8650    2.6150  -18.0824 O   0  0  0  0  0  0  0  0  0  0  0  0
    3.8565    4.8883  -19.9254 O   0  0  0  0  0  0  0  0  0  0  0  0
    8.8253    0.6261  -22.3136 F   0  0  0  0  0  0  0  0  0  0  0  0
    5.7886   -2.6115  -20.5236 F   0  0  0  0  0  0  0  0  0  0  0  0
    6.1901    9.7487  -23.5621 H   0  0  0  0  0  0  0  0  0  0  0  0
    8.3503    9.3153  -22.4047 H   0  0  0  0  0  0  0  0  0  0  0  0
    4.0483    9.5991  -22.3026 H   0  0  0  0  0  0  0  0  0  0  0  0
    8.3727    8.7359  -19.9848 H   0  0  0  0  0  0  0  0  0  0  0  0
    4.0693    9.0485  -19.8757 H   0  0  0  0  0  0  0  0  0  0  0  0
    6.9992    2.3800  -21.6083 H   0  0  0  0  0  0  0  0  0  0  0  0
    4.2721   -0.5332  -19.9688 H   0  0  0  0  0  0  0  0  0  0  0  0
    8.0093   -1.8070  -21.6974 H   0  0  0  0  0  0  0  0  0  0  0  0
    6.5295   -0.9387  -17.3504 H   0  0  0  0  0  0  0  0  0  0  0  0
    8.0869   -0.2983  -17.9757 H   0  0  0  0  0  0  0  0  0  0  0  0
    4.8198    7.3223  -16.0473 H   0  0  0  0  0  0  0  0  0  0  0  0
    3.6683    8.0194  -17.2368 H   0  0  0  0  0  0  0  0  0  0  0  0
    9.1999    1.5176  -16.1825 H   0  0  0  0  0  0  0  0  0  0  0  0
    5.3304    4.4638  -16.9250 H   0  0  0  0  0  0  0  0  0  0  0  0
    6.2228    0.8840  -15.8756 H   0  0  0  0  0  0  0  0  0  0  0  0
    7.5864    4.2469  -14.0850 H   0  0  0  0  0  0  0  0  0  0  0  0
    8.5680    3.9563  -15.5610 H   0  0  0  0  0  0  0  0  0  0  0  0
    6.8271    3.5142  -15.5386 H   0  0  0  0  0  0  0  0  0  0  0  0
    4.4634   -4.3332  -15.9405 H   0  0  0  0  0  0  0  0  0  0  0  0
    5.0605   -3.7384  -17.5267 H   0  0  0  0  0  0  0  0  0  0  0  0
    5.6777   -5.2872  -16.8581 H   0  0  0  0  0  0  0  0  0  0  0  0
    4.3712    2.7788  -21.2093 H   0  0  0  0  0  0  0  0  0  0  0  0
    3.6731    1.7185  -19.9384 H   0  0  0  0  0  0  0  0  0  0  0  0
    7.2747    8.3923  -17.9580 H   0  0  0  0  0  0  0  0  0  0  0  0
    5.7787    9.3600  -17.7295 H   0  0  0  0  0  0  0  0  0  0  0  0
    7.2853    1.7981  -13.7958 H   0  0  0  0  0  0  0  0  0  0  0  0
    9.0262    2.2401  -13.8182 H   0  0  0  0  0  0  0  0  0  0  0  0
    6.1211   -2.5039  -15.6460 H   0  0  0  0  0  0  0  0  0  0  0  0
    6.7383   -4.0526  -14.9774 H   0  0  0  0  0  0  0  0  0  0  0  0
    8.1455   -4.4226  -16.9401 H   0  0  0  0  0  0  0  0  0  0  0  0
    7.3952   -3.0383  -17.8047 H   0  0  0  0  0  0  0  0  0  0  0  0
    9.0872   -2.8739  -15.2467 H   0  0  0  0  0  0  0  0  0  0  0  0
    9.6151   -2.4045  -16.8983 H   0  0  0  0  0  0  0  0  0  0  0  0
    3.4088    3.6216  -18.3465 H   0  0  0  0  0  0  0  0  0  0  0  0
    6.1687    3.4934  -19.6614 H   0  0  0  0  0  0  0  0  0  0  0  0
    4.8868    1.6804  -17.6292 H   0  0  0  0  0  0  0  0  0  0  0  0
    3.4528    5.5644  -16.3837 H   0  0  0  0  0  0  0  0  0  0  0  0
    3.0673    5.9595  -17.9205 H   0  0  0  0  0  0  0  0  0  0  0  0
    3.4777    4.3131  -20.5797 H   0  0  0  0  0  0  0  0  0  0  0  0
  1  2  2  0
  1  3  1  0
  2  4  1  0
  3  5  2  0
  4  9  2  0
  5  9  1  0
  6 10  2  0
  6 11  1  0
  7 10  1  0
  7 12  2  0
  8 11  2  0
  8 12  1  0
  9 24  1  0
 10 23  1  0
 11 39  1  0
 12 40  1  0
 13 18  1  0
 13 31  1  0
 13 35  2  0
 14 19  1  0
 14 32  1  0
 14 36  2  0
 15 20  1  0
 15 33  1  0
 15 37  2  0
 16 20  1  0
 16 31  1  0
 17 32  1  0
 17 34  1  0
 18 20  1  0
 18 25  1  0
 19 29  1  0
 19 34  1  0
 21 25  1  0
 22 26  1  0
 23 30  1  0
 24 32  1  0
 26 27  1  0
 27 28  1  0
 28 31  1  0
 29 30  1  0
 29 38  1  0
 30 33  1  0
  1 41  1  0
  2 42  1  0
  3 43  1  0
  4 44  1  0
  5 45  1  0
  6 46  1  0
  7 47  1  0
  8 48  1  0
 16 49  1  0
 16 50  1  0
 17 51  1  0
 17 52  1  0
 18 53  1  6
 19 54  1  1
 20 55  1  1
 21 56  1  0
 21 57  1  0
 21 58  1  0
 22 59  1  0
 22 60  1  0
 22 61  1  0
 23 62  1  0
 23 63  1  0
 24 64  1  0
 24 65  1  0
 25 66  1  0
 25 67  1  0
 26 68  1  0
 26 69  1  0
 27 70  1  0
 27 71  1  0
 28 72  1  0
 28 73  1  0
 29 74  1  1
 30 75  1  6
 33 76  1  0
 34 77  1  0
 34 78  1  0
 38 79  1  0
M  CHG  1  34   1
M  END
>  <OMEGA_C>  (39) 
21nGQML9F0EdF7TBsYPtQBATFEEp2K7BUIufQGm1FkEHYa7BWfDtQOXlDkEy4aPBT+yfQHKsEUEH
ZqPB8hbYQEssrT+wEKvBMJKmQC5QmL5yq6PBgE/qQHIYgr9ueavBayvHQM/LDUF5IJ7Btf2wQOtq
hT8xA6bBF8n0QP4tpj4Xwa3BOCrDQATRqb8Ac6bBeR4KQQgvb75TxHDBS1e+QKy8wEBdgZLB32fd
QPgC/z/24YzBporuQEJt0L6eqIjBCyuNQI5D50Cwg4jBlI4FQYZdlj8KP3nByZacQAW8oUBc843B
dUjkQDDZcz8U6IPBSOf3QNiRZEDyAm/BosyqQHO0iMBD2ITBhUqTQLe5CUA5r6LBCo7HQGqGCEE6
VpLB6b8BQRPpCkDMwGbBZ+HOQC4hYcDoYX7Bh4z2QGv/WsDhkYbBbhMMQVpoHsBmu4HBggCJQGm0
g0DtY5bBRYaoQEdTQUBI+JnBMeECQSQOkb+fJoDB9VWvQCPL6UCyaZDB4gi0QL61CkBlwZDBJL9z
QIw1vUDkAYrBdGsSQTORA78wj1/BlqfeQEZlt0BwjpfB4K37QJ1bJ0DGqJDB59B2QEhtnEBFZ5/B
nzQNQTRHID9HgrLBJzy5QI4iJ8BZMKTBtRXGQN/6G0Enf7zB5poFQWILFUHOPLPBjouBQLuVGUGx
a7LBj/YFQTnGC0H04J/BwDeCQHrGEEFyAZ/BKfnfQLNSGEDW3azBc7WIQJp+CL8mwJ/BCSYAQZhL
579PlK3BmvHQQA9PcL+vzYrBB2QBQU27mL4/zo/BzjuaQOVP6kDxYIDBOsZqQKZPAEHm5InBnjIT
QfBBwj/MdYHBUJKqQK/XjkBWZofBjSHHQItQYj+UAn7BLcTyQJnmh0BIXGHBXBYJQWYzfUDw+XjB
N3faQNPoYEAcnnjBgNSOQKypisBrDH/Buu+hQHJBb8DCNozBiK+1QGYwqcB13YbB4+CLQPvXMUCf
rKnBZhRrQBX32z/ugZ/BHcroQNFGBkERqo/BH+u4QKbCFUEB1o3B3yDpQKkm5j+3u1zBMGsQQedd
D0CLF13BHuDDQCI/IMAlVnrB7Z/XQD6vgcCMo2/BylMCQROGjcBnhYfBw6XsQNxyQsDvb47BBWUR
QSjuN8Ca8nPBZNcZQcbjGcCxL4fBFypaQDLIZ0CwxZLBFGbFQGWTX0CmSp3BuGCcQJ8Y1z+0CI3B
XvtcQKAPskDHEYPBjU5EQIO0vkA9XY/BQpNeQOUEikBRo6TBFby/QAZ0GUHWu7PBeRroQHW0FUHi
D6/BnEqaQEi0F0G2ga3BiBjrQOs0EEFRKaTBqzudQO5OEkGIl6LB9ObaQE2/pD8lh6vBYLSjQCu/
X76VsaTBXIPmQN0EkL/atKvBua/FQE2MDkFF5p3B5w+yQEYtiz8+/6bB6RH1QOgkOT6L5K3BZ+q9
QDlnqb/IDqfBP3ADQUZJV79qv3fBB0/AQDITwUBchJLBi37aQF+f9j/bM43BqaziQBnmFb+ANYzB
R5ONQDMk50Aju4jBkDkDQR8cJz9ukn3BYYyeQBGOoUAvO47Bg5PeQLPgNT9+yoXBXn0UQS3Bvz/2
slrBYVONQJEufcBzBoXBVYuWQFKcEUAcIKTBztnIQGvBCEHrMJLBSfMBQT8d0z8sr2rB3I+5QAGD
YsAl6YDBLYLaQKfYasB9FYrBmBcCQaKtOsBqqIfB5/OKQGHrhECk+pbBWGuqQMRCRECOwZrBI5D7
QKfKv7/GSoXBdmqxQNLb6UDbKJDBo8OyQBIJCUDN2ZHB8nt3QOk7vEC5/YnB/50HQcgPsL+Om2bB
KnLgQLxtuEB0tpfBIzr5QOGbKUA9KI/Bdhl7QN3gnkAjyJ/BQSQOQWbxvj6cMbLBf1qwQFWrJMBW
t6TBUn69QH+rHUEDGLzB2GACQfUMF0GF2LPB17x2QP5/GkFWGrHBzQIFQdNCDUHdmKDBipGAQDcL
EUGSzp3BURPmQJ9uEkAfLq3BM56EQP9uvb5SHqHB4Hv6QF+4/L9RmK3BXeTCQKz/gL8m6Y3BU6zz
QAqDzr6XxpPBXLiYQKTt60BPeIDBx65qQI5v/0A0sYrBzGYRQSGwYj9AqIPBYZOsQCOWjUCi44fB
/fzBQKuxJj/ArYDB+KESQYXeDkDluU3BylUUQa/Q9j7F9FPBfMUjQYDu1T9u+mLBF4NrQKBfd8As
D33B1/WDQAddU8C9tIvBioKOQLL6n8DUy4fBeMKTQELcO0BIIavBxR9tQAX19T9Px6HBoqzqQO2K
BkEcBZDBUAy7QB+3FUHBVo3BED0CQSgGK0BtJnHBvZrlQPzRvT/EIGLBGm64QPW4H8BBSXzBzfrC
QKkohsBwd3TB3/HhQNp/l8BmRYvBLWjMQGqNUMBVcpHBmesJQTJKWMAQs4DBg74MQWvjPsCxpI7B
6MhdQD6GaUASh5PBa13IQO57YkC0bJ3BOOyZQJxZ0D/X7I7BCbBjQIzusEB57YLBslJGQFzCvECV
HI/BmOpiQDg6jUBMLqXBsn+9QPs0FkGtI7XBdJHlQMadFEEMBLDB1HyXQPaAE0GOOK/BhLLnQH9u
EEGV9aTBgIuZQJdVD0FNKqTBasvfQL7pmz9EHqrBqE6nQGKbib4+rqPBmljqQEBMmb9HV6rBbLDB
QA7gDUGLAp/BZoy2QIrtgz8W0qXBvp/5QLjC1D17aKzBADbBQDr0sL/08qXBCPX8QImjcr8KGXPB
UM6/QFK4wkC795LBED7gQGKJ8T85qozBZDDVQL09EL80JYnBdyCOQMVq5kDUeIjB96QEQVgj4j41
inzBngmhQEjeoUAP+43BYirgQBPRRz8UOYTBgbUfQeQGpD9ufmDBdi0RQfcUXMB3qIvBTDubQFBg
DkBpMKPBOMrDQFGiCUHKIZPBIhYKQVOMwz9xoWvBHo3+QESRjMAA+4fB6FnRQIvScMDse4jBdgnI
QM2bMsAbUH7BBvuNQKXLgkDkM5bBVgmvQA0cQ0C5AJrBGLjdQDocv7/5Y4DBaqKuQJ686kBMwJDB
uFi4QL/cCUA3CJHB6M56QOweu0AMpInB/l0EQSyyt7/hGWLBdk7fQGBeu0CphZjBar7/QNJAJUBA
hI7BbSh6QBRjmkBUC5/BvYoQQRJRkj5xlrDBUqGyQGUrKMBl3KPBm+27QG6AGUGcnL3BkVMBQe2b
FkE4k7TB36JxQEahFEHaKbPBlTIDQWUuD0E6CqHBBON4QCRADUF2n5/BqojrQILNDUAspqvBfc6H
QLoV0b5+TqDBgSz+QJ1vA8CmH6zBcWWzQKcsGr/KlovBabLpQEcfR7/AFpDB2mCcQGe+6kCgf4DB
1QVpQFwY/kCjponBOAESQYkeqT6+7YPBFGmxQFPyj0Cmm4fBn3bHQP31gj8FhnzBya0iQSQSBUD9
vlTBBVMfQTU1nj7lRljB0ZIsQavToz8+gWzBBrcgQb/WfMA9F4vBqkoOQcHPSMCB/5PB1E4RQU35
IsAvg4bBtHCYQM8dN0D2VKrB3392QHeR8D9Nw6DBgXTlQN3MCEGHmJDBgpmzQMGmFkHszo7BpqkK
QR5oIEBwpXPBttP6QN+JxD8Xa1/BkPz+QAsLqcAFJ43BcoICQdEflsBnVX/Be1zOQDFyTcA2DpDB
qoi5QMhQksDtRIjBE1GlQEN3J8CYhX3BQurSQIhTUMBGUG/BeopnQFGrYkCrRZLB8TLMQICSY0Ck
zJzBFV2fQEn61z9ctY3B8HRoQECGr0DVi4LBMyVJQKLQukCvr47BNJNiQKUeh0BeIaTB

>  <OMEGA_E>  (39) 
ss0SP8rnDj9M2Qc/

>  <OMEGA_NBR>  (39) 
     23226

$$$$
50197270
     RDKit          3D

 78 81  0  0  1  0  0  0  0  0999 V2000
    8.6970    8.5343  -17.8510 C   0  0  0  0  0  0  0  0  0  0  0  0
    7.8879    9.2918  -16.9823 C   0  0  0  0  0  0  0  0  0  0  0  0
    9.0411    0.7024  -14.9001 C   0  0  0  0  0  0  0  0  0  0  0  0
    8.6184    1.6472  -15.8546 C   0  0  0  0  0  0  0  0  0  0  0  0
    8.4683   -0.5830  -14.8814 C   0  0  0  0  0  0  0  0  0  0  0  0
    8.1689    7.3986  -18.4904 C   0  0  0  0  0  0  0  0  0  0  0  0
    6.5542    8.9064  -16.7420 C   0  0  0  0  0  0  0  0  0  0  0  0
    7.0346    0.0234  -16.7626 C   0  0  0  0  0  0  0  0  0  0  0  0
    6.7972    1.1667  -21.4475 C   0  0  0  0  0  0  0  0  0  0  0  0
    5.0540   -0.4070  -20.7712 C   0  0  0  0  0  0  0  0  0  0  0  0
    7.1627   -1.2304  -21.6783 C   0  0  0  0  0  0  0  0  0  0  0  0
    7.6079    1.3143  -16.7892 C   0  0  0  0  0  0  0  0  0  0  0  0
    7.4720   -0.9310  -15.8204 C   0  0  0  0  0  0  0  0  0  0  0  0
    6.8346    7.0125  -18.2492 C   0  0  0  0  0  0  0  0  0  0  0  0
    6.0243    7.7623  -17.3663 C   0  0  0  0  0  0  0  0  0  0  0  0
    5.5170    0.9153  -20.9050 C   0  0  0  0  0  0  0  0  0  0  0  0
    7.6267    0.0934  -21.8126 C   0  0  0  0  0  0  0  0  0  0  0  0
    5.8714   -1.4775  -21.1691 C   0  0  0  0  0  0  0  0  0  0  0  0
    7.1609    2.2968  -17.7970 C   0  0  0  0  0  0  0  0  0  0  0  0
    6.8251   -2.2573  -15.7527 C   0  0  0  0  0  0  0  0  0  0  0  0
    6.2447    5.8711  -19.0220 C   0  0  0  0  0  0  0  0  0  0  0  0
    4.6491    7.2698  -16.9479 C   0  0  0  0  0  0  0  0  0  0  0  0
    5.1416    5.1735  -18.1874 C   0  0  2  0  0  0  0  0  0  0  0  0
    9.5002   -4.2056  -17.0973 C   0  0  0  0  0  0  0  0  0  0  0  0
    3.8801   -3.1043  -17.8270 C   0  0  0  0  0  0  0  0  0  0  0  0
    4.6341    2.0557  -20.4735 C   0  0  0  0  0  0  0  0  0  0  0  0
    8.5649   -4.0496  -18.3100 C   0  0  0  0  0  0  0  0  0  0  0  0
    4.7785   -4.3526  -17.9031 C   0  0  0  0  0  0  0  0  0  0  0  0
    7.5482   -2.9098  -18.0938 C   0  0  0  0  0  0  0  0  0  0  0  0
    5.8593   -4.3364  -16.8045 C   0  0  0  0  0  0  0  0  0  0  0  0
    4.4135    4.0803  -18.9906 C   0  0  2  0  0  0  0  0  0  0  0  0
    5.3762    2.9808  -19.4872 C   0  0  1  0  0  0  0  0  0  0  0  0
    5.8849    2.1789  -18.3527 N   0  0  0  0  0  0  0  0  0  0  0  0
    6.7156   -3.1144  -16.8728 N   0  0  0  0  0  0  0  0  0  0  0  0
    4.1300    6.1890  -17.8111 N   0  0  0  0  0  0  0  0  0  0  0  0
    7.9286    3.1830  -18.1527 O   0  0  0  0  0  0  0  0  0  0  0  0
    6.3351   -2.5779  -14.6755 O   0  0  0  0  0  0  0  0  0  0  0  0
    3.7563    4.6891  -20.1075 O   0  0  0  0  0  0  0  0  0  0  0  0
    8.8675    0.3360  -22.2912 F   0  0  0  0  0  0  0  0  0  0  0  0
    5.4171   -2.7443  -21.0538 F   0  0  0  0  0  0  0  0  0  0  0  0
    9.7223    8.8252  -18.0260 H   0  0  0  0  0  0  0  0  0  0  0  0
    8.2904   10.1700  -16.4994 H   0  0  0  0  0  0  0  0  0  0  0  0
    9.8047    0.9640  -14.1825 H   0  0  0  0  0  0  0  0  0  0  0  0
    9.0667    2.6296  -15.8742 H   0  0  0  0  0  0  0  0  0  0  0  0
    8.7915   -1.3057  -14.1468 H   0  0  0  0  0  0  0  0  0  0  0  0
    8.7846    6.8228  -19.1655 H   0  0  0  0  0  0  0  0  0  0  0  0
    5.9366    9.4912  -16.0764 H   0  0  0  0  0  0  0  0  0  0  0  0
    6.2577   -0.2341  -17.4672 H   0  0  0  0  0  0  0  0  0  0  0  0
    7.1376    2.1828  -21.5813 H   0  0  0  0  0  0  0  0  0  0  0  0
    4.0723   -0.5980  -20.3634 H   0  0  0  0  0  0  0  0  0  0  0  0
    7.7966   -2.0562  -21.9657 H   0  0  0  0  0  0  0  0  0  0  0  0
    5.8070    6.2526  -19.9562 H   0  0  0  0  0  0  0  0  0  0  0  0
    7.0361    5.1445  -19.2578 H   0  0  0  0  0  0  0  0  0  0  0  0
    4.7116    6.8935  -15.9162 H   0  0  0  0  0  0  0  0  0  0  0  0
    3.9477    8.1162  -16.9877 H   0  0  0  0  0  0  0  0  0  0  0  0
    5.5908    4.7300  -17.2866 H   0  0  0  0  0  0  0  0  0  0  0  0
   10.2104   -5.0246  -17.2843 H   0  0  0  0  0  0  0  0  0  0  0  0
   10.0544   -3.2688  -16.9389 H   0  0  0  0  0  0  0  0  0  0  0  0
    8.9040   -4.4348  -16.2017 H   0  0  0  0  0  0  0  0  0  0  0  0
    3.1222   -3.1482  -18.6230 H   0  0  0  0  0  0  0  0  0  0  0  0
    3.3811   -3.0709  -16.8473 H   0  0  0  0  0  0  0  0  0  0  0  0
    4.4953   -2.2015  -17.9561 H   0  0  0  0  0  0  0  0  0  0  0  0
    4.3372    2.6368  -21.3590 H   0  0  0  0  0  0  0  0  0  0  0  0
    3.7367    1.6510  -19.9826 H   0  0  0  0  0  0  0  0  0  0  0  0
    9.1692   -3.8259  -19.2015 H   0  0  0  0  0  0  0  0  0  0  0  0
    8.0187   -4.9919  -18.4643 H   0  0  0  0  0  0  0  0  0  0  0  0
    4.1550   -5.2502  -17.7784 H   0  0  0  0  0  0  0  0  0  0  0  0
    5.2691   -4.3808  -18.8872 H   0  0  0  0  0  0  0  0  0  0  0  0
    8.0967   -1.9617  -17.9926 H   0  0  0  0  0  0  0  0  0  0  0  0
    6.8844   -2.8578  -18.9694 H   0  0  0  0  0  0  0  0  0  0  0  0
    5.3659   -4.3687  -15.8218 H   0  0  0  0  0  0  0  0  0  0  0  0
    6.4983   -5.2239  -16.9232 H   0  0  0  0  0  0  0  0  0  0  0  0
    3.6668    3.6108  -18.3334 H   0  0  0  0  0  0  0  0  0  0  0  0
    6.2182    3.4565  -20.0114 H   0  0  0  0  0  0  0  0  0  0  0  0
    5.2682    1.5006  -17.9533 H   0  0  0  0  0  0  0  0  0  0  0  0
    3.3884    5.7275  -17.3241 H   0  0  0  0  0  0  0  0  0  0  0  0
    3.7726    6.6013  -18.6492 H   0  0  0  0  0  0  0  0  0  0  0  0
    3.3033    4.0227  -20.6107 H   0  0  0  0  0  0  0  0  0  0  0  0
  1  2  2  0
  1  6  1  0
  2  7  1  0
  3  4  2  0
  3  5  1  0
  4 12  1  0
  5 13  2  0
  6 14  2  0
  7 15  2  0
  8 12  2  0
  8 13  1  0
  9 16  2  0
  9 17  1  0
 10 16  1  0
 10 18  2  0
 11 17  2  0
 11 18  1  0
 12 19  1  0
 13 20  1  0
 14 15  1  0
 14 21  1  0
 15 22  1  0
 16 26  1  0
 17 39  1  0
 18 40  1  0
 19 33  1  0
 19 36  2  0
 20 34  1  0
 20 37  2  0
 21 23  1  0
 22 35  1  0
 23 31  1  0
 23 35  1  0
 24 27  1  0
 25 28  1  0
 26 32  1  0
 27 29  1  0
 28 30  1  0
 29 34  1  0
 30 34  1  0
 31 32  1  0
 31 38  1  0
 32 33  1  0
  1 41  1  0
  2 42  1  0
  3 43  1  0
  4 44  1  0
  5 45  1  0
  6 46  1  0
  7 47  1  0
  8 48  1  0
  9 49  1  0
 10 50  1  0
 11 51  1  0
 21 52  1  0
 21 53  1  0
 22 54  1  0
 22 55  1  0
 23 56  1  1
 24 57  1  0
 24 58  1  0
 24 59  1  0
 25 60  1  0
 25 61  1  0
 25 62  1  0
 26 63  1  0
 26 64  1  0
 27 65  1  0
 27 66  1  0
 28 67  1  0
 28 68  1  0
 29 69  1  0
 29 70  1  0
 30 71  1  0
 30 72  1  0
 31 73  1  1
 32 74  1  6
 33 75  1  0
 35 76  1  0
 35 77  1  0
 38 78  1  0
M  CHG  1  35   1
M  END
>  <OMEGA_C>  (40) 
GCcLQUuMCEHYzo7BSGn8QFmrFEHI24fBa6gQQRLQMz/5Zm7BIuUJQRfX0j+grH3BO34HQetAFb9O
Gm7BnbMCQSDB7EBU7JPB/LvRQMeADkGc74XB0xvhQOD0vzzXGYbBkYLZQKtVlT92lKvBHrqhQKpf
0L5cK6bBdzTlQLZ9nb83ba3BknPzQAM7qD9ZUIbB0BrvQN5Sbr92IH3BR7XaQMZm4EBM/pHBUMfA
QL9k+EA87orBVouwQK5Saj9wPafBkw30QHBcvz0kgK7BXuK7QHEevb9AWqnB7CXlQPb9EkBHYI7B
EmfaQNx2EMA/C3zBydTHQDrgu0ADLZjBjcWUQEOi6EBdlYfBHYikQIiNpUDZf5HBsgAYQYeUhsBA
x4jBAFR4QE6sRsC6nY7Bm0qUQMyPA0C9yaPB6AkJQZCWgcDxepLBWemYQFRIi8CMOY/BQ4vxQMo6
OsAPwJDBCX+7QC3EisCHb4bBtzuNQK6RgkDZ7JfBrgmsQALGPkC05ZvBbFG8QGRyC0Bk0pLBkebW
QFJSR8Bw+4bBuSiEQFkMxkAufY7Barf9QNC2S0C+OJHBZrnKQNz8JMDjzmrBAWhwQAgNlkBB3KDB
UuENQaICrD55VLLBIFmtQBKjL8BDbqjBhY4bQQU0DUEpNZDBoaUEQTS4IkHK/oPB8d8cQdDIdj+z
62LBBBERQU5LKECH/H3BDaoMQWohp79MWWLB040MQWBU2kDaUpnBZvi9QMLbF0FrnIDBuD7IQOGr
b77BvIvBTGfkQMizC0CKpqzBY1CCQHQYGb9Q6KLBiX35QMqYA8DOua/BtNK5QEsVyEBipp/BHyjh
QGqfpED6D5rBUcWWQOuX3ECmqH7BWad8QCPcAUHQ5ofBiueyQFJcl0DeSorBwV0jQSTJoMAmRorB
6t4gQVczUcD0gofBsXYOQeXpjcAinYHBqNJHQKZ8ScD/+5TBk2RYQF6KRMA1x4bBhNmPQCbmDMAM
po/BLcqKQLHAKEBJ36rBIiZvQM5U0z923J/B97QSQd7adMDCnJnBvkwAQai9n8DxtpPBjPWEQHYB
qMApOo7Bx5yoQFovjMD/GJfBOowBQcsZ+7/F8I/BPE3cQGXlNsA7wZfBnrWrQKfMi8AsJn3BJ/LP
QN8pp8DJYofBFKxqQNQXZ0DiqpLBHfvGQHo3XUBTF6DBsZSoQPQSwD9yoI/B7ttYQOxHt0Dal4rB
CXJxQHI900CCMZXBlmlTQAq6gEDK4qTB+IAKQbseCUGSq47BCGT7QLtnFEExUYfBopYQQSmRPT+r
Lm7BatIJQW0f2D/5a33B34oHQYWRDL8MCm7BaB0CQfyC7kBAFJTBx/7QQOPUDUHfXYXBgn/hQFA2
cj3sHIbBY3vZQE5/jz++tavBUGmgQFu1zr7yPabB0PbiQOygpL/Fkq3BeaLzQDsfrT+9RIbBQ2bv
QIhJZb+tK33BiN/ZQCAy4UA2E5LBIRXAQJjR90C8s4rBEFWwQLCsZz+LW6fBoADzQPjLwzxAqK7B
uIy5QJiOv7/7bqnBrIPlQJELFUDwZo7Bea7aQKoiDsDbT3zBjD/HQMrovEAlY5jBMwCUQADM50DP
gYfBZzOlQEY+pUC9l5HBtud6QF58QsCpiY7BjDYYQexJiMDRo4jBOt+UQEFGBEDy/aPBpUqaQOz8
iMDOjI/Bq/AJQfD/gMDShJLB0vy8QLa5icBjzIbBTiL0QE+9N8D9tJDBMgiOQGBegkADDJjBBeqs
QMEZP0D4HpzBBDe9QNe0C0DMEpPByKfYQICDRcCsGIfBwQuEQCJMxEBKNo7B8dj9QH9kTkBtL5HB
bP7IQLxgIcBsemvBoPpwQJL2lUBH5KDBTnMNQdRJaj7dgLLB+9ypQKbwL8CMfqjB+MEaQZYtDkHT
J5DBaSMEQZUfIkG6KoPBzrYcQTVegD/jm2LB3twQQSsuK0A5lH3Bg7oMQWQmo78rVmLBaOILQe1M
3UCbwpnBtWW9QBuVFkEjgn/BXtPIQLeOTL4szIvBbE3lQOAkCEAcxazBYumAQFUyEb/H76LBEWr2
QLdJCMBx6q/B6i24QJuFyUA4sJ/Bwd7gQOhtpkB/lZrBnXuVQNqv3ECJVH7BW6N6QERNAUFFHojB
9qa0QLfLlkAdj4rBnjlKQKl+Q8DC5JTBdTBbQAXSQsB0robBnwyRQIpVCMD/T4/BPUwjQe7mosD1
NIrBp2ghQXkVVsCA9IbBDyAOQbsekMAjs4HBpuiLQKxwKUA2H6vB655vQCKM1z9uFaDBw2yGQN3k
pcADz47BJ+GpQKCmiMCOcJfBCSgUQdi3csDbbJnBcd8AQepvnsB9K5TByE+tQAKLi8BY3X3BrjjR
QBIlpsBg+IfBsS4DQVxG+L8joY/BzHHfQPbyMcAgypfBYdFsQJcDZkDqxZLBuLvHQMbaXUA6VKDB
o+CpQCqCvT9tEJDB/oRbQKZ4tEBiDYrBA6NtQDzX0EB/yZTBsB5UQDqkgEDk7qTBSEULQXL+CEG7
bpDBCSP+QOXZFEFLDInBAoATQelHID8tFnHB42gMQWyQyD9bJYDB0w8JQTPGHb87LW/B628CQTyG
7UABVJXBxiDUQOBuDkH5hIbBa3vhQGDtzDuYC4bBkQbWQOFejj8tt6vBfr6dQLL02b6+/KXBoYzf
QDMVpb+j3a3BAcz1QHoCoj8s7obBdTzvQIgabb8EonzBSenaQFyL4ECXwZLBxGPCQPM0+ECPUIvB
Zm+tQLbTYj8QEafBs0fvQNBVtjzf9K7BDKK2QEE7wb8af6nBykXmQIeAEEDG0o7BtUHWQNw8CsAu
OnnBHUzHQKF0u0D0lJjBdmqXQCwC6EDnVYfBCJulQHQJpUAzapHBiW6MQJAwTMDKq5HBIuEWQcfL
gcDIT5jB0jCSQFOYAkDpbqPBaeCMQNrmd8D/uIbBHL0CQV30WMDd2JPByTm6QNOGi8DNm4PBqoYC
QXrIZcCivYfB5yaNQPLigUBIfJfBoj+rQCVePUCfxJvBgL68QJWeCUCT3ZLBoeDaQArUUcBRRIPB
SaSFQPI4xUAs+Y3Bsiz+QGv+SUBpyZHBqfS7QAKoCsDysmrBJHRsQGEilUC1KaDBEjcLQfJkcT59
OLPB4/emQKLTMMCz2qjB3GUbQYTlDUG0VZLBz9MFQcrkIkHQUIXBy/IgQWaUWz9u42bB5lsUQR1t
IUBszoDBMGkOQXuUqr8yZ2PB0bcLQWh720B/DZvBtXjBQOqdF0Ef4YDBb0rHQJkZeL7oUYvBFJ3h
QPS/B0B5xqzBL1N9QCQ4Gb/FeKLBL+HyQIAvCMDRYbDBpbK3QP4Yx0D66Z/BqITgQEtppECqs5rB
0nCbQJYO3EBLPX7BDKSAQH1sAUEIV4fBLaC1QLD9lkDvaIrB6mZXQNojN8DUjpPBZeGhQLFhFMB1
hZHBz2eXQLCbecBCz5fBcmMXQW4te8B7C6HBgx8lQdf6ZcAdtJTBgJ0WQaAlpMAkZZbBYxWIQBLV
J0AEdqrBTpVrQKZJ0z/yRZ/BWKiBQDYWSsCGqIDBg11uQBuol8BT8obB+vACQW8pFMDMtpXB7t3o
QNd5dsDTZ5fBnHi4QCVbmsCIR3fBfIrEQHSNo8ATgInBTX8GQf5olMAT7oXBl4gOQZlvO8BnFYTB
bMtsQILcZUCn6JHBgJrFQI62W0AmM6DBRlypQGTovD8WfY/B+fJdQFxCtkBEvonB8CtxQOw60kBo
g5TBwPtNQAlff0CJ+KPB

>  <OMEGA_E>  (40) 
9FK5PtiNtj7qeQ8/

>  <OMEGA_NBR>  (40) 
      3975

$$$$
50162053
     RDKit          3D

 88 91  0  0  1  0  0  0  0  0999 V2000
    9.3867   11.0030  -16.3615 C   0  0  0  0  0  0  0  0  0  0  0  0
    9.1533    9.8513  -15.5819 C   0  0  0  0  0  0  0  0  0  0  0  0
    9.2011   10.9625  -17.7587 C   0  0  0  0  0  0  0  0  0  0  0  0
    8.7307    8.6584  -16.1983 C   0  0  0  0  0  0  0  0  0  0  0  0
    8.7817    9.7701  -18.3774 C   0  0  0  0  0  0  0  0  0  0  0  0
    7.0244    0.0203  -16.8791 C   0  0  0  0  0  0  0  0  0  0  0  0
    8.5780    1.6491  -15.9295 C   0  0  0  0  0  0  0  0  0  0  0  0
    8.3379   -0.5483  -14.9031 C   0  0  0  0  0  0  0  0  0  0  0  0
    6.8694    1.1318  -21.4626 C   0  0  0  0  0  0  0  0  0  0  0  0
    5.0601   -0.3644  -20.7838 C   0  0  0  0  0  0  0  0  0  0  0  0
    7.1565   -1.2832  -21.6230 C   0  0  0  0  0  0  0  0  0  0  0  0
    8.5456    8.6202  -17.5961 C   0  0  0  0  0  0  0  0  0  0  0  0
    7.6144    1.3056  -16.9031 C   0  0  0  0  0  0  0  0  0  0  0  0
    7.3986   -0.9134  -15.8887 C   0  0  0  0  0  0  0  0  0  0  0  0
    8.9188    0.7341  -14.9151 C   0  0  0  0  0  0  0  0  0  0  0  0
    5.5656    0.9377  -20.9534 C   0  0  0  0  0  0  0  0  0  0  0  0
    7.6694    0.0200  -21.7806 C   0  0  0  0  0  0  0  0  0  0  0  0
    5.8487   -1.4721  -21.1321 C   0  0  0  0  0  0  0  0  0  0  0  0
    8.0709    7.3945  -18.2367 C   0  0  0  0  0  0  0  0  0  0  0  0
    7.2051    2.2896  -17.9200 C   0  0  0  0  0  0  0  0  0  0  0  0
    6.7565   -2.2407  -15.8227 C   0  0  0  0  0  0  0  0  0  0  0  0
    5.6670    7.9914  -17.7157 C   0  0  0  0  0  0  0  0  0  0  0  0
    6.2017    5.9482  -19.0498 C   0  0  0  0  0  0  0  0  0  0  0  0
    4.6991    7.1701  -16.8545 C   0  0  0  0  0  0  0  0  0  0  0  0
    5.1784    5.1511  -18.1988 C   0  0  2  0  0  0  0  0  0  0  0  0
    9.9548    1.1056  -13.8780 C   0  0  0  0  0  0  0  0  0  0  0  0
    3.9063   -3.0654  -17.7838 C   0  0  0  0  0  0  0  0  0  0  0  0
    9.5096   -4.2330  -16.9587 C   0  0  0  0  0  0  0  0  0  0  0  0
    4.7040    2.1165  -20.5813 C   0  0  0  0  0  0  0  0  0  0  0  0
    4.7820   -4.3239  -17.9308 C   0  0  0  0  0  0  0  0  0  0  0  0
    8.6703   -4.0737  -18.2403 C   0  0  0  0  0  0  0  0  0  0  0  0
    5.8945   -4.3640  -16.8682 C   0  0  0  0  0  0  0  0  0  0  0  0
    7.6297   -2.9447  -18.0974 C   0  0  0  0  0  0  0  0  0  0  0  0
    4.4522    4.0893  -19.0385 C   0  0  2  0  0  0  0  0  0  0  0  0
    5.4271    3.0250  -19.5720 C   0  0  1  0  0  0  0  0  0  0  0  0
    6.7008    7.0875  -18.2727 N   0  0  0  0  0  0  0  0  0  0  0  0
    5.9254    2.2029  -18.4564 N   0  0  0  0  0  0  0  0  0  0  0  0
    6.7459   -3.1400  -16.9126 N   0  0  0  0  0  0  0  0  0  0  0  0
    4.1430    6.0581  -17.6476 N   0  0  0  0  0  0  0  0  0  0  0  0
    8.9014    6.6786  -18.7862 O   0  0  0  0  0  0  0  0  0  0  0  0
    7.9753    3.1833  -18.2554 O   0  0  0  0  0  0  0  0  0  0  0  0
    6.2179   -2.5436  -14.7634 O   0  0  0  0  0  0  0  0  0  0  0  0
    3.7810    4.7274  -20.1285 O   0  0  0  0  0  0  0  0  0  0  0  0
    8.9269    0.2040  -22.2420 F   0  0  0  0  0  0  0  0  0  0  0  0
    5.3448   -2.7176  -20.9992 F   0  0  0  0  0  0  0  0  0  0  0  0
    9.7083   11.9184  -15.8872 H   0  0  0  0  0  0  0  0  0  0  0  0
    9.2989    9.8844  -14.5122 H   0  0  0  0  0  0  0  0  0  0  0  0
    9.3807   11.8459  -18.3535 H   0  0  0  0  0  0  0  0  0  0  0  0
    8.5488    7.7758  -15.6031 H   0  0  0  0  0  0  0  0  0  0  0  0
    8.6411    9.7358  -19.4477 H   0  0  0  0  0  0  0  0  0  0  0  0
    6.2858   -0.2473  -17.6202 H   0  0  0  0  0  0  0  0  0  0  0  0
    9.0553    2.6173  -15.9632 H   0  0  0  0  0  0  0  0  0  0  0  0
    8.6133   -1.2557  -14.1350 H   0  0  0  0  0  0  0  0  0  0  0  0
    7.2506    2.1319  -21.6072 H   0  0  0  0  0  0  0  0  0  0  0  0
    4.0667   -0.5114  -20.3862 H   0  0  0  0  0  0  0  0  0  0  0  0
    7.7657   -2.1376  -21.8785 H   0  0  0  0  0  0  0  0  0  0  0  0
    5.1143    8.4706  -18.5372 H   0  0  0  0  0  0  0  0  0  0  0  0
    6.1469    8.7639  -17.0969 H   0  0  0  0  0  0  0  0  0  0  0  0
    7.0425    5.2929  -19.3212 H   0  0  0  0  0  0  0  0  0  0  0  0
    5.7121    6.3143  -19.9643 H   0  0  0  0  0  0  0  0  0  0  0  0
    5.2380    6.7647  -15.9855 H   0  0  0  0  0  0  0  0  0  0  0  0
    3.8796    7.8171  -16.5086 H   0  0  0  0  0  0  0  0  0  0  0  0
    5.7124    4.6535  -17.3758 H   0  0  0  0  0  0  0  0  0  0  0  0
    9.4580    1.5651  -13.0108 H   0  0  0  0  0  0  0  0  0  0  0  0
   10.4919    0.2012  -13.5561 H   0  0  0  0  0  0  0  0  0  0  0  0
   10.6687    1.8207  -14.3128 H   0  0  0  0  0  0  0  0  0  0  0  0
    3.1241   -3.0700  -18.5572 H   0  0  0  0  0  0  0  0  0  0  0  0
    3.4378   -3.0590  -16.7886 H   0  0  0  0  0  0  0  0  0  0  0  0
    4.5318   -2.1680  -17.9004 H   0  0  0  0  0  0  0  0  0  0  0  0
   10.2392   -5.0446  -17.0961 H   0  0  0  0  0  0  0  0  0  0  0  0
   10.0417   -3.2932  -16.7499 H   0  0  0  0  0  0  0  0  0  0  0  0
    8.8471   -4.4746  -16.1145 H   0  0  0  0  0  0  0  0  0  0  0  0
    4.4743    2.6957  -21.4878 H   0  0  0  0  0  0  0  0  0  0  0  0
    3.7683    1.7518  -20.1324 H   0  0  0  0  0  0  0  0  0  0  0  0
    4.1479   -5.2157  -17.8182 H   0  0  0  0  0  0  0  0  0  0  0  0
    5.2418   -4.3247  -18.9300 H   0  0  0  0  0  0  0  0  0  0  0  0
    9.3409   -3.8377  -19.0797 H   0  0  0  0  0  0  0  0  0  0  0  0
    8.1463   -5.0191  -18.4443 H   0  0  0  0  0  0  0  0  0  0  0  0
    5.4335   -4.4415  -15.8725 H   0  0  0  0  0  0  0  0  0  0  0  0
    6.5278   -5.2452  -17.0486 H   0  0  0  0  0  0  0  0  0  0  0  0
    8.1591   -1.9864  -17.9903 H   0  0  0  0  0  0  0  0  0  0  0  0
    7.0069   -2.9202  -19.0038 H   0  0  0  0  0  0  0  0  0  0  0  0
    3.7152    3.5871  -18.3946 H   0  0  0  0  0  0  0  0  0  0  0  0
    6.2672    3.5258  -20.0753 H   0  0  0  0  0  0  0  0  0  0  0  0
    5.2985    1.5345  -18.0560 H   0  0  0  0  0  0  0  0  0  0  0  0
    3.5339    5.5243  -17.0611 H   0  0  0  0  0  0  0  0  0  0  0  0
    3.6205    6.4422  -18.4089 H   0  0  0  0  0  0  0  0  0  0  0  0
    3.3307    4.0736  -20.6502 H   0  0  0  0  0  0  0  0  0  0  0  0
  1  2  2  0
  1  3  1  0
  2  4  1  0
  3  5  2  0
  4 12  2  0
  5 12  1  0
  6 13  2  0
  6 14  1  0
  7 13  1  0
  7 15  2  0
  8 14  2  0
  8 15  1  0
  9 16  2  0
  9 17  1  0
 10 16  1  0
 10 18  2  0
 11 17  2  0
 11 18  1  0
 12 19  1  0
 13 20  1  0
 14 21  1  0
 15 26  1  0
 16 29  1  0
 17 44  1  0
 18 45  1  0
 19 36  1  0
 19 40  2  0
 20 37  1  0
 20 41  2  0
 21 38  1  0
 21 42  2  0
 22 24  1  0
 22 36  1  0
 23 25  1  0
 23 36  1  0
 24 39  1  0
 25 34  1  0
 25 39  1  0
 27 30  1  0
 28 31  1  0
 29 35  1  0
 30 32  1  0
 31 33  1  0
 32 38  1  0
 33 38  1  0
 34 35  1  0
 34 43  1  0
 35 37  1  0
  1 46  1  0
  2 47  1  0
  3 48  1  0
  4 49  1  0
  5 50  1  0
  6 51  1  0
  7 52  1  0
  8 53  1  0
  9 54  1  0
 10 55  1  0
 11 56  1  0
 22 57  1  0
 22 58  1  0
 23 59  1  0
 23 60  1  0
 24 61  1  0
 24 62  1  0
 25 63  1  1
 26 64  1  0
 26 65  1  0
 26 66  1  0
 27 67  1  0
 27 68  1  0
 27 69  1  0
 28 70  1  0
 28 71  1  0
 28 72  1  0
 29 73  1  0
 29 74  1  0
 30 75  1  0
 30 76  1  0
 31 77  1  0
 31 78  1  0
 32 79  1  0
 32 80  1  0
 33 81  1  0
 33 82  1  0
 34 83  1  1
 35 84  1  6
 37 85  1  0
 39 86  1  0
 39 87  1  0
 43 88  1  0
M  CHG  1  39   1
M  END
>  <OMEGA_C>  (41) 
vi8WQTsMMEFh5ILBHXQSQceeHUFgT3nBrTcTQX1mL0G8EY7B8rALQf6ICkEYloHBx4EMQVZSHEH+
BJPBsMfgQKx5pjxiCIfBcz8JQSMU0z9P337BEGgFQRBbDL8fc27BLNLbQDzgkD9ps6vBFuyhQD2X
ur4wRabB2gHlQGo/pL/y+6zBsroIQVrsCUG3xIzBc6nzQCQepz+mOYfBP8HsQGDTab9FOH7Ba7MO
QZ3rOz9OpG7BohmyQJ8McD+DoKfBzGv1QOTpozzFPq7BuCi7QCVsvL+EDqnBVCIBQeqf7ECr5JHB
2I/mQKiIEkA8XI/BdjXYQINnD8DWKX3BGFi1QIi5/0DBuY3BpXTGQNtXvkD/ZZjB316WQFlx5UAZ
1obBerWlQLTVpEAel5HB/UYfQYWEjT9SDF7BSAF6QEIvRMBIRY7BJScYQXZ0h8B9q4fByIaWQO90
B0CNpqTB7gWZQJ1disA9co/BhrkKQcRbgsAl7JHBDaC8QDimi8Ac8obBiSb0QMF1PMCGx5DBq3iO
QDbbgkDrTpjBbKqtQPCYQUCOk5zByGzWQKTM4kCTLpLBkZy9QKv7DECvppPBB97XQJv1SMDtTIfB
G5OEQF3cwUBGLo3BIGwOQUO31UAsSpbBVjX/QHS6S0ACC5LBI/nGQGDKIsAKN2zBV/xxQDtHl0Az
B6HBgdQOQZzgUD6O77HB6girQI3tLcBV/qfBNFUbQbuxPkH0MX7BScgUQYwmHkEoMmjBNxcWQbqI
PUH105LBBMgIQQzT+EB7pnnBwUEKQeDFG0HglJvBFCXJQBtCfb4r9ozBcuIQQXOBJ0AmaX/BB9AJ
QUS8oL/UKGLBtwToQMNxCECN26zBkCKCQPrqAr/5FqPBqID4QOfNCMAtB6/BnaijQLWHB0E4TJTB
ULPEQBY5DEF8xojBS1zhQJpfqUDekZrBxcm2QLwOykDatp/Bmp2nQCt42EClxH/BkEp4QA4m+kCU
EYTBwcu2QNrplECdAYvBxVMXQc1TyD9RLFDB2t4nQQkPTj6f5VjB2bIqQU8N6T9KAWXBFPFHQFl6
RMAedZTBDgVcQJHGQ8AWT4bBRASRQCrBCsAQNI/Bs9MjQXJtocDgxIjB26ogQVXDUsDf/4XB2Y0N
QQ4wj8Br6oDBsy2PQNWGLEAb56vBiytxQDY84D8nD6HBcLuEQAXnpsC+i47BLb2nQFFkisC5cJfB
LnQVQYCcdcBHo5jBLFcCQaScoMDTjZPBod+tQKQgjsCu9X3BGeTQQGXYp8COY4jBy4sCQZpD/r81
7I/BSjjgQHrkOsC9B5jBxsVtQMCTZUAgKJPBLY3IQBKmYUBImqDBBI2pQJJqxD+6cpDBwipiQC7H
sEAPfYjBiLZnQOUmzkBYRZPB+SlVQKpagkCTM6XBlSAVQSDXMEFIQYLBjjIRQYRJHkHsSHjBMVQS
QcF6MEFyco3BmHoKQRdYC0G5N4HBarILQUWHHUEmi5LBshfjQCgctz3IJofB9rEJQbXL3T8wcn7B
TVkGQU3p+L6Pm27BocHfQBZSmD+blavBowWmQO+uqr5ni6bBDCrqQIETnL933qzBY88HQV78CkHx
aozBpDX1QEcmsT+oJ4fBqlTvQEaDWr+Qsn7BQi8PQbNaTz8uU27BrsW1QFkAej9KvqfBvBP6QMIC
uT2TAa7BRQbAQAa7tr9rP6nB250AQV3P7kD+sZHB1vHnQIuQF0AsRI/BvBjbQKXUC8BMI37Bzb2z
QHWeAEEgBY7BgX3GQC7/v0AYkJjBA+mUQHuL5kA2MIfBOtulQIEEpkDX1JHBkjQfQe+pmD95P13B
oAsXQeRnksBoU4nB5m1rQDYBWMBYxYrBGGiZQKUmCUBu6KTBBGcUQcbOSsB+KY7BKqSbQFV2gsBs
CpDBFub5QLz8NsDYD5HBGTTBQNPIiMA1PIjB+IiPQNGVg0ArmZjBJ42vQEcrREClwZzBCoPVQOrG
5EDdU5LBEWu/QDI4EEB+xJPBTVzcQLoWRMAC4ofBSQaEQAOKwkBfi43BLkIOQRzW10DuyZXBHh4A
QVmvUUBM1ZHBFRzIQBkBIMBHuG3B3jF0QP+Ml0CTY6HBHzkRQXAqlT7jibHBSzCwQLV0K8CknajB
cEsaQbddP0HMtHzBwVcTQZ6dHkFGJGfBukUVQd67PkGeGpLB7GAHQfZE+kCMGnnBbJcJQRkwHUEU
HpvBi8PLQE4QN754J43BvgwRQTBwLUCBrH7BtNYKQWC3mb/OdGLB3pnrQCWGDEBVqKzBuAWGQP8/
/r62jaPBCkr+QAUfBMBwxq7BsR2iQIcOCEH6qpTB2GvCQOMqDUFID4nB/NrhQLB3q0C0oprBdfu2
QDBay0Bi75/BLg6mQAj/2UAWLIDB02h0QE3X+kAbhYTBAOS2QJ91lkBVL4vBVb0WQeM/0D9+eE/B
IgooQcNfmD65FljBe34qQXhD9z9KxGPBXf0nQQf4l8AVZYfBwmcNQa3llMBa/YHBy58RQUyDqsAX
I4/BYYg3QIpwUMA2pJDBuoZUQK6SfsAJ/YPBjZR/QIKhGMD64YfBI0KSQF/YLUDKM6zB69N2QLPl
4T85b6HBgPoZQdY6G8BDTojBijIeQRR2RsD/c5XBCyCRQID7ocDX8ZLB9aamQNMFXsDI1pbBl673
QGvP579mrJPB4g3wQD5TYcDapZfBUYe0QPY1j8ApL4DBpJ7UQOklpMBk5YrBLgZwQLhAZkCtgZPB
dWHKQMomZUAHsKDBqpyrQHfvyD9zrJDBKEFhQCgysUBB44jBp7tmQNhuzkCfsZPBGoJYQBVXgkCG
l6XBXvQVQdBgL0Fg3YLBGMYSQerSLkGOB47BUIoSQavXHEFFU3nBLCgMQWi6G0EiAJPBte0LQW+7
CUHxnYHBo/fgQCj1CTz6DYfBHkUJQWU+0j878H7BKrYFQcZID78OoW7BubDbQPVrkD+2nqvBZgai
QMG9xL5cU6bBjm/lQJpGpL/QAq3BQ8cIQd0yCUE7yIzBDKDzQNMFpj/NO4fBET/tQPIcbb8PVn7B
MuEOQfrdOT9byG7Ba/GxQH8tbD8Wl6fBtZT1QPHjxTwhMa7ByY67QB4Avr9+JKnB3SkBQeck60D/
4ZHB3S3mQL8iEkDBUI/BVpXYQMIQEMCfJn3BLju1QG0iAEHDko7BhkHGQNz9vUC815jBTHKXQChz
5kDXQ4fBdg2mQAnXpEC3wpHBLF0fQQ8kjT8tH17BooF6QBg3RMBfUo7BFGcYQdFkh8Akx4fB3xCW
QNIHBkBmkqTBW/CYQEWtisACYI/B+KkKQTH6gsCg8ZHBR3W8QM7wi8BW2IbBxfHzQAHaPcBfzZDB
C0GOQKx4gkAHP5jBfjetQEB6QEARiZzBSk3WQPMX40Cl5ZLBMkS9QA8GDEB3nJPBi/DXQFbqScBG
Q4fBVDmFQOwSwkAwQ43B9JAOQfpU0kDSeJXB+Yf+QOHzS0Ac9ZHBJE7HQI/QIsAYK2zBqCVwQKZn
lkCd7aDB4uoOQZADYT751bHBvrirQIUEL8ASJqjBxAQbQUUJPkGAG37BeWkVQaMJPUE4w5LBjf8U
QaVPHUE3OmjBxKwJQd1DG0E8jJvB6EYJQUAM90Bkw3nBzUbJQNqXhb7x9ozBLdEQQSREJ0A4dX/B
gkIKQU9sor+samLBJq7nQKNvCEC2uKzBiDWCQPtqCr87MaPBXSn5QHhyCMA7Eq/BorSiQOQeB0HJ
MJXBs5XEQBwCDUEE9onB7S/hQLAFqUBm/prBiRO2QMLsyEAZKqDBlrSpQNpU2kDhYIDBtsR6QGIu
+0AaaoTBxra3QIlFlUD+N4vBwlAXQWr/xj+tPVDBNBEoQSqSTj49AFnBfLQqQden6T/LAWXBnZNI
QGyURMCAhpTBgFpcQJrkQsAbX4bB/4aRQBI3C8BWUI/BPBkkQTpUocDG34jBpuYgQYNSUsBlRobB
owUOQZDWjsBn64DB412OQA38KkB9z6vBpaRwQEJa3D9r7qDB82KEQM3+psCYao7BsrynQAkoi8DU
W5fBNC0VQYFrd8CBw5jBMEwCQQ9jocCDaJPBFZ2tQFsTjsB6xH3BfI7QQFVPqMB/OIjBqmgCQepf
AMBSCJDB5M3fQLLUPMCxBJjBajduQC1YZUDR65LBFRfIQM1QYEDZl6DBSVWpQDjzwT9xapDBHPBk
QPVKsUA+UojBRFFnQFqjzUDQSpPBcKhSQBVAgUAU9KTBv44VQTeOLkGzBYHB3DYSQWxoG0E/lnbB
smgSQYIXL0FmMIzB1KoLQXTJCEEpuYDB4eMLQQ58HEGeopHBR0DjQIg22j0+wIbBNYIMQWNW2z/m
0YDBKsUIQYrF2L5aN2/BivbYQNVckj9kCq3B/FukQBpV0L6MmKXBUPXlQPQpob/kra3BCYUIQTJZ
CUFf5YvBX4H3QC9crj8F4ofBPRTwQE2bRr9BI33BxSYTQVz9UD8Qi3HBy3axQLQ/aT9w4afBiULz
QKBVcD3u4K/B+oW+QOu8vr8piqjBl/8AQc9t7EBbhJHBlNnoQCzyE0BLJpDBsJvWQOWt/L9q0HjB
yfO0QFAA/0AeYI3Bwj3GQPqWvkD5bpjBNL+WQGXP40BdgYbBtQumQPMtpEBuqZHBFSMkQVoQnT8M
oWHBgY5gQJgph8AZzorBeJ8XQZQGcsCw3ZfBeH+VQE6bBEB7m6TBQH2cQFhLZsCZ74vBPMsCQZIp
U8Cl0ZLBbQG7QGJ8hMC0LYPBfgIEQcgRX8ChpIbBCauOQKlfgkDOc5jBfZqtQOilQED14ZzB2yLW
QDXI4kCRDpLBEjS/QNxiDUAsA5TB1q/eQFKgTMBYf4HBdeiEQGebwEDo/IzBfmAOQaLx1UCA+pXB
zowAQTLiS0AvZ5PBkNO2QMpF67/IhG3BNvdxQJAal0CPF6HBAJ8MQYqvkD47u7TB6OWxQC4tMMAb
YabBZ4oaQSLXPEH5sXnBwawUQcQGG0G7fGXBMv8UQenEPUHFj5DBBRAJQXs79EAGsnjBtnkJQYvc
HEE5MJrBCubJQAVmNb6XKozBmkIUQWEiK0Cdl4HB76gNQS9djb9YumLBG/niQADQCUB3zq7BH0WG
QDWpFb8tl6HBZgD6QBbsBcAv76/BS7eiQMBFB0Fd0pPB5T/EQMjKC0H8XojBp0PhQGIWqkDiyJrB
XyG2QEi7ykAUpZ/BiZeoQKRm1kDmZn/BWv54QNf590Azg4PB8p+3QGvsk0AVNovBvJEcQetC3j8A
/VPBhassQXjLqj7C61vBFIovQf559D/mZWnBBRU2QB4QdcCKEpHBPqplQCIdqsCZoYvB7A5GQPOc
fsBw5ILBD9MWQfacacACmKDBphIlQd6XTMA+p5TBnwAaQZkSm8Bi/ZXB1SKMQHrGKEAFyavBvltx
QAjm1z9vmqDB9pWpQH0EdsA73ZPBTciZQCxnIMASIIvBNGcAQScID8Bxr5TBWarqQHuVeMCUBZbB
Li+pQCNbiMCkTXfB6tnHQACoo8B0tYXB+I8IQfLNkMB044TBCDIQQZ1rM8A2ZYPBg1xuQKZHZEA0
TpPBe6nHQIWoYECFPaHBvNGrQLalxT+hhJDBnJFjQH/6rkDTU4jBKpVnQKlIzUBQ9ZLBZApVQNFS
gkCKTKXB

>  <OMEGA_E>  (41) 
QCXQPKBOxT2AS5c82Gm0Pg==

>  <OMEGA_NBR>  (41) 
      9660

$$$$
50162005
     RDKit          3D

 93 96  0  0  1  0  0  0  0  0999 V2000
    5.6589   10.6787  -20.7056 C   0  0  0  0  0  0  0  0  0  0  0  0
    5.6927   10.0961  -21.9860 C   0  0  0  0  0  0  0  0  0  0  0  0
    6.3516   10.0756  -19.6433 C   0  0  0  0  0  0  0  0  0  0  0  0
    7.0006    0.0462  -16.8603 C   0  0  0  0  0  0  0  0  0  0  0  0
    8.6254    1.6810  -16.0487 C   0  0  0  0  0  0  0  0  0  0  0  0
    8.4469   -0.4971  -14.9708 C   0  0  0  0  0  0  0  0  0  0  0  0
    6.7136    1.1198  -21.4536 C   0  0  0  0  0  0  0  0  0  0  0  0
    4.9788   -0.4180  -20.6803 C   0  0  0  0  0  0  0  0  0  0  0  0
    7.1226    8.3121  -21.1427 C   0  0  0  0  0  0  0  0  0  0  0  0
    7.0563   -1.2890  -21.6144 C   0  0  0  0  0  0  0  0  0  0  0  0
    7.5938    1.3283  -16.9468 C   0  0  0  0  0  0  0  0  0  0  0  0
    7.4424   -0.8761  -15.8852 C   0  0  0  0  0  0  0  0  0  0  0  0
    9.0308    0.7819  -15.0438 C   0  0  0  0  0  0  0  0  0  0  0  0
    5.4420    0.8977  -20.8821 C   0  0  0  0  0  0  0  0  0  0  0  0
    6.4321    8.9018  -22.2098 C   0  0  0  0  0  0  0  0  0  0  0  0
    7.5236    0.0265  -21.8090 C   0  0  0  0  0  0  0  0  0  0  0  0
    5.7809   -1.5092  -21.0561 C   0  0  0  0  0  0  0  0  0  0  0  0
    7.0817    8.8895  -19.8639 C   0  0  0  0  0  0  0  0  0  0  0  0
    7.1326    2.2963  -17.9593 C   0  0  0  0  0  0  0  0  0  0  0  0
    6.7974   -2.1984  -15.7453 C   0  0  0  0  0  0  0  0  0  0  0  0
    5.3163    7.8714  -17.2909 C   0  0  0  0  0  0  0  0  0  0  0  0
    5.9717    5.9587  -18.7919 C   0  0  0  0  0  0  0  0  0  0  0  0
    4.2876    6.9643  -16.6190 C   0  0  0  0  0  0  0  0  0  0  0  0
    4.9076    5.0937  -18.0768 C   0  0  2  0  0  0  0  0  0  0  0  0
   10.1345    1.1657  -14.0830 C   0  0  0  0  0  0  0  0  0  0  0  0
    9.6194   -3.9560  -16.9733 C   0  0  0  0  0  0  0  0  0  0  0  0
    3.8467   -3.0063  -17.7108 C   0  0  0  0  0  0  0  0  0  0  0  0
    5.7447    8.8136  -24.5145 C   0  0  0  0  0  0  0  0  0  0  0  0
    4.5614    2.0641  -20.5048 C   0  0  0  0  0  0  0  0  0  0  0  0
    8.6079   -4.0853  -18.1236 C   0  0  0  0  0  0  0  0  0  0  0  0
    4.6728   -4.3060  -17.7543 C   0  0  0  0  0  0  0  0  0  0  0  0
    7.5183   -2.9950  -18.0439 C   0  0  0  0  0  0  0  0  0  0  0  0
    5.7899   -4.3047  -16.6915 C   0  0  0  0  0  0  0  0  0  0  0  0
    4.2603    4.0535  -19.0037 C   0  0  2  0  0  0  0  0  0  0  0  0
    5.2746    3.0213  -19.5269 C   0  0  1  0  0  0  0  0  0  0  0  0
    6.4152    7.0661  -17.9018 N   0  0  0  0  0  0  0  0  0  0  0  0
    5.8155    2.2350  -18.4027 N   0  0  0  0  0  0  0  0  0  0  0  0
    6.6799   -3.1133  -16.8166 N   0  0  0  0  0  0  0  0  0  0  0  0
    3.8191    5.9552  -17.5758 N   0  0  0  0  0  0  0  0  0  0  0  0
    7.9067    3.1446  -18.3897 O   0  0  0  0  0  0  0  0  0  0  0  0
    6.3417   -2.4771  -14.6413 O   0  0  0  0  0  0  0  0  0  0  0  0
    8.1173    8.9505  -17.4364 O   0  0  0  0  0  0  0  0  0  0  0  0
    8.7580    7.0358  -18.9941 O   0  0  0  0  0  0  0  0  0  0  0  0
    3.6343    4.7207  -20.1020 O   0  0  0  0  0  0  0  0  0  0  0  0
    6.5079    8.2522  -23.4291 O   0  0  0  0  0  0  0  0  0  0  0  0
    8.7454    0.2411  -22.3463 F   0  0  0  0  0  0  0  0  0  0  0  0
    5.3212   -2.7686  -20.8886 F   0  0  0  0  0  0  0  0  0  0  0  0
    7.7542    7.9772  -18.4750 S   0  0  0  0  0  0  0  0  0  0  0  0
    5.1009   11.5884  -20.5400 H   0  0  0  0  0  0  0  0  0  0  0  0
    5.1555   10.5574  -22.8015 H   0  0  0  0  0  0  0  0  0  0  0  0
    6.3253   10.5195  -18.6591 H   0  0  0  0  0  0  0  0  0  0  0  0
    6.2084   -0.2280  -17.5412 H   0  0  0  0  0  0  0  0  0  0  0  0
    9.1055    2.6448  -16.1333 H   0  0  0  0  0  0  0  0  0  0  0  0
    8.7702   -1.1921  -14.2099 H   0  0  0  0  0  0  0  0  0  0  0  0
    7.0639    2.1281  -21.6178 H   0  0  0  0  0  0  0  0  0  0  0  0
    4.0086   -0.5875  -20.2374 H   0  0  0  0  0  0  0  0  0  0  0  0
    7.6899    7.4075  -21.3051 H   0  0  0  0  0  0  0  0  0  0  0  0
    7.6757   -2.1286  -21.8932 H   0  0  0  0  0  0  0  0  0  0  0  0
    4.8198    8.4589  -18.0772 H   0  0  0  0  0  0  0  0  0  0  0  0
    5.7429    8.5516  -16.5390 H   0  0  0  0  0  0  0  0  0  0  0  0
    6.8373    5.3307  -19.0497 H   0  0  0  0  0  0  0  0  0  0  0  0
    5.5390    6.3817  -19.7105 H   0  0  0  0  0  0  0  0  0  0  0  0
    4.7502    6.4631  -15.7559 H   0  0  0  0  0  0  0  0  0  0  0  0
    3.4343    7.5689  -16.2778 H   0  0  0  0  0  0  0  0  0  0  0  0
    5.3844    4.5717  -17.2342 H   0  0  0  0  0  0  0  0  0  0  0  0
    9.6974    1.6418  -13.1929 H   0  0  0  0  0  0  0  0  0  0  0  0
   10.6883    0.2642  -13.7819 H   0  0  0  0  0  0  0  0  0  0  0  0
   10.8208    1.8702  -14.5757 H   0  0  0  0  0  0  0  0  0  0  0  0
   10.3790   -4.7467  -17.0616 H   0  0  0  0  0  0  0  0  0  0  0  0
   10.1076   -2.9715  -17.0233 H   0  0  0  0  0  0  0  0  0  0  0  0
    9.0955   -4.0570  -16.0113 H   0  0  0  0  0  0  0  0  0  0  0  0
    3.0621   -3.0440  -18.4808 H   0  0  0  0  0  0  0  0  0  0  0  0
    3.3824   -2.9002  -16.7193 H   0  0  0  0  0  0  0  0  0  0  0  0
    4.5059   -2.1465  -17.9010 H   0  0  0  0  0  0  0  0  0  0  0  0
    5.8920    8.2062  -25.4197 H   0  0  0  0  0  0  0  0  0  0  0  0
    4.6776    8.8203  -24.2473 H   0  0  0  0  0  0  0  0  0  0  0  0
    6.0814    9.8433  -24.7052 H   0  0  0  0  0  0  0  0  0  0  0  0
    4.2940    2.6190  -21.4162 H   0  0  0  0  0  0  0  0  0  0  0  0
    3.6474    1.6815  -20.0271 H   0  0  0  0  0  0  0  0  0  0  0  0
    9.1410   -3.9886  -19.0809 H   0  0  0  0  0  0  0  0  0  0  0  0
    8.1289   -5.0740  -18.0689 H   0  0  0  0  0  0  0  0  0  0  0  0
    4.0047   -5.1600  -17.5689 H   0  0  0  0  0  0  0  0  0  0  0  0
    5.1282   -4.4063  -18.7506 H   0  0  0  0  0  0  0  0  0  0  0  0
    8.0055   -2.0088  -18.0443 H   0  0  0  0  0  0  0  0  0  0  0  0
    6.8667   -3.0824  -18.9258 H   0  0  0  0  0  0  0  0  0  0  0  0
    5.3295   -4.3006  -15.6925 H   0  0  0  0  0  0  0  0  0  0  0  0
    6.3959   -5.2148  -16.8122 H   0  0  0  0  0  0  0  0  0  0  0  0
    3.4973    3.5130  -18.4243 H   0  0  0  0  0  0  0  0  0  0  0  0
    6.0874    3.5422  -20.0542 H   0  0  0  0  0  0  0  0  0  0  0  0
    5.1923    1.6149  -17.9261 H   0  0  0  0  0  0  0  0  0  0  0  0
    3.1376    5.3791  -17.1246 H   0  0  0  0  0  0  0  0  0  0  0  0
    3.3983    6.4229  -18.3531 H   0  0  0  0  0  0  0  0  0  0  0  0
    3.2335    4.0787  -20.6762 H   0  0  0  0  0  0  0  0  0  0  0  0
  1  2  2  0
  1  3  1  0
  2 15  1  0
  3 18  2  0
  4 11  2  0
  4 12  1  0
  5 11  1  0
  5 13  2  0
  6 12  2  0
  6 13  1  0
  7 14  2  0
  7 16  1  0
  8 14  1  0
  8 17  2  0
  9 15  2  0
  9 18  1  0
 10 16  2  0
 10 17  1  0
 11 19  1  0
 12 20  1  0
 13 25  1  0
 14 29  1  0
 15 45  1  0
 16 46  1  0
 17 47  1  0
 18 48  1  0
 19 37  1  0
 19 40  2  0
 20 38  1  0
 20 41  2  0
 21 23  1  0
 21 36  1  0
 22 24  1  0
 22 36  1  0
 23 39  1  0
 24 34  1  0
 24 39  1  0
 26 30  1  0
 27 31  1  0
 28 45  1  0
 29 35  1  0
 30 32  1  0
 31 33  1  0
 32 38  1  0
 33 38  1  0
 34 35  1  0
 34 44  1  0
 35 37  1  0
 36 48  1  0
 42 48  2  0
 43 48  2  0
  1 49  1  0
  2 50  1  0
  3 51  1  0
  4 52  1  0
  5 53  1  0
  6 54  1  0
  7 55  1  0
  8 56  1  0
  9 57  1  0
 10 58  1  0
 21 59  1  0
 21 60  1  0
 22 61  1  0
 22 62  1  0
 23 63  1  0
 23 64  1  0
 24 65  1  1
 25 66  1  0
 25 67  1  0
 25 68  1  0
 26 69  1  0
 26 70  1  0
 26 71  1  0
 27 72  1  0
 27 73  1  0
 27 74  1  0
 28 75  1  0
 28 76  1  0
 28 77  1  0
 29 78  1  0
 29 79  1  0
 30 80  1  0
 30 81  1  0
 31 82  1  0
 31 83  1  0
 32 84  1  0
 32 85  1  0
 33 86  1  0
 33 87  1  0
 34 88  1  1
 35 89  1  6
 37 90  1  0
 39 91  1  0
 39 92  1  0
 44 93  1  0
M  CHG  1  39   1
M  END
>  <OMEGA_C>  (42) 
kxW1QMfbKkEHpaXBvyq2QMuJIUFC46/BbkDLQMY1IUGDJZ3BOgXgQIALPT3f4YbBwQEKQe0r1z/Q
Y4DBYSYHQZSC/r5AiG/BatXWQJ5Vjz8RoavBtVKfQBAA1r5LcaXBHezjQEX+BEFSJKnB4czhQKX9
pL9L6qzBPgDzQJcEqj8ik4fBvCfuQCpKYL+iKX7B+30QQT8pSD9fs3DB4SSuQGrSZT91DqfBI9TN
QJ5tDkG/rbHBAsHwQABd2TzaeK7BJv24QCcuwb/5cqjB+JziQF47DkEw6Z7BPj7kQCr2EkCdrI/B
h4TZQFCyDMDZ7HvBCx+qQE7i+0C2U4rBehi/QICtvkDEVZbBMDSJQLvb3kCj84TBwwqdQNr/okBR
nZDB/SYiQSg2lT8QVGHBHukZQYQvfcA8yYfBMjB2QPxnQMC7r43BMdS3QIwEDUHAHcTB2vaRQKYa
BEDqCaTB6bkJQf+6gsAU/ZDBxoeVQOTKicDnCI7BjpXwQMCtP8DYWZDBJEe5QGrAicAciIXBbFSI
QKG2gUCDB5jBPMmoQLJdQUAqN5zBeUnNQGgd4kDiNo/BeBi6QAwLD0C+OJPBb8HVQBZBR8BTiIbB
umx0QB6RvkBGm4zBCgT9QEBBSUARHpPBbu/KQBaIHsClQmrBjOABQVo1D0HCfYvBoCAMQXsl4UAE
9JfB6pdoQOgPl0DS0KDBdEDQQNMIBEGzbrvBA+0LQRbfdj5GxbLB9EaqQOQwMcDkG6fBUyL4QOlE
/0DkzJPBOzqjQABqOUHyUaTB0PmkQBLrKEFnabbB72jKQPJPKEHZRZXBmavGQEhsab53VIzBErAR
Qe5DKUDoEIHBjFIMQcSWmL/uW2PBKwviQEEzCEBR8azBHkaAQAZmFr8i5qHBVxP2QHkK7UDrcKrB
jJ/1QPk6CMA8Ja/BLzyaQM1XB0EenpDBqcW3QFXTCEHdT4TB58raQO6UqkDLZZjBsD+xQLw2zEAQ
r53B4QGYQO/RzkBdGHzB7stbQFU08kD3OILBSk2sQCJLkkCW34nBsCgbQVEl0j8VFlPBUQMrQUVK
hz7MglzBBiItQYNh7z8yNmnBchAmQR3ll8A7fojBmbghQdYtPsDRL4jB/oYRQbfSgcA8F4DBvPhD
QITRQsC62JPB83hYQAydOcAOwYXB7y+QQB1gCcAoNY/BiYu8QLNMA0GTW8vBCa+VQAQgDUGM+sHB
l5rCQCh+HUFEpMXBa2iJQB6dJ0B5VKvBFW9pQBY81z91N6DBdEESQXJFf8CrpZjB2Q8CQYVeosAV
jZDBwSaAQKsepcAxjYzBNxqkQDMAjcBLAZbBnxYAQQKQAMDBWpDB/bvbQIlGRcAQaJfBVIuqQOWe
icBWFHvBXqvMQKDfpsBYf4bBCdNfQLLVYEAPZZPB2cvCQMGzYkACb6DBoCemQLq1zj+3aI/BJM5I
QKkhrEA0/4jBtn1ZQJ6IzUAd05LB9vBOQOeEgkDRaKXBdnu1QFKpK0EWLqXBYfS0QOW3IkE4ga/B
BgHMQDhoIUHk7ZzBmDDgQMDzPj1s9YbBaGcJQdIy2T+DDoDBtloGQfzk974R/W7BrA3YQC5glD/n
vavB9NmgQKofy74BraXBysThQMFIBUGlVKnBkfrjQJB/n7+D8azBpb/yQKj2qj8YeYfBs4TtQPLd
Xr+xE37BYPAPQb60ST/ONHDBRT6vQJyHbD9PRqfBtErLQOlZD0G5obHBXovyQGAGmD2id67BUQq7
QFVhvb/FmKjBlCLiQM8zDkEaBJ/B90HkQCiHE0Blk4/BI+jYQDZyDMAXIHzByVurQBOy+0CbN4rB
aM2+QPxyvkDMWpbB4veJQHkS30Au2ITB8hydQLzpokDDfpDBy00gQdSAmj/8sF/Bdp93QK7cQMAy
TY7B/TEaQTRcfcBaQYfBXsG1QO/hD0HQHsTBe7WSQDc3BUAEN6TB7uiWQOiVicBbp47B6I8KQSR9
gsCes5DBHLW5QK6eicCJ6IXBKUjyQAwKP8AiRpDBCFaIQDtOgUA705fBWxGpQBqrQUA+NpzBNOXN
QDyb4UAVTY/Bznm6QMxHDkACV5PB6zzWQFjlRsAyq4bBTBN1QBbFvkAUdozBVcf8QF41S0CzxpLB
3TXJQGRNHsDXs2rBuOICQUl0DkHR3ovBgNcLQXP630ARrpjB0FdmQGFslkByeaDBs9TLQBtJBUGu
fbvBLPIMQasemj5ulLLBYcCsQNiXL8AyRKfB1pP4QOZW/kBdKpTBKpSkQF5mOkF0mqPBGYWjQISW
KkG417XB5GDMQPk4KEF//ZTBEMXHQHZXcr4Oo4zB7a4QQR0xK0D3fIDB0fgKQWN0lb9DbmLBv+ri
QPzxCkCJEK3BNrmBQKabE792NaLBFeTyQM4w7UAN4KrBXTL4QDQRBcB9G6/BHpmbQAOWB0EAZpDB
9q25QAhrCEH6KITBCinaQHsxqkA+mJjBl2WwQMA3zEDXm53B2oOYQBz2zkBp1XvBLshdQCLP8kD0
JYLB8KmsQJ13kkBuwYnBrx8YQXgH1j+9/1HBuDwpQdGSpT6YNVrB8nUrQRsa9z+z2mbBMc9GQNMe
Q8DnopTB+hZYQImsO8DfdYbB8aKQQO/+CMDVjY/BtVkmQT0JmMAy0ofB7REiQYZtPsAjfYfBAVoR
QQsOgsA+Y3/B65+4QLdEBkHXdMvBJsGTQGi5EUGYCcLB8QjEQFa/H0Gic8XBhnCKQFmBKUB8d6vB
yaZqQKwf2D8rh6DBhs2BQHBVpcCicI3B+mSmQKP+i8CXiJbBOo0TQbSBfsBKOZjBTtUCQSMYosDG
bZDBAxiqQB2kicD5CnzByD3NQP+ypsDsxIbB+fkAQakDAMCEHJDBsUveQMguRMBCfZfB50lhQBYP
X0D3EZPBofnCQOYzZEBHUaDBI9OmQIdByT+sxI/BvlxJQACIrECezojBaBJaQLHBzUDvq5LBiZpM
QDa6gUBuBKXB

>  <OMEGA_E>  (42) 
YDIfPgC1GD4=

>  <OMEGA_NBR>  (42) 
      3203

$$$$
50162051
     RDKit          3D

 89 92  0  0  1  0  0  0  0  0999 V2000
    5.7377   10.1264  -22.2943 C   0  0  0  0  0  0  0  0  0  0  0  0
    5.6301   10.7028  -21.0130 C   0  0  0  0  0  0  0  0  0  0  0  0
    6.4501    8.9229  -22.4691 C   0  0  0  0  0  0  0  0  0  0  0  0
    6.2409   10.0805  -19.9077 C   0  0  0  0  0  0  0  0  0  0  0  0
    7.0572    8.2962  -21.3633 C   0  0  0  0  0  0  0  0  0  0  0  0
    6.9767   -0.0085  -16.8264 C   0  0  0  0  0  0  0  0  0  0  0  0
    8.5437    1.6106  -15.8817 C   0  0  0  0  0  0  0  0  0  0  0  0
    8.3280   -0.6027  -14.8837 C   0  0  0  0  0  0  0  0  0  0  0  0
    6.8471    1.2226  -21.4059 C   0  0  0  0  0  0  0  0  0  0  0  0
    5.1009   -0.3527  -20.7419 C   0  0  0  0  0  0  0  0  0  0  0  0
    7.2192   -1.1775  -21.6249 C   0  0  0  0  0  0  0  0  0  0  0  0
    7.5629    1.2793  -16.8422 C   0  0  0  0  0  0  0  0  0  0  0  0
    7.3736   -0.9582  -15.8594 C   0  0  0  0  0  0  0  0  0  0  0  0
    8.9040    0.6822  -14.8860 C   0  0  0  0  0  0  0  0  0  0  0  0
    5.5578    0.9724  -20.8862 C   0  0  0  0  0  0  0  0  0  0  0  0
    7.6807    0.1471  -21.7633 C   0  0  0  0  0  0  0  0  0  0  0  0
    5.9262   -1.4250  -21.1213 C   0  0  0  0  0  0  0  0  0  0  0  0
    6.9631    8.8796  -20.0801 C   0  0  0  0  0  0  0  0  0  0  0  0
    7.1376    2.2765  -17.8414 C   0  0  0  0  0  0  0  0  0  0  0  0
    6.7258   -2.2848  -15.7928 C   0  0  0  0  0  0  0  0  0  0  0  0
    5.3456    7.9059  -17.2703 C   0  0  0  0  0  0  0  0  0  0  0  0
    5.9856    5.9653  -18.7522 C   0  0  0  0  0  0  0  0  0  0  0  0
    4.3641    6.9824  -16.5409 C   0  0  0  0  0  0  0  0  0  0  0  0
    4.9559    5.0981  -17.9906 C   0  0  2  0  0  0  0  0  0  0  0  0
    9.9495    1.0441  -13.8546 C   0  0  0  0  0  0  0  0  0  0  0  0
    9.5858   -4.0155  -16.9448 C   0  0  0  0  0  0  0  0  0  0  0  0
    3.8346   -3.0617  -17.9202 C   0  0  0  0  0  0  0  0  0  0  0  0
    4.6553    2.1178  -20.4914 C   0  0  0  0  0  0  0  0  0  0  0  0
    8.6302   -4.0975  -18.1464 C   0  0  0  0  0  0  0  0  0  0  0  0
    4.6955   -4.3380  -17.9735 C   0  0  0  0  0  0  0  0  0  0  0  0
    7.5429   -3.0029  -18.0833 C   0  0  0  0  0  0  0  0  0  0  0  0
    5.7545   -4.3533  -16.8531 C   0  0  0  0  0  0  0  0  0  0  0  0
    4.3031    4.0439  -18.9009 C   0  0  2  0  0  0  0  0  0  0  0  0
    5.3314    3.0363  -19.4527 C   0  0  1  0  0  0  0  0  0  0  0  0
    6.4287    7.1237  -17.9390 N   0  0  0  0  0  0  0  0  0  0  0  0
    5.8450    2.2075  -18.3486 N   0  0  0  0  0  0  0  0  0  0  0  0
    6.6440   -3.1557  -16.9032 N   0  0  0  0  0  0  0  0  0  0  0  0
    3.8737    5.9510  -17.4634 N   0  0  0  0  0  0  0  0  0  0  0  0
    7.9146    3.1545  -18.2017 O   0  0  0  0  0  0  0  0  0  0  0  0
    6.2317   -2.6060  -14.7172 O   0  0  0  0  0  0  0  0  0  0  0  0
    8.0691    9.0937  -17.6704 O   0  0  0  0  0  0  0  0  0  0  0  0
    8.7179    7.1155  -19.1336 O   0  0  0  0  0  0  0  0  0  0  0  0
    3.6319    4.7015  -19.9787 O   0  0  0  0  0  0  0  0  0  0  0  0
    8.9212    0.3871  -22.2447 F   0  0  0  0  0  0  0  0  0  0  0  0
    5.4726   -2.6925  -21.0076 F   0  0  0  0  0  0  0  0  0  0  0  0
    7.6985    8.0527  -18.6388 S   0  0  0  0  0  0  0  0  0  0  0  0
    5.2741   10.6072  -23.1430 H   0  0  0  0  0  0  0  0  0  0  0  0
    5.0790   11.6219  -20.8789 H   0  0  0  0  0  0  0  0  0  0  0  0
    6.5304    8.4810  -23.4513 H   0  0  0  0  0  0  0  0  0  0  0  0
    6.1569   10.5226  -18.9259 H   0  0  0  0  0  0  0  0  0  0  0  0
    7.5951    7.3692  -21.4966 H   0  0  0  0  0  0  0  0  0  0  0  0
    6.2233   -0.2660  -17.5561 H   0  0  0  0  0  0  0  0  0  0  0  0
    9.0194    2.5798  -15.9108 H   0  0  0  0  0  0  0  0  0  0  0  0
    8.6187   -1.3201  -14.1305 H   0  0  0  0  0  0  0  0  0  0  0  0
    7.1926    2.2385  -21.5288 H   0  0  0  0  0  0  0  0  0  0  0  0
    4.1169   -0.5442  -20.3399 H   0  0  0  0  0  0  0  0  0  0  0  0
    7.8566   -2.0032  -21.9049 H   0  0  0  0  0  0  0  0  0  0  0  0
    4.7982    8.4828  -18.0303 H   0  0  0  0  0  0  0  0  0  0  0  0
    5.7981    8.5952  -16.5423 H   0  0  0  0  0  0  0  0  0  0  0  0
    6.8607    5.3464  -18.9993 H   0  0  0  0  0  0  0  0  0  0  0  0
    5.5245    6.3353  -19.6798 H   0  0  0  0  0  0  0  0  0  0  0  0
    4.8754    6.5017  -15.6939 H   0  0  0  0  0  0  0  0  0  0  0  0
    3.5143    7.5734  -16.1687 H   0  0  0  0  0  0  0  0  0  0  0  0
    5.4660    4.5873  -17.1605 H   0  0  0  0  0  0  0  0  0  0  0  0
    9.4596    1.4880  -12.9754 H   0  0  0  0  0  0  0  0  0  0  0  0
   10.4948    0.1381  -13.5519 H   0  0  0  0  0  0  0  0  0  0  0  0
   10.6547    1.7695  -14.2865 H   0  0  0  0  0  0  0  0  0  0  0  0
   10.3442   -4.8083  -17.0241 H   0  0  0  0  0  0  0  0  0  0  0  0
   10.0814   -3.0335  -16.9371 H   0  0  0  0  0  0  0  0  0  0  0  0
    9.0154   -4.1456  -16.0133 H   0  0  0  0  0  0  0  0  0  0  0  0
    3.0924   -3.0852  -18.7316 H   0  0  0  0  0  0  0  0  0  0  0  0
    3.3168   -3.0090  -16.9511 H   0  0  0  0  0  0  0  0  0  0  0  0
    4.4801   -2.1790  -18.0394 H   0  0  0  0  0  0  0  0  0  0  0  0
    4.4139    2.7083  -21.3876 H   0  0  0  0  0  0  0  0  0  0  0  0
    3.7289    1.7109  -20.0599 H   0  0  0  0  0  0  0  0  0  0  0  0
    9.2098   -3.9720  -19.0728 H   0  0  0  0  0  0  0  0  0  0  0  0
    8.1438   -5.0841  -18.1490 H   0  0  0  0  0  0  0  0  0  0  0  0
    4.0415   -5.2151  -17.8590 H   0  0  0  0  0  0  0  0  0  0  0  0
    5.2049   -4.3850  -18.9473 H   0  0  0  0  0  0  0  0  0  0  0  0
    8.0347   -2.0206  -18.0269 H   0  0  0  0  0  0  0  0  0  0  0  0
    6.9352   -3.0567  -18.9986 H   0  0  0  0  0  0  0  0  0  0  0  0
    5.2412   -4.3732  -15.8804 H   0  0  0  0  0  0  0  0  0  0  0  0
    6.3713   -5.2577  -16.9607 H   0  0  0  0  0  0  0  0  0  0  0  0
    3.5697    3.4849  -18.3010 H   0  0  0  0  0  0  0  0  0  0  0  0
    6.1557    3.5838  -19.9332 H   0  0  0  0  0  0  0  0  0  0  0  0
    5.2186    1.5475  -17.9338 H   0  0  0  0  0  0  0  0  0  0  0  0
    3.2183    5.3726  -16.9775 H   0  0  0  0  0  0  0  0  0  0  0  0
    3.4168    6.3996  -18.2315 H   0  0  0  0  0  0  0  0  0  0  0  0
    3.2274    4.0531  -20.5431 H   0  0  0  0  0  0  0  0  0  0  0  0
  1  2  2  0
  1  3  1  0
  2  4  1  0
  3  5  2  0
  4 18  2  0
  5 18  1  0
  6 12  2  0
  6 13  1  0
  7 12  1  0
  7 14  2  0
  8 13  2  0
  8 14  1  0
  9 15  2  0
  9 16  1  0
 10 15  1  0
 10 17  2  0
 11 16  2  0
 11 17  1  0
 12 19  1  0
 13 20  1  0
 14 25  1  0
 15 28  1  0
 16 44  1  0
 17 45  1  0
 18 46  1  0
 19 36  1  0
 19 39  2  0
 20 37  1  0
 20 40  2  0
 21 23  1  0
 21 35  1  0
 22 24  1  0
 22 35  1  0
 23 38  1  0
 24 33  1  0
 24 38  1  0
 26 29  1  0
 27 30  1  0
 28 34  1  0
 29 31  1  0
 30 32  1  0
 31 37  1  0
 32 37  1  0
 33 34  1  0
 33 43  1  0
 34 36  1  0
 35 46  1  0
 41 46  2  0
 42 46  2  0
  1 47  1  0
  2 48  1  0
  3 49  1  0
  4 50  1  0
  5 51  1  0
  6 52  1  0
  7 53  1  0
  8 54  1  0
  9 55  1  0
 10 56  1  0
 11 57  1  0
 21 58  1  0
 21 59  1  0
 22 60  1  0
 22 61  1  0
 23 62  1  0
 23 63  1  0
 24 64  1  1
 25 65  1  0
 25 66  1  0
 25 67  1  0
 26 68  1  0
 26 69  1  0
 26 70  1  0
 27 71  1  0
 27 72  1  0
 27 73  1  0
 28 74  1  0
 28 75  1  0
 29 76  1  0
 29 77  1  0
 30 78  1  0
 30 79  1  0
 31 80  1  0
 31 81  1  0
 32 82  1  0
 32 83  1  0
 33 84  1  1
 34 85  1  6
 36 86  1  0
 38 87  1  0
 38 88  1  0
 43 89  1  0
M  CHG  1  38   1
M  END
>  <OMEGA_C>  (43) 
i5u3QKgFIkGuWrLBbym0QJI+K0GlGqjB32bOQDnEDkHGwLPBj7XHQK1JIUHzQp/B9tThQFS9BEEh
6KrBB0HfQBjjC7xsnIbBErMIQX8nzj9cG37Bgj8FQYFKGr+oI27BPRvbQD1/nD9XP6vBQTqjQBCV
tL5g76XBkQPnQKO5lr/Q/6zBUQPyQHnAoz/kvIbBkPTrQLdOdb/3v33Bo3YOQeeiLj8hLW7BG9mx
QO/weD8DF6fBBMj1QGipFj5UG67BiqO9QNZmtr9c+KjBntHeQPsSDkEEpKDBgGfkQLOxEUAgu47B
DTrXQMo6EsBtr3zBZQ+rQBX9/ECYKYrBoom/QFbjvkCUBJbBfqaLQNZv30DSU4TBGJeeQLQjo0Cp
7I/B8zAfQVimhT9orF3BXl8ZQaB+gMD/jofBlWp1QC/yQ8B5XI/BmfiUQC6KB0Bz7qPBKRUKQbIe
g8C/K5HBXkGWQNjQisCtyY/BgF/xQKsvQMCPqpDB1yS4QHxOi8Ac04bBoLKJQIFngUACNZfBN5uq
QGhSQkAan5vB+7fNQEf140Aqg4/Bcgq7QLJHDUDZyZLBopvUQML2ScDMOYfBCOp3QFNuvkDxtIvB
U0T9QOziSUAcnZHBdmrHQDXJJsDJeWvBIhsBQa1/EUH8XI3BrnwLQdux40CjEZnBFnFoQHhylkBj
1J/BMr0OQbouxj4t9bHBnh+vQIhRLMCJD6jBRFr2QL3XAEFZHJXBP8WoQPm2KUHIJLnB8YaiQCLz
OUHyB6fBA/nQQDSyB0FFnLvBXQXFQKRcKEFLaJfB8wrzQHfQ60D++KvBaiXHQBs0iL7zcozBYk8Q
Qa0aJUC1kn7BS+YJQar3qL+iFmLBFyrmQNJCD0D3OqzByb2DQAtPC78cuKLBK2n7QLk0AMApPa/B
5oqZQIS5B0H2PZDBa4q5QACGCUGJVoTBQovbQL8Vq0Ci/pfBbMiwQMK6ykBUcJ3BmwOcQPYN0EBF
GnvBmOpgQKtZ8kBqWYHBKOmuQAXLkkDGSInBkFoXQdZ2vj8Wm0/B0uonQVdkDT6h1FjBhnkqQTF/
4j9VlWTB2oElQTPdmcBDMYjBm00hQbYkQsAof4fBHD8QQfuohMA/G4DBPOlFQF90RcBc2pXB1kVU
QDiUQMDfm4fB71yPQPNzC8CXUJDB+T6NQDFULUDEGavBDqduQOX/2j+ieqDBbVsTQfY0fsAMlZjB
70wCQRuxosAiMZHBSlSBQOHhpsBU347BTo6mQL9RjMAMlJfB8o0AQelQAcAKN5DByOzdQAyhQ8AO
/ZfB7LenQA7xi8AQFn7BwuHLQHA/qMCAr4fBu3ZkQEkJX0B6aJLBGPvEQGtdZUAqd5/B8P6mQMMU
xj9qeI/BWvlNQEjsq0Du0YfBkq1aQObJzEAN2pHBzI1OQDizgUA/WKTBQUW3QM+yIUGHZbLBie6z
QBwqK0H9MqjBDhvOQKRtDkEfs7PBb5fHQM5sIUHrT5/BpqrhQAigBEGQz6rBU1zfQEiTtLv2hIbB
4+8IQTRnzj89PH7BF2gFQRa0F79w+23BqcLbQNgUnT/d/arBULajQHektL4C46XBh7nnQP3hlb8V
3azBIU3yQI+zoz+ovobBYRjsQKYyc7+tfH3B760OQS3fMD+MMm7BFFyyQFAleT8u76bBOIf2QL4Z
Hj5E3K3B9Dq+QPQEtr/17ajBPrTeQFovDkGsmKDBtarkQGZlEUDlw47BtJLXQLbYEcDJcHzBucOq
QMJL/UDHH4rBBLK/QO8Vv0DA75XB3RqLQCK530DWY4TBD1WeQPB4o0AZ7o/BnWofQQPHhz/twF3B
MjV3QN9xQsBG/I7Bw3cZQVdxg8CZ94fBiEGVQDRhB0Ag1KPBZHeXQNXBicDfx4/BXioKQZ7sgsAc
mZHBOoe5QAFKi8BW3IbBr53yQFM5PsC7h5DB5KGJQPGpgUA+O5fBR6WqQCWnQkAPipvB55XNQDVc
5ECDb4/BJwG7QJsZDkC4pZLBCRnWQF4TSsBSEYfBbjx3QEz0vkDB2YvBmrv9QF/DSECcyJHB3O/G
QE7+JcDxZGvBCscAQQfxEUG0SI3BbIwLQTeC5EDT4ZjBeSlpQMidlkCd7p/BhCMPQQyLyz7TqbHB
s7WvQBQuLMBVHqjB/yb2QKUnAUFWAZXBiFGoQG43KUEXOLnB8EqiQMLjOUGFM6fBApvQQCItB0Fe
hLvBM/3EQAuvKEGcf5fB6fDyQPyU60DNzavBGhfHQPWTh75bT4zBn6MQQQkGJUDj3n7BthQKQbk3
p7/V4mHBDtrmQMCbD0Dx46vBYB+EQLkiDL9Cv6LBjC/8QB1O/7+FHa/BNXqZQETzB0GtN5DBZRS5
QA2cCUEXPoTBb8rbQOkzq0Cdx5fBTmWxQNTDykDIbZ3BvTObQAkn0ECkM3vBw7ZfQKSi8kCCcYHB
xUOuQKUvk0DaOInBd5cXQZqwwT/Av0/B5x8oQT2FID4hyFjBrLYqQXgA5D9NxWTBtolHQPqRQsAG
dpXBc0BWQFJ0QcDQNYfBQQWQQOhkCcDyto/BhT8lQTtHncBK+4jBgdQhQVMVScCOcIfBrUUQQcPe
iMBploDB832NQK/ZLEByBavBzE1vQElB2j8kYaDBbMKCQIQWpsAXF4/Bc6enQM8OisA5mJfBTn4T
QZtLe8Bn8ZjBeu8BQef5ocBDF5LBcUGpQNKijMAmIX7BVyTNQNE0qMDi7IfBD6UBQRaNAMDYu4/B
jsveQA+RPcBQzZfB499jQFHLX0CveZLBOxLFQEiOZUCcYZ/BRLmmQPxmyj8iKY/BGHxMQNuSrEDE
EIjBiBBbQC99zUALDJLBqIVPQAfUgUAcdaTBenexQOqJI0GbqrHBNkyvQBJTLEG5TKfBPwfJQFOp
EEG1frPBdr3EQIVDIkETxJ7BLGzeQByMBkHZ9arBXqbdQKB+JTszqoXBwHAKQfNUxT9P2n7BO0wF
QWboGL8n2GzB3ancQGhkpD+GKqzBtiOpQIORtb5YgaXBFUjsQIjejL+AeK3BO1LzQBmrnj84nIbB
EznpQH1daL8jEnvB9VAQQRGLHz+IyW7Bvf60QAzOfD9jTafBE074QKfmdT56N6/BB7LEQJrGsr+J
n6jBfnbcQKJfD0E6kaDBIyPmQAyJDkDtxY7BvTvPQB/PBsCibHfB5pmrQBsB/UB8E4rBG5DAQA1J
v0DKEpbBnTONQFfC3kAmJoTBBC6gQPMBo0BV6o/BEiAhQTZlfz93eV7BqNFlQOe+j8CV34/BxWsW
QSoOccAsfJbBBjCXQDidBkCA8qPBD0qUQPquX8CO5YvBeLIAQTVxVcBDEJLBLIGyQEbuhcDW1IPB
300AQeJyZsCJ/IXBnVaLQNn8gEBmKJfB3GWsQAJ7QUCKkJvBQ1rOQMvI5ED2no/BjIe8QCEYDECL
tpLBTZLWQL7OUsAyUYHB9el6QDjTvUCQi4vBVn7/QAU6RUBv1pHBNDWwQPVeAMCKiWvBsR0BQWcz
EkEsjI3BhywLQUdo5kBCwZnBIANrQNfLlUC7wp/BzCsPQR4uBj8H2LPBNSu5QO2nK8By86bBbdr1
QMnLAUEcYZXB2BChQCFGK0H0NrjBmDCdQCTGOkFl5qXB8q7KQNLxCUHccbvBhQrDQHwCKUGn0pbB
FlXwQEUT8EAaXazBnTnEQO4se77HK4vBJNESQT3iHkCrGIDBEqoJQaDmpb/raWDBucnlQATyE0Bg
i63Bn+iKQGEbFb9cvKHBUbYAQeBh87+S2a/BAUyZQLahB0FFDJDBJxO6QAqaCUG8SITBu9jcQB3r
q0DEEpjBjHGxQPDFykCwe53BlmCeQD9ez0B6AHvBV+1jQNAZ8UDP+oDBAAmxQK/GkkBlV4nBMn4Z
QRXEwT9771DBdiQpQYoSsz0CsljB2PssQRoD1T8O62XBhPM6QKO3f8AenZXBQxKDQJC9qsC50ZPB
XD5AQJilm8BlDYnB4uoWQaMuZcDLJ5/BSyojQe0sTMCQiZLB0dIYQTTZmsB48ZTBJreOQAvZLEC9
BqvBsQl0QBow1T/Qe6DBUQmnQN/kR8C1uZLBOxaEQO+0KcBh9YfB2IP8QFHIEMDxk5PB5NTnQMxN
esDY+5XBe8egQOk7jcDu5njBmsS+QN/Mo8DjVYfBNAAEQVAolcBMjYTBzHwMQbQ8PsDbGoLBliZo
QDIdXkDKTpLBXenGQIemZEBxVJ/BKROoQB9Xxj+QS4/BwbVRQJH+qkDgoYfB99BcQBo5zEBsnpHB
EDhRQCTqgEDOPqTB

>  <OMEGA_E>  (43) 
ACqFPIDsUjzYi68+

>  <OMEGA_NBR>  (43) 
      7613

$$$$
50161998
     RDKit          3D

 89 92  0  0  1  0  0  0  0  0999 V2000
    8.7201    9.3245  -16.6924 C   0  0  0  0  0  0  0  0  0  0  0  0
    8.0520    9.3709  -19.0480 C   0  0  0  0  0  0  0  0  0  0  0  0
    8.6516   10.7270  -16.6584 C   0  0  0  0  0  0  0  0  0  0  0  0
    7.9412   10.7651  -18.9996 C   0  0  0  0  0  0  0  0  0  0  0  0
    7.0117    0.0684  -16.8635 C   0  0  0  0  0  0  0  0  0  0  0  0
    8.6440    1.6435  -15.9594 C   0  0  0  0  0  0  0  0  0  0  0  0
    8.3687   -0.5563  -14.9386 C   0  0  0  0  0  0  0  0  0  0  0  0
    6.8630    1.4219  -21.5623 C   0  0  0  0  0  0  0  0  0  0  0  0
    5.2715   -0.2708  -20.8033 C   0  0  0  0  0  0  0  0  0  0  0  0
    7.3945   -0.9470  -21.7907 C   0  0  0  0  0  0  0  0  0  0  0  0
    7.6314    1.3385  -16.8971 C   0  0  0  0  0  0  0  0  0  0  0  0
    7.3831   -0.8786  -15.8905 C   0  0  0  0  0  0  0  0  0  0  0  0
    9.0173    0.6927  -14.9860 C   0  0  0  0  0  0  0  0  0  0  0  0
    5.6227    1.0794  -20.9771 C   0  0  0  0  0  0  0  0  0  0  0  0
    7.7518    0.4063  -21.9610 C   0  0  0  0  0  0  0  0  0  0  0  0
    6.1499   -1.2820  -21.2194 C   0  0  0  0  0  0  0  0  0  0  0  0
    8.4163    8.6510  -17.8888 C   0  0  0  0  0  0  0  0  0  0  0  0
    8.2516   11.4435  -17.8064 C   0  0  0  0  0  0  0  0  0  0  0  0
    7.1810    2.3400  -17.8809 C   0  0  0  0  0  0  0  0  0  0  0  0
    6.6819   -2.1694  -15.8098 C   0  0  0  0  0  0  0  0  0  0  0  0
    5.4116    7.9467  -17.5383 C   0  0  0  0  0  0  0  0  0  0  0  0
    5.7383    6.0431  -19.1226 C   0  0  0  0  0  0  0  0  0  0  0  0
    4.5858    7.0515  -16.6112 C   0  0  0  0  0  0  0  0  0  0  0  0
    4.9945    5.1405  -18.1203 C   0  0  2  0  0  0  0  0  0  0  0  0
   10.0496    1.0424  -13.9381 C   0  0  0  0  0  0  0  0  0  0  0  0
    3.8903   -3.0280  -18.0241 C   0  0  0  0  0  0  0  0  0  0  0  0
    9.5672   -4.0322  -16.7843 C   0  0  0  0  0  0  0  0  0  0  0  0
    4.6656    2.1475  -20.5196 C   0  0  0  0  0  0  0  0  0  0  0  0
    4.7685   -4.2926  -18.0121 C   0  0  0  0  0  0  0  0  0  0  0  0
    8.6792   -4.0885  -18.0381 C   0  0  0  0  0  0  0  0  0  0  0  0
    5.7673   -4.2776  -16.8379 C   0  0  0  0  0  0  0  0  0  0  0  0
    7.6160   -2.9697  -18.0284 C   0  0  0  0  0  0  0  0  0  0  0  0
    4.2876    4.0078  -18.8524 C   0  0  2  0  0  0  0  0  0  0  0  0
    5.3253    3.0437  -19.4644 C   0  0  1  0  0  0  0  0  0  0  0  0
    6.3349    7.1079  -18.3599 N   0  0  0  0  0  0  0  0  0  0  0  0
    5.8925    2.2176  -18.3913 N   0  0  0  0  0  0  0  0  0  0  0  0
    6.6660   -3.0889  -16.8821 N   0  0  0  0  0  0  0  0  0  0  0  0
    3.9852    5.9502  -17.3923 N   0  0  0  0  0  0  0  0  0  0  0  0
    7.9216    3.2558  -18.2252 O   0  0  0  0  0  0  0  0  0  0  0  0
    6.0787   -2.4081  -14.7692 O   0  0  0  0  0  0  0  0  0  0  0  0
    7.9672    6.4554  -16.4817 O   0  0  0  0  0  0  0  0  0  0  0  0
    8.7241    6.2797  -18.9292 O   0  0  0  0  0  0  0  0  0  0  0  0
    3.4410    4.5642  -19.8606 O   0  0  0  0  0  0  0  0  0  0  0  0
    8.9432    0.7295  -22.5135 F   0  0  0  0  0  0  0  0  0  0  0  0
    5.7892   -2.5752  -21.0764 F   0  0  0  0  0  0  0  0  0  0  0  0
    7.9596    6.9498  -17.8662 S   0  0  0  0  0  0  0  0  0  0  0  0
    8.1667   13.1811  -17.7559 Cl  0  0  0  0  0  0  0  0  0  0  0  0
    9.0029    8.7698  -15.8099 H   0  0  0  0  0  0  0  0  0  0  0  0
    7.8591    8.8455  -19.9716 H   0  0  0  0  0  0  0  0  0  0  0  0
    8.9053   11.2577  -15.7526 H   0  0  0  0  0  0  0  0  0  0  0  0
    7.6199   11.3161  -19.8711 H   0  0  0  0  0  0  0  0  0  0  0  0
    6.2493   -0.1767  -17.5881 H   0  0  0  0  0  0  0  0  0  0  0  0
    9.1329    2.6061  -15.9880 H   0  0  0  0  0  0  0  0  0  0  0  0
    8.6281   -1.2689  -14.1696 H   0  0  0  0  0  0  0  0  0  0  0  0
    7.1276    2.4595  -21.7029 H   0  0  0  0  0  0  0  0  0  0  0  0
    4.3261   -0.5292  -20.3496 H   0  0  0  0  0  0  0  0  0  0  0  0
    8.0747   -1.7275  -22.0981 H   0  0  0  0  0  0  0  0  0  0  0  0
    4.7365    8.5054  -18.2033 H   0  0  0  0  0  0  0  0  0  0  0  0
    5.9998    8.6537  -16.9349 H   0  0  0  0  0  0  0  0  0  0  0  0
    6.5176    5.4680  -19.6440 H   0  0  0  0  0  0  0  0  0  0  0  0
    5.0317    6.4543  -19.8586 H   0  0  0  0  0  0  0  0  0  0  0  0
    5.2374    6.6334  -15.8299 H   0  0  0  0  0  0  0  0  0  0  0  0
    3.7875    7.6463  -16.1433 H   0  0  0  0  0  0  0  0  0  0  0  0
    5.7193    4.7184  -17.4086 H   0  0  0  0  0  0  0  0  0  0  0  0
    9.5523    1.5047  -13.0727 H   0  0  0  0  0  0  0  0  0  0  0  0
   10.5698    0.1280  -13.6166 H   0  0  0  0  0  0  0  0  0  0  0  0
   10.7782    1.7487  -14.3627 H   0  0  0  0  0  0  0  0  0  0  0  0
    3.1922   -3.0738  -18.8730 H   0  0  0  0  0  0  0  0  0  0  0  0
    3.3213   -2.9680  -17.0846 H   0  0  0  0  0  0  0  0  0  0  0  0
    4.5298   -2.1385  -18.1230 H   0  0  0  0  0  0  0  0  0  0  0  0
   10.3112   -4.8414  -16.8246 H   0  0  0  0  0  0  0  0  0  0  0  0
   10.0832   -3.0616  -16.7439 H   0  0  0  0  0  0  0  0  0  0  0  0
    8.9425   -4.1529  -15.8870 H   0  0  0  0  0  0  0  0  0  0  0  0
    4.3695    2.7621  -21.3825 H   0  0  0  0  0  0  0  0  0  0  0  0
    3.7739    1.6724  -20.0846 H   0  0  0  0  0  0  0  0  0  0  0  0
    4.1206   -5.1765  -17.9186 H   0  0  0  0  0  0  0  0  0  0  0  0
    5.3290   -4.3471  -18.9570 H   0  0  0  0  0  0  0  0  0  0  0  0
    9.3123   -3.9724  -18.9301 H   0  0  0  0  0  0  0  0  0  0  0  0
    8.1716   -5.0638  -18.0732 H   0  0  0  0  0  0  0  0  0  0  0  0
    5.2040   -4.2616  -15.8932 H   0  0  0  0  0  0  0  0  0  0  0  0
    6.3817   -5.1889  -16.8830 H   0  0  0  0  0  0  0  0  0  0  0  0
    8.1277   -1.9983  -17.9621 H   0  0  0  0  0  0  0  0  0  0  0  0
    7.0438   -3.0195  -18.9665 H   0  0  0  0  0  0  0  0  0  0  0  0
    3.6818    3.4464  -18.1258 H   0  0  0  0  0  0  0  0  0  0  0  0
    6.1210    3.6339  -19.9425 H   0  0  0  0  0  0  0  0  0  0  0  0
    5.3060    1.5107  -17.9958 H   0  0  0  0  0  0  0  0  0  0  0  0
    3.4861    5.3506  -16.7667 H   0  0  0  0  0  0  0  0  0  0  0  0
    3.3494    6.3410  -18.0579 H   0  0  0  0  0  0  0  0  0  0  0  0
    2.9956    3.8638  -20.3228 H   0  0  0  0  0  0  0  0  0  0  0  0
  1  3  2  0
  1 17  1  0
  2  4  1  0
  2 17  2  0
  3 18  1  0
  4 18  2  0
  5 11  2  0
  5 12  1  0
  6 11  1  0
  6 13  2  0
  7 12  2  0
  7 13  1  0
  8 14  2  0
  8 15  1  0
  9 14  1  0
  9 16  2  0
 10 15  2  0
 10 16  1  0
 11 19  1  0
 12 20  1  0
 13 25  1  0
 14 28  1  0
 15 44  1  0
 16 45  1  0
 17 46  1  0
 18 47  1  0
 19 36  1  0
 19 39  2  0
 20 37  1  0
 20 40  2  0
 21 23  1  0
 21 35  1  0
 22 24  1  0
 22 35  1  0
 23 38  1  0
 24 33  1  0
 24 38  1  0
 26 29  1  0
 27 30  1  0
 28 34  1  0
 29 31  1  0
 30 32  1  0
 31 37  1  0
 32 37  1  0
 33 34  1  0
 33 43  1  0
 34 36  1  0
 35 46  1  0
 41 46  2  0
 42 46  2  0
  1 48  1  0
  2 49  1  0
  3 50  1  0
  4 51  1  0
  5 52  1  0
  6 53  1  0
  7 54  1  0
  8 55  1  0
  9 56  1  0
 10 57  1  0
 21 58  1  0
 21 59  1  0
 22 60  1  0
 22 61  1  0
 23 62  1  0
 23 63  1  0
 24 64  1  1
 25 65  1  0
 25 66  1  0
 25 67  1  0
 26 68  1  0
 26 69  1  0
 26 70  1  0
 27 71  1  0
 27 72  1  0
 27 73  1  0
 28 74  1  0
 28 75  1  0
 29 76  1  0
 29 77  1  0
 30 78  1  0
 30 79  1  0
 31 80  1  0
 31 81  1  0
 32 82  1  0
 32 83  1  0
 33 84  1  1
 34 85  1  6
 36 86  1  0
 38 87  1  0
 38 88  1  0
 43 89  1  0
M  CHG  1  38   1
M  END
>  <OMEGA_C>  (44) 
poULQSQxFUHziYXBLdUAQUTvFUFJYpjB4GwKQfuhK0FZRIXBQR7+QN89LEEr/5fBsl/gQGwEjD1j
6IbBuE0KQbBd0j+kWX/BEuYFQbZmDr9UBG/BlJ3bQI7/tT+Wf6zBU7CoQFClir4SbabBgJ/sQKtw
cr9bU67BZzT0QJhUqz8rLYfBlELsQIvqYL+WP37B9kYQQSxXMT/Xxm/B/uyzQCgrij8k0afB6w74
QHsL0D44sK/B88vEQBoZpL8+wanBQKkGQXZqCkEwHI/BpgYEQZAYN0Foc47B7MrlQCTDFUD9C4/B
G9LVQD3YCsAQ9XzBbyutQBlL/kCETozBEqC3QLpgwUAN+5jBk76SQAGm4UDN44TBANOfQEl/pEBW
9pDBScsgQQNshT+jAl/B6fl4QDTLQcBiMZDBLxMZQaEHgcAvRobBRkyVQM1wCUASKKTBvJeYQLZc
icDWGJDB3d0KQT/VgsADTpDBe424QD/iiMD2s4bBYLbzQOIPPsAiOpDB4DOJQLM/gECr0ZbBN2mq
QEbMQkAFt5vBp7fKQJdz40D94JLBTI+8QC3tDUBIIZPBO1DVQJWwRcCBDofB+Q1/QCtovkCEI4vB
o339QDdfUEBDzZHBfYTCQMUdGsCpTmzBL/P+QMmSzkB12oPB+ZULQX/zyEASb5fBzzhcQN4NkkCY
4p7BdRcPQdS+Oj+RG7TBBEG5QKnQJMBwnKjBN7X+QCll3kAU7o7B7aoCQbflUkEeDI7B0AsQQUJR
DEEw9XzBfn37QE2HDUHtxZ/BB3wOQX4fNEGVCnzBfNbzQMUONUEX+J7BD/rHQMnwNL5qtIzBMCAS
QeLJJkC8zn/BkAwKQd9por+itmLBfhXkQKZnHUCUn63BTG+KQMl3B78FzKLB3DEBQVgg3b/7yLDB
b5GXQPAVCEFcoJHB+f2/QHx1CkGoeofBjJDQQMX5rkD3Jp3BDgShQE6JzkBl3p7BBZmnQKdE1EA5
R33BLWZyQNSu9ECIJYHBaQS3QD79lkDLRIvBaNYYQeKZwD/gKVHB5R0pQWUQAz7M3VnBo3MsQavU
3z+mzWXBYE1MQD25RMD2+5bBc5BUQH/zPcA9rYjB5/OQQGHdCMDg+5DBiPokQersmsC3mIbBwlQh
QZzwQ8CA84XBdhQPQe3khMDzMH7Bq9KLQKPFMEBbD6vBuodxQOwP1j9FraDBvduDQEmmpcBhWY/B
a4eqQDobi8AEqJfBCv8UQcQ7fsDecJfBv74CQYEKosDXlZDBM4emQEdfiMBlSn7B9jbMQGwLpsB3
EIfBMQsCQbHG/79pso/BJGfhQJ4/QcB7u5fBQqNrQF2SXECPAZHBXt/DQJ6RaEA5ip/BBcupQPlf
wT9Q94/BzBxfQCI4q0BNIobBJVxWQCzpykCjdpDBD7g/QPJHd0AGlaLB

>  <OMEGA_E>  (44) 
JvUXPw==

>  <OMEGA_NBR>  (44) 
      9385

$$$$
50162054
     RDKit          3D

 93 96  0  0  1  0  0  0  0  0999 V2000
    6.9968    0.0302  -16.8863 C   0  0  0  0  0  0  0  0  0  0  0  0
    8.5563    1.6688  -15.9630 C   0  0  0  0  0  0  0  0  0  0  0  0
    8.3513   -0.5326  -14.9375 C   0  0  0  0  0  0  0  0  0  0  0  0
    6.7970    1.2861  -21.4418 C   0  0  0  0  0  0  0  0  0  0  0  0
    5.0765   -0.3102  -20.7610 C   0  0  0  0  0  0  0  0  0  0  0  0
    7.1981   -1.1095  -21.6583 C   0  0  0  0  0  0  0  0  0  0  0  0
    7.3484    7.8092  -21.3759 C   0  0  0  0  0  0  0  0  0  0  0  0
    7.5757    1.3204  -16.9167 C   0  0  0  0  0  0  0  0  0  0  0  0
    7.4009   -0.9062  -15.9099 C   0  0  0  0  0  0  0  0  0  0  0  0
    8.9199    0.7555  -14.9555 C   0  0  0  0  0  0  0  0  0  0  0  0
    5.5143    1.0198  -20.9128 C   0  0  0  0  0  0  0  0  0  0  0  0
    7.6421    0.2206  -21.8020 C   0  0  0  0  0  0  0  0  0  0  0  0
    5.9123   -1.3722  -21.1442 C   0  0  0  0  0  0  0  0  0  0  0  0
    7.1923    8.4875  -20.1889 C   0  0  0  0  0  0  0  0  0  0  0  0
    6.1052    9.5960  -21.8711 C   0  0  0  0  0  0  0  0  0  0  0  0
    7.1341    2.3061  -17.9162 C   0  0  0  0  0  0  0  0  0  0  0  0
    6.7617   -2.2355  -15.8275 C   0  0  0  0  0  0  0  0  0  0  0  0
    5.3228    7.9089  -17.2957 C   0  0  0  0  0  0  0  0  0  0  0  0
    5.9468    5.9401  -18.7164 C   0  0  0  0  0  0  0  0  0  0  0  0
    4.3208    7.0205  -16.5502 C   0  0  0  0  0  0  0  0  0  0  0  0
    4.8957    5.0963  -17.9661 C   0  0  2  0  0  0  0  0  0  0  0  0
    9.9615    1.1384  -13.9285 C   0  0  0  0  0  0  0  0  0  0  0  0
    5.2637   10.6090  -22.6052 C   0  0  0  0  0  0  0  0  0  0  0  0
    3.8759   -2.9619  -17.8784 C   0  0  0  0  0  0  0  0  0  0  0  0
    9.6467   -3.9056  -16.9987 C   0  0  0  0  0  0  0  0  0  0  0  0
    6.0105   10.6510  -19.5948 C   0  0  0  0  0  0  0  0  0  0  0  0
    4.6015    2.1517  -20.5059 C   0  0  0  0  0  0  0  0  0  0  0  0
    4.6964   -4.2634  -17.9568 C   0  0  0  0  0  0  0  0  0  0  0  0
    8.6750   -4.0345  -18.1825 C   0  0  0  0  0  0  0  0  0  0  0  0
    5.7914   -4.3128  -16.8719 C   0  0  0  0  0  0  0  0  0  0  0  0
    7.5651   -2.9647  -18.1217 C   0  0  0  0  0  0  0  0  0  0  0  0
    4.2441    4.0563  -18.8925 C   0  0  2  0  0  0  0  0  0  0  0  0
    5.2785    3.0688  -19.4698 C   0  0  1  0  0  0  0  0  0  0  0  0
    6.4086    9.5656  -20.5294 N   0  0  0  0  0  0  0  0  0  0  0  0
    6.6860    8.5330  -22.3771 N   0  0  0  0  0  0  0  0  0  0  0  0
    6.4059    7.0804  -17.8987 N   0  0  0  0  0  0  0  0  0  0  0  0
    5.8251    2.2424  -18.3809 N   0  0  0  0  0  0  0  0  0  0  0  0
    6.6866   -3.1206  -16.9272 N   0  0  0  0  0  0  0  0  0  0  0  0
    3.8214    5.9710  -17.4513 N   0  0  0  0  0  0  0  0  0  0  0  0
    7.9079    3.1759  -18.3021 O   0  0  0  0  0  0  0  0  0  0  0  0
    6.2618   -2.5425  -14.7504 O   0  0  0  0  0  0  0  0  0  0  0  0
    8.0107    9.1047  -17.7306 O   0  0  0  0  0  0  0  0  0  0  0  0
    8.8167    6.9378  -18.7950 O   0  0  0  0  0  0  0  0  0  0  0  0
    3.5685    4.7296  -19.9579 O   0  0  0  0  0  0  0  0  0  0  0  0
    8.8763    0.4750  -22.2921 F   0  0  0  0  0  0  0  0  0  0  0  0
    5.4741   -2.6444  -21.0256 F   0  0  0  0  0  0  0  0  0  0  0  0
    7.7510    7.9235  -18.5644 S   0  0  0  0  0  0  0  0  0  0  0  0
    6.2437   -0.2394  -17.6119 H   0  0  0  0  0  0  0  0  0  0  0  0
    9.0290    2.6389  -16.0065 H   0  0  0  0  0  0  0  0  0  0  0  0
    8.6447   -1.2384  -14.1745 H   0  0  0  0  0  0  0  0  0  0  0  0
    7.1283    2.3061  -21.5694 H   0  0  0  0  0  0  0  0  0  0  0  0
    4.0986   -0.5134  -20.3501 H   0  0  0  0  0  0  0  0  0  0  0  0
    7.8434   -1.9277  -21.9422 H   0  0  0  0  0  0  0  0  0  0  0  0
    7.8864    6.8827  -21.5122 H   0  0  0  0  0  0  0  0  0  0  0  0
    4.7986    8.4558  -18.0932 H   0  0  0  0  0  0  0  0  0  0  0  0
    5.7662    8.6263  -16.5895 H   0  0  0  0  0  0  0  0  0  0  0  0
    6.8101    5.3031  -18.9590 H   0  0  0  0  0  0  0  0  0  0  0  0
    5.5008    6.3230  -19.6462 H   0  0  0  0  0  0  0  0  0  0  0  0
    4.8175    6.5546  -15.6864 H   0  0  0  0  0  0  0  0  0  0  0  0
    3.4773    7.6343  -16.2011 H   0  0  0  0  0  0  0  0  0  0  0  0
    5.3856    4.5754  -17.1303 H   0  0  0  0  0  0  0  0  0  0  0  0
    9.4678    1.5912  -13.0560 H   0  0  0  0  0  0  0  0  0  0  0  0
   10.5124    0.2402  -13.6127 H   0  0  0  0  0  0  0  0  0  0  0  0
   10.6625    1.8622  -14.3697 H   0  0  0  0  0  0  0  0  0  0  0  0
    5.9062   11.4222  -22.9738 H   0  0  0  0  0  0  0  0  0  0  0  0
    4.7636   10.1228  -23.4558 H   0  0  0  0  0  0  0  0  0  0  0  0
    4.5068   11.0211  -21.9217 H   0  0  0  0  0  0  0  0  0  0  0  0
    3.1077   -2.9642  -18.6657 H   0  0  0  0  0  0  0  0  0  0  0  0
    3.3912   -2.8929  -16.8934 H   0  0  0  0  0  0  0  0  0  0  0  0
    4.5432   -2.0988  -18.0199 H   0  0  0  0  0  0  0  0  0  0  0  0
   10.4225   -4.6819  -17.0743 H   0  0  0  0  0  0  0  0  0  0  0  0
   10.1190   -2.9123  -17.0186 H   0  0  0  0  0  0  0  0  0  0  0  0
    9.0943   -4.0301  -16.0557 H   0  0  0  0  0  0  0  0  0  0  0  0
    5.3859   11.3834  -20.1272 H   0  0  0  0  0  0  0  0  0  0  0  0
    5.4400   10.2227  -18.7574 H   0  0  0  0  0  0  0  0  0  0  0  0
    6.9111   11.1500  -19.2076 H   0  0  0  0  0  0  0  0  0  0  0  0
    4.3458    2.7442  -21.3967 H   0  0  0  0  0  0  0  0  0  0  0  0
    3.6834    1.7325  -20.0684 H   0  0  0  0  0  0  0  0  0  0  0  0
    4.0201   -5.1200  -17.8201 H   0  0  0  0  0  0  0  0  0  0  0  0
    5.1721   -4.3260  -18.9466 H   0  0  0  0  0  0  0  0  0  0  0  0
    9.2365   -3.9141  -19.1207 H   0  0  0  0  0  0  0  0  0  0  0  0
    8.2118   -5.0319  -18.1578 H   0  0  0  0  0  0  0  0  0  0  0  0
    5.3105   -4.3503  -15.8833 H   0  0  0  0  0  0  0  0  0  0  0  0
    6.3971   -5.2190  -17.0196 H   0  0  0  0  0  0  0  0  0  0  0  0
    8.0349   -1.9707  -18.0868 H   0  0  0  0  0  0  0  0  0  0  0  0
    6.9465   -3.0463  -19.0277 H   0  0  0  0  0  0  0  0  0  0  0  0
    3.5164    3.4807  -18.3016 H   0  0  0  0  0  0  0  0  0  0  0  0
    6.0855    3.6343  -19.9586 H   0  0  0  0  0  0  0  0  0  0  0  0
    6.6596    8.2753  -23.3430 H   0  0  0  0  0  0  0  0  0  0  0  0
    5.2096    1.5870  -17.9431 H   0  0  0  0  0  0  0  0  0  0  0  0
    3.1634    5.4078  -16.9515 H   0  0  0  0  0  0  0  0  0  0  0  0
    3.3654    6.4069  -18.2272 H   0  0  0  0  0  0  0  0  0  0  0  0
    3.1648    4.0894  -20.5321 H   0  0  0  0  0  0  0  0  0  0  0  0
  1  8  2  0
  1  9  1  0
  2  8  1  0
  2 10  2  0
  3  9  2  0
  3 10  1  0
  4 11  2  0
  4 12  1  0
  5 11  1  0
  5 13  2  0
  6 12  2  0
  6 13  1  0
  7 14  2  0
  7 35  1  0
  8 16  1  0
  9 17  1  0
 10 22  1  0
 11 27  1  0
 12 45  1  0
 13 46  1  0
 14 34  1  0
 14 47  1  0
 15 23  1  0
 15 34  1  0
 15 35  2  0
 16 37  1  0
 16 40  2  0
 17 38  1  0
 17 41  2  0
 18 20  1  0
 18 36  1  0
 19 21  1  0
 19 36  1  0
 20 39  1  0
 21 32  1  0
 21 39  1  0
 24 28  1  0
 25 29  1  0
 26 34  1  0
 27 33  1  0
 28 30  1  0
 29 31  1  0
 30 38  1  0
 31 38  1  0
 32 33  1  0
 32 44  1  0
 33 37  1  0
 36 47  1  0
 42 47  2  0
 43 47  2  0
  1 48  1  0
  2 49  1  0
  3 50  1  0
  4 51  1  0
  5 52  1  0
  6 53  1  0
  7 54  1  0
 18 55  1  0
 18 56  1  0
 19 57  1  0
 19 58  1  0
 20 59  1  0
 20 60  1  0
 21 61  1  1
 22 62  1  0
 22 63  1  0
 22 64  1  0
 23 65  1  0
 23 66  1  0
 23 67  1  0
 24 68  1  0
 24 69  1  0
 24 70  1  0
 25 71  1  0
 25 72  1  0
 25 73  1  0
 26 74  1  0
 26 75  1  0
 26 76  1  0
 27 77  1  0
 27 78  1  0
 28 79  1  0
 28 80  1  0
 29 81  1  0
 29 82  1  0
 30 83  1  0
 30 84  1  0
 31 85  1  0
 31 86  1  0
 32 87  1  1
 33 88  1  6
 35 89  1  0
 37 90  1  0
 39 91  1  0
 39 92  1  0
 44 93  1  0
M  CHG  2  35   1  39   1
M  END
>  <OMEGA_C>  (45) 
I+bfQBZF9zwoF4fBuOYIQZea1T+KaH/B4J4FQW5XCL/o/27B2YDZQDSfpD/EiKvBT3KiQFXQnr5x
FqbB+lbmQPQEjr8hRK3BfSbrQBbl+UDxAavBSWzyQPcBqT9eVYfBVtTsQJT/Z7/4jn7BBbgOQdZo
QT/BSW/BiXWwQJeJgj92TafBLIz0QCrbYT6Jaq7BgzG9QESkr788J6nBQSfmQN3MB0HQgqHBiV3D
QC+JGUEK+K7B9ErkQIiWE0B1VI/BM2DYQL4SD8BIPX3BglSqQJ0V/UCSXYrB80u+QBIVvkApu5XB
BkSKQCmo4EDaZoTBqamcQDwVo0CUuo/BTmIfQVe2kT8n217B/2+oQIO+KUF617TBPg94QBKPPcD1
Bo/BFVkaQbb1ecBZ/YfB6lXAQHpqKkENwpzBoT+TQOq0CUAoDKTBGEmWQGNtiMBwp4/BncwKQXIa
gcC6dZHB41K5QFgCisCh+YbBjBXyQDO+PcBT+ZDBos+HQOXMgUDcI5fBRumoQP5mREAvwpvB8RLN
QMUMGUFJPKTBx/PVQA+HCEFlBLPBhv3MQH+S4kB0MI/BaWe6QL6DD0ACDJPBRPjVQLK4R8DpaofB
R5F0QB4Sv0BFnIvBOg39QCdBS0C8apLBhWDIQPu3IsCNAWzBzCsAQdysEUE+2I3BGxENQRUC3kA/
XJbB+GFkQJhYl0C4qZ/BbwUOQbMz8z4oVrLBtCuvQAU+KcBmNKjBUgj4QPeM/UDLg5TBj8zHQLcj
db495YzBzXYQQVnjKEBUDYDBylAKQUiDnr+5ymLBrRrkQPiWE0AwjqzBXieDQKlwA78CzaLBdP36
QOm99r+Pia/Byl38QEE/3ED+GKzB7I2ZQNhKB0H1vpDBYIS4QFUFCkE1t4TBeuzZQNOyqUAXrJfB
8gawQF9WykBYK53BDimaQK6/0UBf+3rB4oxeQDRM9EDqm4HBGFesQJBpkkDWConBJXwXQaOsyz99
5VDBwjIoQVzsdT6tzVnBk5kqQQZe7j8n6mXB7/+8QELBNkFYyrfBqG+YQNr2IUGDpbvBXzeQQJJW
MEGSX6/BHORGQMm0PcBDU5XBzwhZQIYlOcCnJYfBi2GRQIVTBsDBKJDBc8ImQcbRlcAemIjBW+ch
QdxjOsAUJojBGYIRQdz2gMAUcoDBgVmsQGgiNkGEBKHBZBSuQE+QI0EzD5bB6yfdQEVmMkEtqZnB
1BCLQHShL0B3LKvBP71rQATD3T8hjKDBqaSAQF7Xo8CQj47BzIGlQF1uisCqkpfBpsgTQcCAesAi
95jBZGMDQU4FocAhQ5HBW++pQMw1i8D1IX7BKrXMQCkCp8AsKIjBzI4AQWw//L/OsZDBI0reQGX3
QsCoOJjB4QxhQBvDXkC1aZLBK7zCQJqYaEBGq5/BDhvVQHJnBEF5vrrBXrWmQN4jyz9vi4/BY3RK
QGcMrUCgnIfBHGNXQEEFzUBk0ZHBo4tKQGLcgkCxQaTBKGTfQMARzz3H/YXBaocJQeEF3D8cQn7B
OlsFQaQL5L5uvGzBC6DcQPKekT+k8arBPTKlQMTl2b6SIqXBninpQO34ob/y+qvB6njHQFD8JEHB
XZ3BehzzQFyKrz/lnobBiKfrQCr/UL8p93vBxBAPQVHvUj/NvW3BCnezQMC+ZT9ks6bBMY33QGBp
Zz0Zfq3BS++/QOOWwL9Z16fB+vDcQNYaEkFIHZ/BQCi/QJj9HUE+wq7BXbflQKItFUB27o7BWQrX
QJAfCcDAhnrBd+qoQOxJ/UDIwYrBk7++QCgOwEDDupbBaiaJQBVv30DjMIXBYwWeQDa1o0CUvJDB
Nx8gQVKsmT/ZrV3Bi1+xQOBJH0ESTbrBGXQXQRmDlsD/morB9Wt6QHBJQsCvL43BcAPpQNIH90Af
ma/BCUqWQGpUA0CY86PBqwgTQaiATMDD14rBHruaQN9OiMAPX47BKOf3QEhmOcDCmI7BCce9QDBm
icDXsIXBfiKKQK85gUBM9ZfBXpirQMamQUBu+5vBYerWQFE/DkGC1qnB0GW2QOrNK0FeJ6fB5UDM
QOmm5EC474/Bvym8QJQxEEAs25LB+nfYQO4JRMBVzoXBwD11QF9yvkAlt4zBPbz+QKThS0AkKZLB
8fPFQGhrHMBPiWnBzbcBQR0AEEGKUozBeSQKQR6N5kBjI5rBBbBqQJE/lUDh0qDBl40PQd6Lkz6J
dbHBaeSxQGpVMcDBi6bByGL1QHaiAUGf7pTBXNDGQHFALL6uq4vBpYYRQWIYK0DRdX/BntQJQcuP
kb9bPmDBYG3nQGunCUBWO6zBgMOFQJotHL9b3KHBLr/9QC8eBsCv/q3BHVPEQA0gLUEYyZXBuuiX
QHTsB0F76JDB76u2QHueCUFtzITBw/vaQCS1rECEyJjB7/qvQHlezEC/GZ7BzdiYQBwS0EDooHzB
g+xaQOEQ8kCdZILB3kKuQEj/k0A0/YnB66IYQaLM2D+U10/BIIUoQdRjlj40UljBIKArQf6u8T9m
MGXBPUGSQJ1LF0HxRbvBZXquQJgsMEHFrLzBwFbJQKBYF0GzYL/BqPYnQSIznMCY6IfB9zsMQaYc
psAfD4XBCVQVQT3ao8DqrZLBT5hJQEdjQ8A2hpPBB+5aQOggRMC2UYXBSkiQQKxdB8C/3Y3BeILf
QARa+ECcELjBeBAGQdam90AFAq/B/M3cQKtZ2UC9+6vBAGOOQARNJkA+VKvBnYlxQIUJ1D/cWaDB
A0UVQQ9IMsC7wILBFV0eQTzDLcCHX5DBXE2HQKqMpcDRu43Box6qQAwrh8DbR5bBaV72QPcx7r/F
h5HBvZ7vQP+TZcC8IJXBu3KuQCFijMDMm3vB44XSQAlFpcBOGofBhaRkQMg1X0B6NJPBMMTFQI76
Y0ByAqDBoNKlQDlUOUHrM6jBywKoQH7yzz8UNI/B5/NKQIOXq0DU/ojB2PVYQCbHzEAE75LBYBJS
QLbvf0ByS6XBVCHgQCB67TzzoobB+doJQZFZ0z9ef3/Bd2EGQZqQCL/SiG7BEBHZQBGCjT+Hb6vB
FhGhQNy3274Ne6XBs9XjQLfopr8mwqzBvALJQOB2JEEd/JzBYWHzQOSLpz/FKIfBvUDtQO6NZr+S
kX3BwOAPQR7vPT/9XW/BTiiwQPjCYj8V/KbBFAfzQAAgLzwdN67B1766QIHOwr9ycqjBaVTeQIKb
EUHF4p7BSJLAQDYMHkEQbK7BJF3lQAI0EkB5TI/BaxnYQIbeDcAioXvBTS+qQCNb/EAYkorBQfm+
QHBPv0AptpbBeGCKQMSt3kDG+ITBoFyeQIIOo0ATqpDB6D0hQUYSjj9gk1/BrrSxQPiWH0Hg3rnB
qtJ1QJLFQsDAc47BwBEZQejogMA9PYfBqiLpQBFV9kDeeK/BqQWUQK5yA0B+/aPBkK+VQNnHisDz
ao7B6FEJQc7eg8CJqJDBwQK4QCYSisBhj4XBs2TwQBSzQMAaGpDBzcSJQE/0gEDr25fBqo+qQI6A
QEDxE5zBLgnYQHsGDkGGn6nBhCC4QKGsK0EAt6bBixzNQAl240AS2Y/BpJG7QLLbDUCpFZPB4avU
QL4HSMDXbobBoaZ2QFTzvUDzf4zBhkH+QK4OSUDZjJLBd8jIQLi5H8AwH2rBtH0CQcIDD0H2JYzB
CogKQbTQ5EAlFprBvBlpQO9xlUBWmaDBTDoNQfREZD7QU7LBjtSrQPDyMcASMafBmIr2QArbAEHN
zZTByVLHQAFnc77cQozBbqARQTJFJ0DDRIDBPzELQckMnr9RTmLBuWrkQNI+B0B+tKzBMc2BQOXJ
GL9VDaLB4a/3QLZBCcBV8q7BF9fFQIFVLEFyVZXBhSKZQCmVB0GhqpDBp1a4QNYKCUG2noTBiOza
QKvQq0CE6pjBq+evQHESzEAX/53Bri2aQAsRz0BmSnzBseBdQPF88UBVGILB+s2uQMoPk0BX/YnB
DgAaQU6hyj/WblHB9uEpQRLHTj5krFrBnnosQe/85z/RImfBtWSSQNS3F0FysLrBS9GuQFqGMEG7
J7zBTRHJQJGnF0F7H7/B9alFQKUaRsCA25TBt4JVQAKHO8C7r4bBJAiQQJ2MC8C51Y/BYgMlQb2h
msAP5IfB0DEhQTdjQ8CAa4fBrUQQQZVGhMCIVH/BGZ/fQPsw+ECO7rfBDyEGQQ4I9kAP5a7BTTDc
QLrZ2EC06qvBfMyLQNw2J0ApSavBSzBtQG4C1j9RQKDB9EmAQOQ1psBlE43BvZClQLE4jsBkOZbB
OkMSQXelgMDcMZjBFlYBQXE6o8CgcJDB1vinQLBcicATdXvB0IjLQD5Ap8AtMYbBfEoAQSszAsCn
8I/BnRXcQAjnRMA1RZfBkyhkQMToXkAvCpPB0J7EQPhXYkCmNqDBd9+nQGpTOUFyqafBIpCnQGOx
yj+Ybo/B6XZMQDslq0AAv4jBKP1ZQM+CzEA+qJLBQpBPQNJpgEALEKXB

>  <OMEGA_E>  (45) 
kJ5uPmALhD5wwVA+

>  <OMEGA_NBR>  (45) 
     13958

$$$$
50162021
     RDKit          3D

 92 95  0  0  1  0  0  0  0  0999 V2000
    5.7012   10.5202  -20.9107 C   0  0  0  0  0  0  0  0  0  0  0  0
    6.5541    8.7347  -22.3466 C   0  0  0  0  0  0  0  0  0  0  0  0
    6.3468    9.9410  -19.8084 C   0  0  0  0  0  0  0  0  0  0  0  0
    7.1933    8.1496  -21.2417 C   0  0  0  0  0  0  0  0  0  0  0  0
    6.9812    0.0423  -16.8553 C   0  0  0  0  0  0  0  0  0  0  0  0
    8.5491    1.6962  -15.9721 C   0  0  0  0  0  0  0  0  0  0  0  0
    8.3706   -0.4946  -14.9224 C   0  0  0  0  0  0  0  0  0  0  0  0
    6.7741    1.2130  -21.4342 C   0  0  0  0  0  0  0  0  0  0  0  0
    5.0448   -0.3611  -20.7252 C   0  0  0  0  0  0  0  0  0  0  0  0
    7.1552   -1.1884  -21.6240 C   0  0  0  0  0  0  0  0  0  0  0  0
    7.5567    1.3349  -16.9089 C   0  0  0  0  0  0  0  0  0  0  0  0
    7.4069   -0.8842  -15.8753 C   0  0  0  0  0  0  0  0  0  0  0  0
    5.8170    9.9263  -22.1840 C   0  0  0  0  0  0  0  0  0  0  0  0
    8.9319    0.7949  -14.9614 C   0  0  0  0  0  0  0  0  0  0  0  0
    5.4925    0.9642  -20.8945 C   0  0  0  0  0  0  0  0  0  0  0  0
    7.6090    0.1362  -21.7855 C   0  0  0  0  0  0  0  0  0  0  0  0
    5.8700   -1.4347  -21.1011 C   0  0  0  0  0  0  0  0  0  0  0  0
    7.0950    8.7578  -19.9727 C   0  0  0  0  0  0  0  0  0  0  0  0
    7.1144    2.3076  -17.9236 C   0  0  0  0  0  0  0  0  0  0  0  0
    6.7973   -2.2286  -15.7753 C   0  0  0  0  0  0  0  0  0  0  0  0
    5.3548    7.8846  -17.2486 C   0  0  0  0  0  0  0  0  0  0  0  0
    5.9471    5.9551  -18.7525 C   0  0  0  0  0  0  0  0  0  0  0  0
    4.3012    6.9982  -16.5765 C   0  0  0  0  0  0  0  0  0  0  0  0
    4.8831    5.1080  -18.0254 C   0  0  2  0  0  0  0  0  0  0  0  0
    5.0785   10.5181  -23.3571 C   0  0  0  0  0  0  0  0  0  0  0  0
    9.9921    1.1873  -13.9575 C   0  0  0  0  0  0  0  0  0  0  0  0
    9.6091   -3.8996  -16.9514 C   0  0  0  0  0  0  0  0  0  0  0  0
    3.8439   -2.9830  -17.8602 C   0  0  0  0  0  0  0  0  0  0  0  0
    4.5862    2.1103  -20.5082 C   0  0  0  0  0  0  0  0  0  0  0  0
    8.6324   -4.0366  -18.1311 C   0  0  0  0  0  0  0  0  0  0  0  0
    4.6775   -4.2783  -17.8920 C   0  0  0  0  0  0  0  0  0  0  0  0
    7.5268   -2.9595  -18.0857 C   0  0  0  0  0  0  0  0  0  0  0  0
    5.7604   -4.2810  -16.7948 C   0  0  0  0  0  0  0  0  0  0  0  0
    4.2374    4.0632  -18.9515 C   0  0  2  0  0  0  0  0  0  0  0  0
    5.2678    3.0525  -19.4958 C   0  0  1  0  0  0  0  0  0  0  0  0
    6.4257    7.0586  -17.8856 N   0  0  0  0  0  0  0  0  0  0  0  0
    5.8034    2.2486  -18.3831 N   0  0  0  0  0  0  0  0  0  0  0  0
    6.6532   -3.0892  -16.8851 N   0  0  0  0  0  0  0  0  0  0  0  0
    3.8100    5.9910  -17.5281 N   0  0  0  0  0  0  0  0  0  0  0  0
    7.8943    3.1610  -18.3334 O   0  0  0  0  0  0  0  0  0  0  0  0
    6.4170   -2.5882  -14.6659 O   0  0  0  0  0  0  0  0  0  0  0  0
    8.1263    8.9727  -17.5505 O   0  0  0  0  0  0  0  0  0  0  0  0
    8.7645    6.9600  -18.9799 O   0  0  0  0  0  0  0  0  0  0  0  0
    3.5849    4.7276  -20.0357 O   0  0  0  0  0  0  0  0  0  0  0  0
    8.8424    0.3742  -22.2857 F   0  0  0  0  0  0  0  0  0  0  0  0
    5.4225   -2.7024  -20.9677 F   0  0  0  0  0  0  0  0  0  0  0  0
    7.7613    7.9330  -18.5223 S   0  0  0  0  0  0  0  0  0  0  0  0
    5.1165   11.4194  -20.7842 H   0  0  0  0  0  0  0  0  0  0  0  0
    6.6268    8.2727  -23.3202 H   0  0  0  0  0  0  0  0  0  0  0  0
    6.2706   10.4013  -18.8344 H   0  0  0  0  0  0  0  0  0  0  0  0
    7.7582    7.2371  -21.3630 H   0  0  0  0  0  0  0  0  0  0  0  0
    6.2157   -0.2367  -17.5642 H   0  0  0  0  0  0  0  0  0  0  0  0
    9.0163    2.6681  -16.0313 H   0  0  0  0  0  0  0  0  0  0  0  0
    8.6800   -1.1911  -14.1571 H   0  0  0  0  0  0  0  0  0  0  0  0
    7.1127    2.2286  -21.5770 H   0  0  0  0  0  0  0  0  0  0  0  0
    4.0676   -0.5517  -20.3065 H   0  0  0  0  0  0  0  0  0  0  0  0
    7.7928   -2.0149  -21.9011 H   0  0  0  0  0  0  0  0  0  0  0  0
    4.8680    8.4990  -18.0204 H   0  0  0  0  0  0  0  0  0  0  0  0
    5.8093    8.5399  -16.4910 H   0  0  0  0  0  0  0  0  0  0  0  0
    6.7985    5.3120  -19.0203 H   0  0  0  0  0  0  0  0  0  0  0  0
    5.5067    6.3799  -19.6665 H   0  0  0  0  0  0  0  0  0  0  0  0
    4.7508    6.4916  -15.7097 H   0  0  0  0  0  0  0  0  0  0  0  0
    3.4603    7.6227  -16.2407 H   0  0  0  0  0  0  0  0  0  0  0  0
    5.3587    4.5893  -17.1800 H   0  0  0  0  0  0  0  0  0  0  0  0
    5.7270   11.2422  -23.8719 H   0  0  0  0  0  0  0  0  0  0  0  0
    4.7976    9.7162  -24.0557 H   0  0  0  0  0  0  0  0  0  0  0  0
    4.1714   11.0276  -22.9999 H   0  0  0  0  0  0  0  0  0  0  0  0
    9.5143    1.6464  -13.0794 H   0  0  0  0  0  0  0  0  0  0  0  0
   10.5502    0.2924  -13.6451 H   0  0  0  0  0  0  0  0  0  0  0  0
   10.6834    1.9087  -14.4176 H   0  0  0  0  0  0  0  0  0  0  0  0
   10.3792   -4.6822  -17.0195 H   0  0  0  0  0  0  0  0  0  0  0  0
   10.0883   -2.9100  -16.9853 H   0  0  0  0  0  0  0  0  0  0  0  0
    9.0587   -4.0082  -16.0053 H   0  0  0  0  0  0  0  0  0  0  0  0
    3.0835   -3.0161  -18.6543 H   0  0  0  0  0  0  0  0  0  0  0  0
    3.3488   -2.8896  -16.8823 H   0  0  0  0  0  0  0  0  0  0  0  0
    4.5043   -2.1181  -18.0209 H   0  0  0  0  0  0  0  0  0  0  0  0
    4.3285    2.6824  -21.4116 H   0  0  0  0  0  0  0  0  0  0  0  0
    3.6688    1.7042  -20.0572 H   0  0  0  0  0  0  0  0  0  0  0  0
    9.1929   -3.9326  -19.0718 H   0  0  0  0  0  0  0  0  0  0  0  0
    8.1633   -5.0308  -18.0918 H   0  0  0  0  0  0  0  0  0  0  0  0
    4.0086   -5.1376  -17.7360 H   0  0  0  0  0  0  0  0  0  0  0  0
    5.1641   -4.3661  -18.8746 H   0  0  0  0  0  0  0  0  0  0  0  0
    8.0012   -1.9672  -18.0712 H   0  0  0  0  0  0  0  0  0  0  0  0
    6.9039   -3.0550  -18.9872 H   0  0  0  0  0  0  0  0  0  0  0  0
    5.2685   -4.2820  -15.8109 H   0  0  0  0  0  0  0  0  0  0  0  0
    6.3704   -5.1902  -16.9006 H   0  0  0  0  0  0  0  0  0  0  0  0
    3.4931    3.5045  -18.3651 H   0  0  0  0  0  0  0  0  0  0  0  0
    6.0812    3.5974  -19.9971 H   0  0  0  0  0  0  0  0  0  0  0  0
    5.1792    1.6152  -17.9256 H   0  0  0  0  0  0  0  0  0  0  0  0
    3.1192    5.4298  -17.0722 H   0  0  0  0  0  0  0  0  0  0  0  0
    3.3959    6.4617  -18.3072 H   0  0  0  0  0  0  0  0  0  0  0  0
    3.1857    4.0832  -20.6084 H   0  0  0  0  0  0  0  0  0  0  0  0
  1  3  2  0
  1 13  1  0
  2  4  1  0
  2 13  2  0
  3 18  1  0
  4 18  2  0
  5 11  2  0
  5 12  1  0
  6 11  1  0
  6 14  2  0
  7 12  2  0
  7 14  1  0
  8 15  2  0
  8 16  1  0
  9 15  1  0
  9 17  2  0
 10 16  2  0
 10 17  1  0
 11 19  1  0
 12 20  1  0
 13 25  1  0
 14 26  1  0
 15 29  1  0
 16 45  1  0
 17 46  1  0
 18 47  1  0
 19 37  1  0
 19 40  2  0
 20 38  1  0
 20 41  2  0
 21 23  1  0
 21 36  1  0
 22 24  1  0
 22 36  1  0
 23 39  1  0
 24 34  1  0
 24 39  1  0
 27 30  1  0
 28 31  1  0
 29 35  1  0
 30 32  1  0
 31 33  1  0
 32 38  1  0
 33 38  1  0
 34 35  1  0
 34 44  1  0
 35 37  1  0
 36 47  1  0
 42 47  2  0
 43 47  2  0
  1 48  1  0
  2 49  1  0
  3 50  1  0
  4 51  1  0
  5 52  1  0
  6 53  1  0
  7 54  1  0
  8 55  1  0
  9 56  1  0
 10 57  1  0
 21 58  1  0
 21 59  1  0
 22 60  1  0
 22 61  1  0
 23 62  1  0
 23 63  1  0
 24 64  1  1
 25 65  1  0
 25 66  1  0
 25 67  1  0
 26 68  1  0
 26 69  1  0
 26 70  1  0
 27 71  1  0
 27 72  1  0
 27 73  1  0
 28 74  1  0
 28 75  1  0
 28 76  1  0
 29 77  1  0
 29 78  1  0
 30 79  1  0
 30 80  1  0
 31 81  1  0
 31 82  1  0
 32 83  1  0
 32 84  1  0
 33 85  1  0
 33 86  1  0
 34 87  1  1
 35 88  1  6
 37 89  1  0
 39 90  1  0
 39 91  1  0
 44 92  1  0
M  CHG  1  39   1
M  END
>  <OMEGA_C>  (46) 
OXC2QMFSKEERSafBXrvRQDHBC0HuxbLBuhjLQEEOH0G0d57Bhy/mQI9kAkH57qnBVWbfQAhALT2d
14bB9sgIQZ4c2T+2jX/B8u0FQeo4/b4Swm7BNcXYQCxFmz9FeavB2W6hQLTbuL4ozaXBtvfkQJwc
mL8J/qzBVtDxQJ7fqj9rRYfBgwXtQHZZYr8YAX7BBiW6QC7SHkHCeLHB/+gOQeZ+Sz/SYW/BeMKv
QF/Wdj8JKKfB2nzzQBx2Cz7ISK7BqNa7QFCjt78Qz6jBYQrjQPEfDEH9x5/B1ajjQO6uE0CNY4/B
LoPZQEmhDsCXZ3zBKlqrQOhO/EAr/YnB406+QDSQvkAKBZbBpaOJQBLx30CvnITBK0KcQPx0o0AM
NJDB24KiQClKKEFJ27rBh98fQej6lz/oUV/BFL8ZQb+SecCQnIfBFgJ2QIDpPsCm4Y7BXsKSQHAO
B0DTEKTBaR4KQdArgcB1DJHBva2VQD7oiMDEIo/BV9vwQMdoPcBrr5DB4FS4QNb9iMCzW4bBn5iH
QOAFgkCcnJfB1pGoQANcQ0BX95vBFJ/NQNLf4UCrFY/BMrW5QIDoD0CAEJPBC+fUQLS1RcC7FIfB
htZzQEi2v0CgOYzBcZ78QARNSkDgqpLBD1jNQL+kJcB1p2rBYwUCQReQD0GCZ4zBPzsMQRy43kDH
1pfBjm9lQHRIl0A0SaDBiXoNQaeQvz4uSbLBCYWtQCn0LMDevafBqlz4QLra/UC8LZTBnLqjQOS1
NkEPRqbByw7UQCBdBEGyj7rBsqjIQKtrJkHprJbB40L4QBWW50Be56rBTefGQFtacr5+g4zB20IQ
Qa7BKkAjQIDBSeEKQVl0mL+pg2LBDJvjQIahDkCunazBMCqCQOU7Db/Cc6LBQl75QH70AMCMNa/B
xcabQOn7B0HCKZDBceW5QJ6jCEGO7YPB7YzZQDn8qUB/KZjBETewQHgozEAXVZ3BKwaYQCK7z0AP
W3vBP3VdQEDt80Dx7IHBRXqrQHbbkkCncInB1EO3QDbgM0GS+b7B4YWZQKV1G0EWcsDBAXyFQDdx
MEHP/7fBrzoYQTy90j9JRVHB0c0oQRS6lT5tUlrBZO8qQRZP9D+GrmbBChEmQWXUlcDoJ4jBp2kh
QXA9OsD74YfBd/AQQXdDgMDXCoDBaldFQPgHQcAQPJXB51JWQJfvOMADD4fBEiOQQBqPB8DJKpDB
soKKQMSsK0ALS6vBn81qQO0i2j8XdaDBNhYTQeyue8Aek5jBBp0CQTX8oMD7u5DBrUaAQFlnpMBW
443BS0ClQBu3i8Ac/5bBEgUAQZTN+7/ikZDBk+zcQNeFQ8Dj5ZfBfpeoQA8GicBV+XzBq9rLQMMV
psCFNIfBjY5fQFhJYEC+65LBk5nCQEM8ZkAb+p/BVLylQEW+zj+VZ4/BM6BHQDnBrUDkk4jBvVZZ
QJPGzkAvdZLBTeNLQKqpgkD63aTB

>  <OMEGA_E>  (46) 
gNWIPQ==

>  <OMEGA_NBR>  (46) 
     15777

$$$$
50162073
     RDKit          3D

 88 91  0  0  1  0  0  0  0  0999 V2000
    6.2080   10.0845  -19.9436 C   0  0  0  0  0  0  0  0  0  0  0  0
    7.0716    8.3492  -21.3916 C   0  0  0  0  0  0  0  0  0  0  0  0
    6.9678   -0.0386  -16.8431 C   0  0  0  0  0  0  0  0  0  0  0  0
    8.5360    1.5737  -15.8897 C   0  0  0  0  0  0  0  0  0  0  0  0
    8.3130   -0.6420  -14.8987 C   0  0  0  0  0  0  0  0  0  0  0  0
    6.8620    1.2233  -21.3962 C   0  0  0  0  0  0  0  0  0  0  0  0
    5.1052   -0.3506  -20.7576 C   0  0  0  0  0  0  0  0  0  0  0  0
    7.2338   -1.1764  -21.6152 C   0  0  0  0  0  0  0  0  0  0  0  0
    5.6297   10.6931  -21.0764 C   0  0  0  0  0  0  0  0  0  0  0  0
    6.4682    9.0104  -22.4820 C   0  0  0  0  0  0  0  0  0  0  0  0
    7.5557    1.2484  -16.8520 C   0  0  0  0  0  0  0  0  0  0  0  0
    7.3606   -0.9924  -15.8785 C   0  0  0  0  0  0  0  0  0  0  0  0
    8.8924    0.6420  -14.8968 C   0  0  0  0  0  0  0  0  0  0  0  0
    5.5660    0.9741  -20.8927 C   0  0  0  0  0  0  0  0  0  0  0  0
    7.6985    0.1476  -21.7455 C   0  0  0  0  0  0  0  0  0  0  0  0
    5.9342   -1.4230  -21.1292 C   0  0  0  0  0  0  0  0  0  0  0  0
    6.9482    8.8981  -20.1006 C   0  0  0  0  0  0  0  0  0  0  0  0
    7.1322    2.2536  -17.8427 C   0  0  0  0  0  0  0  0  0  0  0  0
    6.7096   -2.3178  -15.8224 C   0  0  0  0  0  0  0  0  0  0  0  0
    5.3504    7.8989  -17.2633 C   0  0  0  0  0  0  0  0  0  0  0  0
    5.9991    5.9617  -18.7504 C   0  0  0  0  0  0  0  0  0  0  0  0
    4.3844    6.9654  -16.5267 C   0  0  0  0  0  0  0  0  0  0  0  0
    4.9732    5.0889  -17.9857 C   0  0  2  0  0  0  0  0  0  0  0  0
    9.9399    1.0003  -13.8662 C   0  0  0  0  0  0  0  0  0  0  0  0
    9.6357   -3.9765  -16.9299 C   0  0  0  0  0  0  0  0  0  0  0  0
    3.8051   -3.0296  -17.8865 C   0  0  0  0  0  0  0  0  0  0  0  0
    4.6632    2.1204  -20.5006 C   0  0  0  0  0  0  0  0  0  0  0  0
    8.6775   -4.1171  -18.1235 C   0  0  0  0  0  0  0  0  0  0  0  0
    4.6664   -4.2993  -18.0175 C   0  0  0  0  0  0  0  0  0  0  0  0
    7.5731   -3.0377  -18.0966 C   0  0  0  0  0  0  0  0  0  0  0  0
    5.7433   -4.3734  -16.9158 C   0  0  0  0  0  0  0  0  0  0  0  0
    4.3135    4.0389  -18.8969 C   0  0  2  0  0  0  0  0  0  0  0  0
    5.3366    3.0297  -19.4526 C   0  0  1  0  0  0  0  0  0  0  0  0
    5.7667   10.1584  -22.3143 N   0  0  0  0  0  0  0  0  0  0  0  0
    6.4339    7.1298  -17.9452 N   0  0  0  0  0  0  0  0  0  0  0  0
    5.8419    2.1897  -18.3540 N   0  0  0  0  0  0  0  0  0  0  0  0
    6.6516   -3.1894  -16.9341 N   0  0  0  0  0  0  0  0  0  0  0  0
    3.8917    5.9360  -17.4488 N   0  0  0  0  0  0  0  0  0  0  0  0
    7.9044    3.1439  -18.1823 O   0  0  0  0  0  0  0  0  0  0  0  0
    6.1761   -2.6286  -14.7627 O   0  0  0  0  0  0  0  0  0  0  0  0
    8.0483    9.1209  -17.6877 O   0  0  0  0  0  0  0  0  0  0  0  0
    8.7184    7.1479  -19.1476 O   0  0  0  0  0  0  0  0  0  0  0  0
    3.6449    4.7024  -19.9724 O   0  0  0  0  0  0  0  0  0  0  0  0
    8.9433    0.3867  -22.2158 F   0  0  0  0  0  0  0  0  0  0  0  0
    5.4766   -2.6897  -21.0297 F   0  0  0  0  0  0  0  0  0  0  0  0
    7.6887    8.0744  -18.6545 S   0  0  0  0  0  0  0  0  0  0  0  0
    6.0840   10.5246  -18.9652 H   0  0  0  0  0  0  0  0  0  0  0  0
    7.6219    7.4327  -21.5452 H   0  0  0  0  0  0  0  0  0  0  0  0
    6.2164   -0.2924  -17.5762 H   0  0  0  0  0  0  0  0  0  0  0  0
    9.0144    2.5416  -15.9154 H   0  0  0  0  0  0  0  0  0  0  0  0
    8.5993   -1.3618  -14.1461 H   0  0  0  0  0  0  0  0  0  0  0  0
    7.2104    2.2389  -21.5130 H   0  0  0  0  0  0  0  0  0  0  0  0
    4.1158   -0.5418  -20.3689 H   0  0  0  0  0  0  0  0  0  0  0  0
    7.8738   -2.0024  -21.8879 H   0  0  0  0  0  0  0  0  0  0  0  0
    5.0651   11.6057  -20.9550 H   0  0  0  0  0  0  0  0  0  0  0  0
    6.5673    8.5926  -23.4729 H   0  0  0  0  0  0  0  0  0  0  0  0
    4.7901    8.4728  -18.0161 H   0  0  0  0  0  0  0  0  0  0  0  0
    5.8038    8.5903  -16.5378 H   0  0  0  0  0  0  0  0  0  0  0  0
    6.8793    5.3478  -18.9922 H   0  0  0  0  0  0  0  0  0  0  0  0
    5.5367    6.3224  -19.6810 H   0  0  0  0  0  0  0  0  0  0  0  0
    4.9090    6.4843  -15.6880 H   0  0  0  0  0  0  0  0  0  0  0  0
    3.5347    7.5484  -16.1418 H   0  0  0  0  0  0  0  0  0  0  0  0
    5.4886    4.5742  -17.1614 H   0  0  0  0  0  0  0  0  0  0  0  0
    9.4520    1.4439  -12.9857 H   0  0  0  0  0  0  0  0  0  0  0  0
   10.4837    0.0926  -13.5655 H   0  0  0  0  0  0  0  0  0  0  0  0
   10.6461    1.7248  -14.2979 H   0  0  0  0  0  0  0  0  0  0  0  0
   10.4060   -4.7599  -16.9832 H   0  0  0  0  0  0  0  0  0  0  0  0
   10.1161   -2.9874  -16.9600 H   0  0  0  0  0  0  0  0  0  0  0  0
    9.0706   -4.0813  -15.9920 H   0  0  0  0  0  0  0  0  0  0  0  0
    3.0512   -3.0131  -18.6873 H   0  0  0  0  0  0  0  0  0  0  0  0
    3.3012   -3.0278  -16.9086 H   0  0  0  0  0  0  0  0  0  0  0  0
    4.4476   -2.1407  -17.9695 H   0  0  0  0  0  0  0  0  0  0  0  0
    4.4308    2.7161  -21.3957 H   0  0  0  0  0  0  0  0  0  0  0  0
    3.7320    1.7150  -20.0780 H   0  0  0  0  0  0  0  0  0  0  0  0
    9.2520   -4.0167  -19.0562 H   0  0  0  0  0  0  0  0  0  0  0  0
    8.2066   -5.1105  -18.0881 H   0  0  0  0  0  0  0  0  0  0  0  0
    4.0147   -5.1820  -17.9392 H   0  0  0  0  0  0  0  0  0  0  0  0
    5.1610   -4.2948  -19.0000 H   0  0  0  0  0  0  0  0  0  0  0  0
    8.0493   -2.0476  -18.0418 H   0  0  0  0  0  0  0  0  0  0  0  0
    6.9858   -3.1113  -19.0237 H   0  0  0  0  0  0  0  0  0  0  0  0
    5.2452   -4.4225  -15.9363 H   0  0  0  0  0  0  0  0  0  0  0  0
    6.3436   -5.2826  -17.0678 H   0  0  0  0  0  0  0  0  0  0  0  0
    3.5786    3.4820  -18.2972 H   0  0  0  0  0  0  0  0  0  0  0  0
    6.1658    3.5762  -19.9256 H   0  0  0  0  0  0  0  0  0  0  0  0
    5.2127    1.5272  -17.9476 H   0  0  0  0  0  0  0  0  0  0  0  0
    3.2416    5.3537  -16.9606 H   0  0  0  0  0  0  0  0  0  0  0  0
    3.4283    6.3856  -18.2124 H   0  0  0  0  0  0  0  0  0  0  0  0
    3.2360    4.0575  -20.5376 H   0  0  0  0  0  0  0  0  0  0  0  0
  1  9  2  0
  1 17  1  0
  2 10  1  0
  2 17  2  0
  3 11  2  0
  3 12  1  0
  4 11  1  0
  4 13  2  0
  5 12  2  0
  5 13  1  0
  6 14  2  0
  6 15  1  0
  7 14  1  0
  7 16  2  0
  8 15  2  0
  8 16  1  0
  9 34  1  0
 10 34  2  0
 11 18  1  0
 12 19  1  0
 13 24  1  0
 14 27  1  0
 15 44  1  0
 16 45  1  0
 17 46  1  0
 18 36  1  0
 18 39  2  0
 19 37  1  0
 19 40  2  0
 20 22  1  0
 20 35  1  0
 21 23  1  0
 21 35  1  0
 22 38  1  0
 23 32  1  0
 23 38  1  0
 25 28  1  0
 26 29  1  0
 27 33  1  0
 28 30  1  0
 29 31  1  0
 30 37  1  0
 31 37  1  0
 32 33  1  0
 32 43  1  0
 33 36  1  0
 35 46  1  0
 41 46  2  0
 42 46  2  0
  1 47  1  0
  2 48  1  0
  3 49  1  0
  4 50  1  0
  5 51  1  0
  6 52  1  0
  7 53  1  0
  8 54  1  0
  9 55  1  0
 10 56  1  0
 20 57  1  0
 20 58  1  0
 21 59  1  0
 21 60  1  0
 22 61  1  0
 22 62  1  0
 23 63  1  1
 24 64  1  0
 24 65  1  0
 24 66  1  0
 25 67  1  0
 25 68  1  0
 25 69  1  0
 26 70  1  0
 26 71  1  0
 26 72  1  0
 27 73  1  0
 27 74  1  0
 28 75  1  0
 28 76  1  0
 29 77  1  0
 29 78  1  0
 30 79  1  0
 30 80  1  0
 31 81  1  0
 31 82  1  0
 32 83  1  1
 33 84  1  6
 36 85  1  0
 38 86  1  0
 38 87  1  0
 43 88  1  0
M  CHG  1  38   1
M  END
>  <OMEGA_C>  (47) 
jqfGQD9aIUGRjJ/BwUriQHOWBUH1IavB4/feQINBHr2vvobBTJMIQZVvyT8GPH7B6AEFQdpYJL/s
YG7Bo5XbQKOWnD98K6vBk12jQGiGs76LD6bBI3vnQPeTlr/v66zBtya0QOQWK0F0nKjBT/vOQLIq
EEEf27PBB8jxQCjLnz/O0IbB3InrQEAOfr83Dn7Bd0cOQR9YJD8XWW7BnByyQHBbeT8sJKfBPFr2
QIEnFz659q3BsOS9QMkjtr+YCKnBzFfeQHBeDkHyzaDBFDvkQCY7EEDTvY7B2bTWQCNWFMCeKH3B
fjarQLLD/EBOG4rBU/i/QPPFvkDQAJbB+0yMQLfk3kC1NoTBRCSfQOfXokC84o/BpAkfQWoIgD/x
213BqysaQep+fsBqcIfBmIZzQIrlQcB8F4/BrjiVQNO0B0AyAaTB/NYKQQW/g8D4/JDBCFOVQLqT
icDnI5DByFbyQHVpQsDExZDBdcm3QP7yi8CFU4fBPAiKQOQ+gUDaLJfBRcWqQKzmQUD6npvBzYi4
QMaIIkG3g7LBsuLNQHwn5EDcj4/BvfC6QJwkDEAJ1ZLB6NnUQNgeTMAjeYfBQRF5QGPzvUAWl4vB
OfH8QBU2SUBMdZHB/aLFQHo6KMDaM2zBzMUAQTLvEUF9gI3BjX4LQbm75EBELpnBgkVpQOV5lkCE
x5/B0hcPQXADxj75ubHBG0CvQBUkLMDaPKjBmAn2QOYwAUFSPJXBBrDCQLhkKEGvuJfBlebzQMDY
7UCAXKzBpuzGQLywlb4cnIzBATsQQdepIkCTpX7BzJYJQRlOrr+AVmLBa7vmQJxKD0CnGqzBC7WD
QCexCr9u86LBivb7QMgnAMB7Gq/B6BSiQNSwOUHVo6fBQCfSQB17CUGRyLvBgUiZQL+QB0H0IJDB
4ri5QOpxCUF8TYTB2yLcQIIhq0AW8JfBmSyxQP1QykDEcp3BLhadQF1/z0A/AnvB+jhiQH2M8UBO
IoHBiKKvQPJfkkCLSonBejsXQZbRuD+YxU/BRb0nQYW1vT0oDFnBP1YqQffE3D83xGTB/X4mQSpR
mMCK3YfBZNshQZgxP8AZrofBLCERQbqZgsAJ33/BZEZDQGXWQMCXf5XBrkdTQBDIQcDmRIfB1FKO
QKEACcCQwY/BRcmNQAbULUBeKqvBv9huQPiF2z/Qn6DBQggUQYiIgMAJc5jBCk4DQXeJo8B0tJDB
SXiAQLjSpcBig4/BRSelQABvicANAJjB/skAQVcMA8CiVZDBdYvfQGsfR8CaMJjBcNinQO+EjcAD
+37Bd/7KQAkLqcDpiojBHgdlQNfYXkCdYJLBRU7FQJzgZECqZ5/BKs6mQMB7wz/DlI/BwHVPQLlR
q0A6r4fBBWlbQLdWzED3spHBXRtPQMzWgUAOTaTBsLPFQNeNIUFhl5/BYzTiQIL0BUGZJKvBsOne
QLOFFb0aqYbBpp8IQWwXyT8rBn7Bu8sEQYHxI78QF27BbO7bQC3cmz+rH6vBF7+jQDpStL5p6aXB
9YDnQI9vl7+r8qzBNeOyQLcYK0GMqqjByKLOQPVbEEGl4bPBufzxQJ7Cnz/svobBLUDrQEaVfb9u
0X3BKScOQVjkIz85D27B7pCyQNu4eD8JBafBO3v2QOg9Dz4B/63BZQy+QEOgtr9A9ajBFO/dQMy7
DkHN0qDBtNvkQFQnEEDeu47BHZHWQJdsFMDg3XzBzNGqQFY4/UCuIorBGhrAQDJEv0C/ApbBFTSM
QJ0g30DFOITBgWGfQEw2o0CJ5o/BldkeQeORfj9Tfl3B9Z11QIkhQ8DVI4/B5lcZQZW6gcDugYfB
2b+VQIK3B0DE56PBLcWVQHy3isCx44/B4UIKQYYBhMC6NJHBbRm4QFh5jMCGCofBia3xQGcgQsBs
r5DBNnOKQA9/gUBWL5fBilKrQItwQkBvlJvB5Za3QFmLIkG1j7LB2a3NQE7Y5EAvlY/BiGi7QAUw
DUASvJLBR8TUQOCTTMAESofB9j15QCUavkALmYvBNw7+QEjUR0AWmZHBXFHGQNH6KMAQwmvBS3oA
Qe1wEkFOgY3BmGgLQXrM5UBwKJnBfehpQJeAlkBiz5/BKBkPQe2wwD672LHBTlKvQBxTLMDLHqjB
S7H1QOWmAUG1PJXBSI/BQKqdKEEoxpfBKEL0QG7X7kCfWqzBTuDGQLdbk762iIzBj14QQWRPIkAj
cX7BFkQJQfX1rb+Y/WHBJCvnQBHeDkBNDqzBfTKEQIZyCr9MuaLBZc37QJGrAMAANK/BflCgQBuL
OUEYtqfB6hfSQEuvCUHLzbvBKLaYQCGwB0EAKpDB+ye5QOzCCUHaWITBEW3cQFvJq0BN55fBuVax
QN6cykCRep3BtSydQPfWz0BfDXvBV9FhQHqS8UD5HoHBMPKvQHfRkkBATonBKQIXQduluD+Adk/B
CXEnQYmXrD0wm1jB1kAqQbxk2z9jXGTBfnBFQFvPQsB1jpXBMlBVQKPAQMCmU4fBusuPQEMIC8C9
/4/BhIQlQWQFm8D8JIjBJz0hQZyORMD9UYfBnRAQQXw/hsCWHYDBTziOQBt8LUDaFqvBAf9vQMPP
2z/Ge6DBnYOAQJCUpsD/EI/BPqelQGG4i8AXvZfBf64TQRxDf8DxjpjB9YECQbyZo8CLWpHB1hSo
QDjajcDbbH7BqJbLQIhwqcA4KojBS6wAQcA5A8DzKJDBzl7eQO05RcB5CJjB6vJlQClKX0CAYZLB
UtbFQD9PZUBQY5/BhAWnQETHxz+wXI/BZ+FPQO9Wq0DGsIfBnWFbQFdozEAOtJHBewJQQFi8gUCQ
UaTBRunFQGYLIkEoM57BwRbgQHo0B0FEhKrBMQHfQPb2BT4+i4XBl/oKQeTZ2T/FW3/BA7gFQRRt
yr5QHWzBmO/ZQCyTlz/zOKzBXRmmQAJlz74x+KTBETLoQHILm7+PGq3BBSqyQElsLEHV6KbBU6TL
QEtsEkHw3rLBAo70QLZ2rj850YbB5FXqQCi8PL/9SHrBInYQQbrXVD/pcW7B+IWyQHKabD9UHqfB
SM/0QPRd7z20Ka/B1dbAQEZOvL+2A6jBXHbdQLsyD0FqAaDBZAjnQII/E0CmSo/BrP3QQBGW+L/c
dHbBEFCrQDhi+0BYvYnBPOS/QFawvkC3EZbBBw6MQHQP3UDcGoTBDTyfQPEvokCbHJDBqi8iQVLd
mD/CD1/Bb4ZjQHZKjsB0Lo3B/ZUWQfo5fMAB0ZXBWYWVQJdDBEDy8aPBcTSWQAzxXcAtCovBqFcB
QR0pWcAZpZHBYoe1QE5AgsCuzYLBI5MBQUHJW8AgX4XB/6mKQEDQgED4jpfB7bOrQLNLQUCa9pvB
bky1QCqjJEGY/7DB+vfNQCw840BCWo/Bgyy9QLqKDkAVDZPBBcjYQOcSSMBP2IDBL+t4QFXYvECT
t4vBSQ8AQejoSECIv5LBr/uxQOar7L/biGrB4SwBQX8MEUF61ozBWjILQVbZ5EAWSJnBiUtrQNQq
lkCxM6DBMFkNQSNBvD6g+rPBCa+0QEKwL8BJGKbBu/71QDcFAUHx3JTBaP7CQMF+KEG4N5bBHozx
QBtS8UDzKazBDszFQHbcFL6qBovBq5ETQZtWKEDqs4DBkTEKQR13ib8kcF/BcnbjQJzoDEDH3q3B
UheIQFeyGr+o/aDBb7X8QCfzAcCaba/BUyOgQCPmOkEmg6XBddbNQMNcDEGA8brBE56ZQO9MB0FF
o4/BQN65QCpYCEH8wIPBOfvbQCNAq0BdMZjBifCwQJwly0DdZp3BAIScQBP6zEB95HrBH5thQCeE
70Ae/IDBrMSvQKlxkUAmkYnBc3QbQa153z9FZ1HBq/spQcaRjT5qSVnB2gcuQauF6T/0S2fB8SI3
QNpZgMBLDpPBr8t9QPhhrMB9WpDBBhRBQC29lMCWrYXBiZkWQQ6mesA9nZ7BN88jQdGvVMBzxJLB
g6UYQVlMn8CNEZPBQKmMQDF9KECGKKvBYv9wQFAX1D8lMqDBzV6nQPcQUcBQjZLB+QKJQGHHIcBo
4IfB7ID+QIu+FsCZXpTBhC3oQLVTgMCzq5TBW3ikQP1siMBDhnbBdY7CQOp2oMBC7oXBR2gGQX4V
jsDOwYLBpDENQVJ9LMB3aoLBVttlQHSIXUCy4ZLBH3fFQNg3ZEAWE6DB6mmpQM3tyj/laY/BxhdP
QLHUqUBX94fBu5xbQIvVy0ADw5HBtt5RQCuWgUAIzqTB

>  <OMEGA_E>  (47) 
YJydPXD0mj0wg8U+

>  <OMEGA_NBR>  (47) 
     20147

$$$$
50162074
     RDKit          3D

 88 91  0  0  1  0  0  0  0  0999 V2000
    6.9059   -0.0092  -16.6624 C   0  0  0  0  0  0  0  0  0  0  0  0
    8.4939    1.5751  -15.6947 C   0  0  0  0  0  0  0  0  0  0  0  0
    8.1451   -0.5995  -14.6466 C   0  0  0  0  0  0  0  0  0  0  0  0
    7.0008    1.0961  -21.2169 C   0  0  0  0  0  0  0  0  0  0  0  0
    5.2167   -0.4554  -20.5998 C   0  0  0  0  0  0  0  0  0  0  0  0
    7.3616   -1.3093  -21.3868 C   0  0  0  0  0  0  0  0  0  0  0  0
    6.0347   10.5040  -19.6764 C   0  0  0  0  0  0  0  0  0  0  0  0
    7.5370    1.2574  -16.6832 C   0  0  0  0  0  0  0  0  0  0  0  0
    7.2081   -0.9378  -15.6443 C   0  0  0  0  0  0  0  0  0  0  0  0
    8.8061    0.6439  -14.6844 C   0  0  0  0  0  0  0  0  0  0  0  0
    5.6899    0.8647  -20.7457 C   0  0  0  0  0  0  0  0  0  0  0  0
    7.8367    0.0095  -21.5307 C   0  0  0  0  0  0  0  0  0  0  0  0
    6.0516   -1.5403  -20.9220 C   0  0  0  0  0  0  0  0  0  0  0  0
    6.7419    9.2714  -20.0366 C   0  0  0  0  0  0  0  0  0  0  0  0
    6.6290    9.1448  -21.4037 C   0  0  0  0  0  0  0  0  0  0  0  0
    7.1675    2.2487  -17.7103 C   0  0  0  0  0  0  0  0  0  0  0  0
    6.4875   -2.2248  -15.5682 C   0  0  0  0  0  0  0  0  0  0  0  0
    5.3158    7.9322  -17.3585 C   0  0  0  0  0  0  0  0  0  0  0  0
    6.0186    5.9910  -18.8407 C   0  0  0  0  0  0  0  0  0  0  0  0
    4.3879    6.9734  -16.6085 C   0  0  0  0  0  0  0  0  0  0  0  0
    5.0184    5.1083  -18.0473 C   0  0  2  0  0  0  0  0  0  0  0  0
    9.7849    1.0132  -13.5924 C   0  0  0  0  0  0  0  0  0  0  0  0
    7.1404    8.0500  -22.3103 C   0  0  0  0  0  0  0  0  0  0  0  0
    3.7617   -3.0875  -17.8934 C   0  0  0  0  0  0  0  0  0  0  0  0
    9.7776   -4.3962  -17.8602 C   0  0  0  0  0  0  0  0  0  0  0  0
    4.7786    2.0259  -20.4204 C   0  0  0  0  0  0  0  0  0  0  0  0
    4.6344   -4.3543  -17.8359 C   0  0  0  0  0  0  0  0  0  0  0  0
    8.7971   -3.8001  -16.8551 C   0  0  0  0  0  0  0  0  0  0  0  0
    5.5786   -4.3221  -16.6210 C   0  0  0  0  0  0  0  0  0  0  0  0
    7.5972   -3.1637  -17.5862 C   0  0  0  0  0  0  0  0  0  0  0  0
    4.3824    4.0132  -18.9185 C   0  0  2  0  0  0  0  0  0  0  0  0
    5.4236    2.9860  -19.3979 C   0  0  1  0  0  0  0  0  0  0  0  0
    5.5809   11.0565  -20.7726 N   0  0  0  0  0  0  0  0  0  0  0  0
    6.4083    7.2062  -18.0756 N   0  0  0  0  0  0  0  0  0  0  0  0
    5.8867    2.1982  -18.2457 N   0  0  0  0  0  0  0  0  0  0  0  0
    6.4613   -3.1248  -16.6494 N   0  0  0  0  0  0  0  0  0  0  0  0
    3.9173    5.9356  -17.5282 N   0  0  0  0  0  0  0  0  0  0  0  0
    7.9723    3.1034  -18.0667 O   0  0  0  0  0  0  0  0  0  0  0  0
    5.9536   -2.5176  -14.5042 O   0  0  0  0  0  0  0  0  0  0  0  0
    8.1090    9.1033  -17.7603 O   0  0  0  0  0  0  0  0  0  0  0  0
    8.5444    7.3413  -19.5320 O   0  0  0  0  0  0  0  0  0  0  0  0
    5.9466   10.2343  -21.8581 O   0  0  0  0  0  0  0  0  0  0  0  0
    3.7283    4.6169  -20.0367 O   0  0  0  0  0  0  0  0  0  0  0  0
    9.0921    0.2334  -21.9796 F   0  0  0  0  0  0  0  0  0  0  0  0
    5.5937   -2.8040  -20.7896 F   0  0  0  0  0  0  0  0  0  0  0  0
    7.6040    8.2113  -18.8120 S   0  0  0  0  0  0  0  0  0  0  0  0
    6.1900   -0.2659  -17.4292 H   0  0  0  0  0  0  0  0  0  0  0  0
    8.9883    2.5351  -15.7130 H   0  0  0  0  0  0  0  0  0  0  0  0
    8.3571   -1.2969  -13.8497 H   0  0  0  0  0  0  0  0  0  0  0  0
    7.3613    2.1072  -21.3363 H   0  0  0  0  0  0  0  0  0  0  0  0
    4.2138   -0.6333  -20.2408 H   0  0  0  0  0  0  0  0  0  0  0  0
    8.0018   -2.1435  -21.6330 H   0  0  0  0  0  0  0  0  0  0  0  0
    5.9095   10.8907  -18.6758 H   0  0  0  0  0  0  0  0  0  0  0  0
    4.7236    8.4982  -18.0928 H   0  0  0  0  0  0  0  0  0  0  0  0
    5.7665    8.6285  -16.6360 H   0  0  0  0  0  0  0  0  0  0  0  0
    6.9215    5.4008  -19.0561 H   0  0  0  0  0  0  0  0  0  0  0  0
    5.5486    6.3005  -19.7859 H   0  0  0  0  0  0  0  0  0  0  0  0
    4.9365    6.5063  -15.7774 H   0  0  0  0  0  0  0  0  0  0  0  0
    3.5265    7.5308  -16.2120 H   0  0  0  0  0  0  0  0  0  0  0  0
    5.5530    4.6332  -17.2115 H   0  0  0  0  0  0  0  0  0  0  0  0
    9.2462    1.4983  -12.7651 H   0  0  0  0  0  0  0  0  0  0  0  0
   10.2820    0.1041  -13.2230 H   0  0  0  0  0  0  0  0  0  0  0  0
   10.5389    1.7056  -13.9949 H   0  0  0  0  0  0  0  0  0  0  0  0
    6.8744    8.2819  -23.3522 H   0  0  0  0  0  0  0  0  0  0  0  0
    8.2343    7.9792  -22.2185 H   0  0  0  0  0  0  0  0  0  0  0  0
    6.6852    7.0915  -22.0204 H   0  0  0  0  0  0  0  0  0  0  0  0
    3.0985   -3.1379  -18.7695 H   0  0  0  0  0  0  0  0  0  0  0  0
    3.1554   -3.0182  -16.9782 H   0  0  0  0  0  0  0  0  0  0  0  0
    4.4077   -2.2007  -17.9732 H   0  0  0  0  0  0  0  0  0  0  0  0
   10.6261   -4.8453  -17.3233 H   0  0  0  0  0  0  0  0  0  0  0  0
    9.2687   -5.1698  -18.4541 H   0  0  0  0  0  0  0  0  0  0  0  0
   10.1448   -3.6034  -18.5284 H   0  0  0  0  0  0  0  0  0  0  0  0
    4.5642    2.5812  -21.3454 H   0  0  0  0  0  0  0  0  0  0  0  0
    3.8396    1.6359  -20.0008 H   0  0  0  0  0  0  0  0  0  0  0  0
    3.9820   -5.2368  -17.7606 H   0  0  0  0  0  0  0  0  0  0  0  0
    5.2344   -4.4193  -18.7556 H   0  0  0  0  0  0  0  0  0  0  0  0
    8.4343   -4.5955  -16.1874 H   0  0  0  0  0  0  0  0  0  0  0  0
    9.3104   -3.0291  -16.2617 H   0  0  0  0  0  0  0  0  0  0  0  0
    4.9765   -4.3009  -15.7007 H   0  0  0  0  0  0  0  0  0  0  0  0
    6.2034   -5.2274  -16.6296 H   0  0  0  0  0  0  0  0  0  0  0  0
    7.8532   -2.1425  -17.9049 H   0  0  0  0  0  0  0  0  0  0  0  0
    7.3339   -3.7676  -18.4671 H   0  0  0  0  0  0  0  0  0  0  0  0
    3.6398    3.4814  -18.3056 H   0  0  0  0  0  0  0  0  0  0  0  0
    6.2676    3.5107  -19.8695 H   0  0  0  0  0  0  0  0  0  0  0  0
    5.2299    1.5793  -17.8150 H   0  0  0  0  0  0  0  0  0  0  0  0
    3.2721    5.3449  -17.0436 H   0  0  0  0  0  0  0  0  0  0  0  0
    3.4540    6.3742  -18.2982 H   0  0  0  0  0  0  0  0  0  0  0  0
    3.3346    3.9415  -20.5764 H   0  0  0  0  0  0  0  0  0  0  0  0
  1  8  2  0
  1  9  1  0
  2  8  1  0
  2 10  2  0
  3  9  2  0
  3 10  1  0
  4 11  2  0
  4 12  1  0
  5 11  1  0
  5 13  2  0
  6 12  2  0
  6 13  1  0
  7 14  1  0
  7 33  2  0
  8 16  1  0
  9 17  1  0
 10 22  1  0
 11 26  1  0
 12 44  1  0
 13 45  1  0
 14 15  2  0
 14 46  1  0
 15 23  1  0
 15 42  1  0
 16 35  1  0
 16 38  2  0
 17 36  1  0
 17 39  2  0
 18 20  1  0
 18 34  1  0
 19 21  1  0
 19 34  1  0
 20 37  1  0
 21 31  1  0
 21 37  1  0
 24 27  1  0
 25 28  1  0
 26 32  1  0
 27 29  1  0
 28 30  1  0
 29 36  1  0
 30 36  1  0
 31 32  1  0
 31 43  1  0
 32 35  1  0
 33 42  1  0
 34 46  1  0
 40 46  2  0
 41 46  2  0
  1 47  1  0
  2 48  1  0
  3 49  1  0
  4 50  1  0
  5 51  1  0
  6 52  1  0
  7 53  1  0
 18 54  1  0
 18 55  1  0
 19 56  1  0
 19 57  1  0
 20 58  1  0
 20 59  1  0
 21 60  1  1
 22 61  1  0
 22 62  1  0
 22 63  1  0
 23 64  1  0
 23 65  1  0
 23 66  1  0
 24 67  1  0
 24 68  1  0
 24 69  1  0
 25 70  1  0
 25 71  1  0
 25 72  1  0
 26 73  1  0
 26 74  1  0
 27 75  1  0
 27 76  1  0
 28 77  1  0
 28 78  1  0
 29 79  1  0
 29 80  1  0
 30 81  1  0
 30 82  1  0
 31 83  1  1
 32 84  1  6
 35 85  1  0
 37 86  1  0
 37 87  1  0
 43 88  1  0
M  CHG  1  37   1
M  END
>  <OMEGA_C>  (48) 
If3cQACEFryuTIXBN+cHQXqcyT9LHXvBfVICQa55Gb99WGrBnQbgQA5OjD87vKnBQO+mQHcl6b5c
zKTBAJLrQAKYp79BGKvBhxzBQEwQKEE6aZ3BIi/xQN/yoD8gd4XB4ajmQG4TcL80T3rBouUMQc3W
JD9g82rBlBO2QKRaXT8v96XBUMb6QMBkGzztPqzBmKbBQAMoxb9ZYKfBSb3XQJVXFEH8SqDBciDU
QC1REkGyOqvBjFzlQHzqD0C6ro3BWZnPQNxiDsB8F3nBqhqqQNvU/UBG3orBKpjAQFG2v0C4uZbB
b2mMQMgl30BN3oTB3ZagQJh3o0DgYJDB+44cQR2vgT+YelnBSn7kQPPMAEGXe7LB8r9wQCWZRcCq
JY/B7XAcQcGtjMCv4Y7BkOqYQAWoAUAHXaPBykyUQNRWi8Dsr47B8MAMQZY1c8Az14bBwYOyQP5O
isDf94TBChzzQFJ6SsCSsIzByTyMQIFsgEAUWZfB+Y2tQOUaP0DTLpvBzpayQErnMEE5LqbBbBDN
QDaZ5kDdmpDB/V+8QFevDEAg95HB+sLOQF79R8DvMYXBMLV6QCHwvUDMOYzB9hz/QFydRkCviJDB
soO+QKogIcAFEWjBcb4BQRanEUEjFY7BsLUIQQLs6kCcQZzBKEq+QJa/I0Fq3a7BxJxuQOG9k0As
S6DBG3kRQeQBbz4f1q/B0P+yQEB1M8AtUabBnlPzQE5hA0EAf5bBPxTGQGQjiL4Kb4vBIdAPQXM/
IkCLaHvB4rYFQUEBpr9MmF3BHZDrQKfbBkCpsKrBTNeGQBkgIr8g7aHBiAcAQX8vCcBMEK3Bixq9
QCpALkEDaJXBIiiXQIr4B0ECvpDBzYa4QF8OCkGBFoXB03zdQGrTrEDxcpjBbI6xQIedyUB3SZ7B
ovedQHsz0EAScHzBf7FhQDD88EAssoHB/7GxQHhDlEA4sYnBi/ATQebHvz/dPUzBJoMkQV4n1T2F
kVPBbp8oQapR2j/+6l/BvPrbQK2CBEFM0brBnL8DQW9V/0Bqv7HBkO3VQKLt4kDcKbDBDE5GQA/T
SMAAKJbBpfFJQHIqQcBg04fB+AuNQLTYDMAkyY/BrQQqQQ0Nm8A4lorBuUwUQadupcD6oZPBLVEi
QWKdZsAwOpTB2g2SQMUyJUBpw6rBa7t1QDVm0T+gAaDBWdl+QAiUp8CnFY7B0n+nQClrjcBrC5bB
w/IGQUoOk8DVf4HBN/cUQafcQcALGILB4T+fQN2gicDdNXvBdILGQOZGp8B7CYXBlk37QMgeCcBB
PY/BLa/qQOQfccC3vJPBn/JoQLLPXkDGcZLB6I/IQBevYECq9J7BHVunQEkmyj8LhY7Bl2pRQD0J
q0BWWYjBLg5dQKb5y0DGYpLB3GlVQA5BfEBlnKTBO+DdQMCs8Ds+J4bBVYoIQShbyj9m73zBQQwE
QYfYIb/QIm3BJJPdQHRPpD8AtarBQdWlQIy7n76vtKXB3TDqQDQijr/3oKzBPofqQL6M+0AuDq3B
Hb3xQCyXoz8gOobB7HzpQNvXdL9L3nzB5cMNQTmbIz88A23BxSO0QORogj8WuabBu6v4QDj/Xz7l
kK3Bvr7AQF/Xr79luajB/mDgQF9XCkFbfKPBeyLIQFBuG0F246bBVQ/lQOFUEkB3N47BuWvUQLvj
EcA5gXzBbQeoQKTo/0C0uYrB5/a/QKZwwEC/1JXBHryLQCxX4UDiP4TBo6ufQAZapEDWho/Bdn8e
QdC5eD92YFzB7ru0QExXLUGLY6DBXX12QKO0RMBzIo/B2OcWQZTHmcB3n47BGdWWQET8CUBSl6PB
RsGYQKJ5icDucpDBoKwRQV+rVsA3q4vBUcm6QN7gi8Bzh4fB8Tn2QP8sPcA3oY/BCc6KQMArgkBg
tpbBBuqrQA6UREBTKZvB64zZQF1NB0EDXLXBl6HLQBQ46EA+BZDBvta7QKQPD0DPWJLBO6bVQNNT
ScD9JofBcRh5QHzCvkC+NYvBeU3+QPZFSkBZ+JDB6fnCQNkSKMBS1GvB5Xj3QB87F0Hb24/BzDAM
QQqf6kCjaJfBsBzEQLfHGUH9t7HBiGRpQFTAlkAtT5/BlT0QQSJI8j7ERrHBmbSyQLJgKcA/66fB
LhHzQFVYA0EKB5bBtbHFQKslaL4ACYzB2YwQQc1oIkDVRH3BfFcIQQQ5rr89IWHBO3PoQNZoE0De
jqvBcTuGQJwMBL9ynKLBgN7+QIC+9r96567B9+T8QCZI3kDyOa3BZG+UQFjaB0Gk4JDB2pC1QFAY
DEHPU4XB7jbdQMqvrUCOPZfBnImxQGQ+yUDijJ3BlGmeQKmz00AgO3vBBE1gQJT78kAWBYHBfKuw
QARZlEDo8IjB57sWQadftj8+WE7BEtMmQe8xUj01hFfBKB4qQf0a1z84KmPBon+jQPVaOEFJu6XB
CU2eQB+gJkFDf5rB1kXOQKMWNkExM5zBhh9HQN3UQ8DZpJXBNTZVQHCTSMAYZYfB3X2OQJDOCcBp
bI/BMwInQW3mocBxtYvBEhoLQepCr8Cl6YrBJVsWQbmDncBxXpfB01OPQLoSMEAOwKrBgjhyQNy9
3j8fQKDBcSqFQDm0psCqM5DBNA2pQMlRh8D7OpjBZ1MSQVahT8BC64LBepQdQfUiLMAOYI/B6Iqq
QDbAj8CWkH/BAozPQF6up8BYAonBqpj2QD3k8r9NB5LBNMLtQI4YZcDpj5bB5IxnQBc9YEAs0pHB
k23GQAUPaEB94Z7Bl3inQFZbyj/ZFI/BE+RRQGHrq0Cw/YbBd/ZYQAOqy0CRVJHB1JVPQAC+gUBb
waPBD5PeQKhpmr1cfYbBCTgIQWT8wz8ITX3BTfMDQb6sLL8nQ23BBIfdQLgxlj+d9KrB9bGkQKT4
wr7i4qXBLLnoQLuQnb+Zm6zB34DBQKQlKUHsMJzB7MfxQER+mj+eh4bBKR/qQIk4g7/2QX3B8GAN
QSy2Gj/zJm3B0N+zQNlfcD8B/6bBdw74QEp1tD2Jpq3BC/W+QBtHu783x6jB9V/WQLJUFUFEqZ/B
WA3QQDrvE0Gvi6rBNDnlQIGHDUDVlI7BWAXVQMozFsCBYHzBXPiqQHJt/UCaf4rBNnTAQMMHwEBo
sJbBCPeNQBJe3kC0aYTBsfygQGxSo0C9SpDBCLQdQXrTdj/WPlzB64zeQBveAkFhS7LBoTAZQfls
gsAkpobB0KV1QDEyRMA+ao/BbzeXQMkvBkBzAKTBp10KQSqchcDjbZDBynSVQDqIi8Am6o/B0M7x
QKxhRcC/OZDBsPK2QMFjjcCa3YbByNWLQC36gEDAV5fBVZisQNatQEDHnJvBFLGwQAlvMkFClKTB
x3DNQFWN5kAmf5DBAfa7QFsnC0AutJLB3PjTQMjyTsDr/YbBiFx8QLl4vUCbxYvB0Zj+QNM9RUAg
VpHBf4PDQMWSKcANfmvB/HUCQcQhEUGN+I3BNPsHQevV60AvyJzBFXy5QPuVJUHela3B/BlsQDlS
lUBTBaDBeBQQQXGWoD4GSbHBO/KvQMtrLsAP66fBFSfzQG6PA0G2eJbBzwjHQGk4qL6Je4zBqQUQ
QUemH0DYon3BYyUIQVkEsr9QB2HB+QDpQMLXC0De6avBHOiEQGh6D7/e0KLBI/z8QCgbBMB5vq7B
DjfAQPgUL0FEFZTBLWuXQHvcB0HuNZDBYNu5QCnBCUFzvoTBvTTdQApHrUD/opjBNsewQNdiykB9
IZ7BrjugQI4fz0D62nvBk2plQGT870CSAYHBt7OyQFJ2k0CWzYnBuI0VQauUtT+zcU7BmikmQVgI
Yz2rEVfBXkYpQUgO1z8c7WLBuhPUQJ4XB0EPbbrBlNQAQQesAUFPGrLB4nrQQFfO5kA//6/B62Ql
QdO7m8ClEIfB5A8hQVfjRcDslYbBnbgPQZBPhsACl37Bo7dGQBHfQ8Bv+ZXB1OFTQDb3QMAstIfB
BSiQQLeODMApNZDBhUKQQOP3K0B3OKvB5FJyQGnu2T+graDBiPoTQUHegcC5vZfBQaMCQSY8pcBP
c5DB2bB/QFonp8B/KY/Bhw+mQBvzjMB7qpfBSbIAQa1lBsCks4/B6DnfQN8/ScATr5fBjjGmQDt2
jsAZQ37BQUfKQGOMqsCu1ofBiwdpQMccX0AWZZLBvH3HQAP0YkBGVp/B3TqnQLh2xD8mZI/BjytU
QJ1GqkBEzofBOB9dQNDIy0B+xJHBUd1RQG03gEASZqTB

>  <OMEGA_E>  (48) 
+B6QPhhBkj4IMVI+

>  <OMEGA_NBR>  (48) 
     24517

$$$$
50162079
     RDKit          3D

 86 89  0  0  1  0  0  0  0  0999 V2000
    5.7126   10.3391  -21.4025 C   0  0  0  0  0  0  0  0  0  0  0  0
    6.2309    9.9720  -20.0759 C   0  0  0  0  0  0  0  0  0  0  0  0
    6.9842   -0.0056  -16.8497 C   0  0  0  0  0  0  0  0  0  0  0  0
    8.5339    1.6199  -15.8868 C   0  0  0  0  0  0  0  0  0  0  0  0
    8.3116   -0.5930  -14.8893 C   0  0  0  0  0  0  0  0  0  0  0  0
    6.8519    1.2475  -21.3723 C   0  0  0  0  0  0  0  0  0  0  0  0
    5.1090   -0.3457  -20.7437 C   0  0  0  0  0  0  0  0  0  0  0  0
    7.2411   -1.1471  -21.6157 C   0  0  0  0  0  0  0  0  0  0  0  0
    6.0927    9.4506  -22.3799 C   0  0  0  0  0  0  0  0  0  0  0  0
    7.5626    1.2857  -16.8552 C   0  0  0  0  0  0  0  0  0  0  0  0
    7.3705   -0.9524  -15.8758 C   0  0  0  0  0  0  0  0  0  0  0  0
    8.9113    0.6810  -14.9079 C   0  0  0  0  0  0  0  0  0  0  0  0
    5.5591    0.9840  -20.8671 C   0  0  0  0  0  0  0  0  0  0  0  0
    7.6953    0.1815  -21.7347 C   0  0  0  0  0  0  0  0  0  0  0  0
    5.9455   -1.4083  -21.1267 C   0  0  0  0  0  0  0  0  0  0  0  0
    6.9898    8.8270  -20.1083 C   0  0  0  0  0  0  0  0  0  0  0  0
    7.1352    2.2846  -17.8492 C   0  0  0  0  0  0  0  0  0  0  0  0
    6.7286   -2.2818  -15.8169 C   0  0  0  0  0  0  0  0  0  0  0  0
    5.3357    7.9287  -17.2922 C   0  0  0  0  0  0  0  0  0  0  0  0
    5.9749    5.9663  -18.7420 C   0  0  0  0  0  0  0  0  0  0  0  0
    4.3457    7.0196  -16.5553 C   0  0  0  0  0  0  0  0  0  0  0  0
    4.9340    5.1131  -17.9799 C   0  0  2  0  0  0  0  0  0  0  0  0
    9.9032    1.0661  -13.8335 C   0  0  0  0  0  0  0  0  0  0  0  0
    3.8804   -3.0229  -17.9088 C   0  0  0  0  0  0  0  0  0  0  0  0
    9.6325   -4.0085  -16.9615 C   0  0  0  0  0  0  0  0  0  0  0  0
    4.6439    2.1201  -20.4713 C   0  0  0  0  0  0  0  0  0  0  0  0
    4.7282   -4.3056  -18.0029 C   0  0  0  0  0  0  0  0  0  0  0  0
    8.6844   -4.0814  -18.1693 C   0  0  0  0  0  0  0  0  0  0  0  0
    5.7992   -4.3612  -16.8950 C   0  0  0  0  0  0  0  0  0  0  0  0
    7.5932   -2.9929  -18.0952 C   0  0  0  0  0  0  0  0  0  0  0  0
    4.2827    4.0556  -18.8890 C   0  0  2  0  0  0  0  0  0  0  0  0
    5.3140    3.0492  -19.4386 C   0  0  1  0  0  0  0  0  0  0  0  0
    6.4194    7.1309  -17.9404 N   0  0  0  0  0  0  0  0  0  0  0  0
    5.8336    2.2287  -18.3327 N   0  0  0  0  0  0  0  0  0  0  0  0
    6.6908   -3.1651  -16.9203 N   0  0  0  0  0  0  0  0  0  0  0  0
    3.8537    5.9781  -17.4665 N   0  0  0  0  0  0  0  0  0  0  0  0
    7.9161    3.1543  -18.2210 O   0  0  0  0  0  0  0  0  0  0  0  0
    6.1998   -2.5944  -14.7554 O   0  0  0  0  0  0  0  0  0  0  0  0
    8.0558    9.1091  -17.7010 O   0  0  0  0  0  0  0  0  0  0  0  0
    8.7213    7.0927  -19.1122 O   0  0  0  0  0  0  0  0  0  0  0  0
    3.6147    4.7101  -19.9704 O   0  0  0  0  0  0  0  0  0  0  0  0
    8.9366    0.4345  -22.2070 F   0  0  0  0  0  0  0  0  0  0  0  0
    5.5007   -2.6800  -21.0304 F   0  0  0  0  0  0  0  0  0  0  0  0
    7.0846    8.1735  -21.7245 S   0  0  0  0  0  0  0  0  0  0  0  0
    7.6999    8.0413  -18.6451 S   0  0  0  0  0  0  0  0  0  0  0  0
    5.1013   11.2098  -21.5880 H   0  0  0  0  0  0  0  0  0  0  0  0
    6.0368   10.5387  -19.1773 H   0  0  0  0  0  0  0  0  0  0  0  0
    6.2453   -0.2678  -17.5925 H   0  0  0  0  0  0  0  0  0  0  0  0
    8.9891    2.5992  -15.8969 H   0  0  0  0  0  0  0  0  0  0  0  0
    8.5739   -1.2987  -14.1150 H   0  0  0  0  0  0  0  0  0  0  0  0
    7.1924    2.2667  -21.4802 H   0  0  0  0  0  0  0  0  0  0  0  0
    4.1219   -0.5481  -20.3551 H   0  0  0  0  0  0  0  0  0  0  0  0
    7.8862   -1.9655  -21.8993 H   0  0  0  0  0  0  0  0  0  0  0  0
    5.8134    9.5324  -23.4199 H   0  0  0  0  0  0  0  0  0  0  0  0
    4.7959    8.4958  -18.0649 H   0  0  0  0  0  0  0  0  0  0  0  0
    5.7860    8.6276  -16.5719 H   0  0  0  0  0  0  0  0  0  0  0  0
    6.8482    5.3394  -18.9751 H   0  0  0  0  0  0  0  0  0  0  0  0
    5.5234    6.3285  -19.6774 H   0  0  0  0  0  0  0  0  0  0  0  0
    4.8506    6.5475  -15.6997 H   0  0  0  0  0  0  0  0  0  0  0  0
    3.4974    7.6199  -16.1948 H   0  0  0  0  0  0  0  0  0  0  0  0
    5.4347    4.6052  -17.1425 H   0  0  0  0  0  0  0  0  0  0  0  0
    9.3672    1.5051  -12.9792 H   0  0  0  0  0  0  0  0  0  0  0  0
   10.4505    0.1712  -13.5021 H   0  0  0  0  0  0  0  0  0  0  0  0
   10.6141    1.8019  -14.2376 H   0  0  0  0  0  0  0  0  0  0  0  0
    3.1298   -3.0191  -18.7129 H   0  0  0  0  0  0  0  0  0  0  0  0
    3.3729   -2.9898  -16.9334 H   0  0  0  0  0  0  0  0  0  0  0  0
    4.5332   -2.1437  -18.0126 H   0  0  0  0  0  0  0  0  0  0  0  0
   10.3958   -4.7961  -17.0459 H   0  0  0  0  0  0  0  0  0  0  0  0
   10.1225   -3.0240  -16.9391 H   0  0  0  0  0  0  0  0  0  0  0  0
    9.0575   -4.1531  -16.0350 H   0  0  0  0  0  0  0  0  0  0  0  0
    4.3912    2.7050  -21.3680 H   0  0  0  0  0  0  0  0  0  0  0  0
    3.7245    1.7033  -20.0343 H   0  0  0  0  0  0  0  0  0  0  0  0
    4.0666   -5.1788  -17.9038 H   0  0  0  0  0  0  0  0  0  0  0  0
    5.2269   -4.3327  -18.9830 H   0  0  0  0  0  0  0  0  0  0  0  0
    9.2679   -3.9411  -19.0912 H   0  0  0  0  0  0  0  0  0  0  0  0
    8.2029   -5.0703  -18.1870 H   0  0  0  0  0  0  0  0  0  0  0  0
    5.2970   -4.4094  -15.9175 H   0  0  0  0  0  0  0  0  0  0  0  0
    6.4114   -5.2638  -17.0376 H   0  0  0  0  0  0  0  0  0  0  0  0
    8.0807   -2.0094  -18.0239 H   0  0  0  0  0  0  0  0  0  0  0  0
    6.9888   -3.0368  -19.0133 H   0  0  0  0  0  0  0  0  0  0  0  0
    3.5490    3.4968  -18.2896 H   0  0  0  0  0  0  0  0  0  0  0  0
    6.1347    3.5984  -19.9231 H   0  0  0  0  0  0  0  0  0  0  0  0
    5.2045    1.5843  -17.8979 H   0  0  0  0  0  0  0  0  0  0  0  0
    3.1942    5.4089  -16.9754 H   0  0  0  0  0  0  0  0  0  0  0  0
    3.4013    6.4190  -18.2417 H   0  0  0  0  0  0  0  0  0  0  0  0
    3.2113    4.0603  -20.5338 H   0  0  0  0  0  0  0  0  0  0  0  0
  1  2  1  0
  1  9  2  0
  2 16  2  0
  3 10  2  0
  3 11  1  0
  4 10  1  0
  4 12  2  0
  5 11  2  0
  5 12  1  0
  6 13  2  0
  6 14  1  0
  7 13  1  0
  7 15  2  0
  8 14  2  0
  8 15  1  0
  9 44  1  0
 10 17  1  0
 11 18  1  0
 12 23  1  0
 13 26  1  0
 14 42  1  0
 15 43  1  0
 16 44  1  0
 16 45  1  0
 17 34  1  0
 17 37  2  0
 18 35  1  0
 18 38  2  0
 19 21  1  0
 19 33  1  0
 20 22  1  0
 20 33  1  0
 21 36  1  0
 22 31  1  0
 22 36  1  0
 24 27  1  0
 25 28  1  0
 26 32  1  0
 27 29  1  0
 28 30  1  0
 29 35  1  0
 30 35  1  0
 31 32  1  0
 31 41  1  0
 32 34  1  0
 33 45  1  0
 39 45  2  0
 40 45  2  0
  1 46  1  0
  2 47  1  0
  3 48  1  0
  4 49  1  0
  5 50  1  0
  6 51  1  0
  7 52  1  0
  8 53  1  0
  9 54  1  0
 19 55  1  0
 19 56  1  0
 20 57  1  0
 20 58  1  0
 21 59  1  0
 21 60  1  0
 22 61  1  1
 23 62  1  0
 23 63  1  0
 23 64  1  0
 24 65  1  0
 24 66  1  0
 24 67  1  0
 25 68  1  0
 25 69  1  0
 25 70  1  0
 26 71  1  0
 26 72  1  0
 27 73  1  0
 27 74  1  0
 28 75  1  0
 28 76  1  0
 29 77  1  0
 29 78  1  0
 30 79  1  0
 30 80  1  0
 31 81  1  1
 32 82  1  6
 34 83  1  0
 36 84  1  0
 36 85  1  0
 41 86  1  0
M  CHG  1  36   1
M  END
>  <OMEGA_C>  (49) 
Yc22QMJsJUFlOKvBo2PHQC+NH0GGm6DBvn7fQC53trtEzIbB6YoIQepXzz9AMH7BJPwEQfTLF79i
Om7BekLbQAmunz95+qrBCn2jQDb7sL4g86XBd7fnQIDUkr/v7KzBs/fCQH41F0EMCrPBtwDyQI+S
pD9k14bBGNvrQJbNc78iA37BppQOQd5ULj+0hm7BLuSxQF7kez/R76bBlz/2QCriOT6m4K3BwUG+
QMlCtL94A6nB2azfQEw7DUHP3aDBlVPkQEI2EkAjy47Bl1DXQKgIEsAgEn3BHL6qQBe4/UBVVorB
czK/QPXrvkCN75XByQ+LQLOg4EBFcYTBj+OdQCeeo0Dg1o/BrXMeQbF0iD/qVV3BP1l4QPJ3QcA6
RY/BrR4aQepFgMA8sYfBipqUQIavB0BOxaPBuk2XQDfHicDjBZDBefMKQRebgsCyWpHBtZK5QJaO
i8D0KIfBa/vyQDOLP8AIw5DBDQyJQBTHgUC5HJfB5wuqQCQmQ0BMgpvBjmvNQIIw5EDghY/BnKy6
QFyiDkBtqZLBtBrWQKCRSsDRXIfBmKJ2QMlMv0Bvu4vBe1D9QK7fSUCxxJHBCGXGQBEKJsD+FWzB
fOQAQcm+EUGfm43Bn4oLQRH34kDU5ZjBLVdnQFO5lkBdw5/BO/wOQZZw3j7bp7HBZgWwQHmFK8BS
PqjBJLXiQLzGAkGzy63BVWX2QA6pAEFCKZXBfj2jQIpbM0FLtKzBhy3BQJ2eKEEoa5nBz9nHQFIi
ib5mvYzBfNMPQTJZJkCeWX7BtS4JQR07pr/h1mHBOijmQLIREUB/16vBiuaDQClQDL9E16LBC1z8
QGeW+7/UMa/BSge6QKaEGEEJXLvBUXiZQKjuB0HhhJDBRSe5QK8KCkFFk4TBxSTbQLHcqkDyzJfB
UL+wQK+CykA4a53BajibQNaE0UDpMXvBo9RfQG3W80DrjoHBZumtQINdk0DEI4nBCeAVQUqowD+a
qk/BQTUnQXBWLz7ICFjBLNMpQSWk5j8ozWPBHU9IQKU5QcAAtJXB/91XQCNYP8Czd4fBHhCRQPEx
CcDEGZDBV1UmQUp5mcD5XYjB2vUhQb6IQcBXg4fBnusQQUrmhMCkR4DBV4SMQHQeLUC08arBw11u
QKwG2j8vRqDBxCGCQFy4pcANO4/B40KnQEOlisAf3ZfBQEkUQVw7fMDCupjBBD8DQZk/osAPf5HB
+ICpQG0ZjcAQrn7BLyrNQFBxqMABTYjBukoBQRyaAMDxMJDBF6TfQFFaQsAjG5jBGSJjQD7LX0AC
UZLBkU/EQJBMZkB9Yp/BEoumQPLLyj/VLo/Bc25MQPYVrUCvzYfBpK5ZQKFozUAR75HBc4ZNQLTt
gUBTRaTBMSjEQHXcF0Hzk7HBZjbcQBAKCUGtrarBJErfQCCgWbwZn4bBLccIQSzczT/GSX7BKgwF
QW+XF7/X7m3BxX3bQMqelj/MBKvB7S2jQOIsxb4uvqXBoe3mQJD2nL9AtazBEJGzQPTmKEH1/6vB
njzyQCbYoj9C1IbB0LnrQNF/dL/+k33B0WAOQXp5MD/oKW7BKxeyQGfabz9T6abBu//1QDwtwj02
0a3Bwm+9QEJku78tuKjBwjTdQAaxD0E3M6DBuNXkQH/jEECb447BQQHXQKoHEsC1W3zBiiarQHbU
/EBzR4rBr7a/QIMAv0D/Q5bB3LmLQPEc30CAhYTBbrSeQF86o0BzMpDBPRwfQeRJhz+ys13B9p12
QMgARMDe/o7B708ZQfBFgcDQY4fBa0GVQIrIBUBg5qPBxGaWQHYoi8C1aI/BkB0KQfB6g8CNC5HB
qJq4QJfUi8ANhYbBI3nxQE/6QMCic5DB/+qJQE5qgUB/d5fBV9yqQGK9QUDIt5vBbsbNQNIZ5EBa
vI/Bxiu7QE3MDUBXxJLBhALVQN30SsDv9IbBBR14QP9+vkA8AIzBRwb+QFz4R0De7ZHBtrHGQDqS
JcDAMGvB+KMBQb8EEUG4UY3B8LUKQePm5EAWCprBMMhpQFJLlkD7LqDBPuYOQVKUpj66orHBb62u
QJqgLsCDyqfBPvnAQDWIJ0FofJ7Bx+71QHgvAUFQVpXBIAHAQL2YFUGNFLrBeFrrQG4s9UBjhq3B
30HHQBDMjL6Hd4zBpH0QQfa7JEDw5n7B84sJQRaSpr+hs2HB9cnmQD0mDECZAqzBcJeDQDe0Eb/P
j6LBiC77QMOhA8BM6q7B6KegQGCENUGUia/BqZuZQDvQB0EWSpDBV7W5QGxICUErZITBV8PbQJo5
q0BsOJjBgwyxQDjXykCssp3Bfw6cQNlpz0BrknvBjhhhQIzs8UDBfoHBOfuuQA/vkkDIionB7koX
QYHWwT8ZvE/BSbwnQQDCGj6Kq1jBynoqQYjl4j+AumTBqqpGQOJYRcDCb5XBxQdWQBbbP8BaNofB
KDyQQOMDDMBQCpDB8nYlQR+XmsB0EYjBQDohQcWuQ8DkN4fBFx4QQZjMhcCz8X/B14iNQEOXKkAT
JqvB4TZvQAl92D8zZKDB1jGBQKP2psBPZ47BHGqmQAkLjcBGO5fBeHITQewvfsDibJjBTlYCQSwN
o8DYLZHBeXeoQJaZjMAYZ33Bl1HMQAjAqMC+dIfBqpsAQe0bAsBEA5DBPMvdQAVKRMB3vJfBAVRk
QEKbX0BusZLBGEnFQMAuZEDjn5/BIcymQMvJyj9xOY/BGrpNQJT1q0AGM4jB7G5bQIAmzUCfJJLB
VwhQQKJ4gUBpsKTBnSDGQNE1FkEVErLBPLndQAfnB0G30arBRk3fQABmnLw4qIbBCeAIQcvTzD+Q
dH7B2zIFQcbQGb9OHm7Bg1bbQN3AmD8UG6vB1SGjQLG5vb4jzKXBS9nmQGbHmr9KzKzB+AK1QOiT
J0Ej26zB3kvyQEr2oT/M4IbB+uLrQOZXdr9ntX3B/YMOQUNpLj+EWm7BAPyxQGCncz+g+qbBGN31
QLxc5j2i6q3BtWS9QDxkub8yyqjBzeDdQOk5D0Gvc6DBcNXkQJN7EEBM6o7BlBHXQNdfEsCqenzB
ZWuqQAdd/UBofIrBy8W/QN32vkBpK5bBTm2LQL2030AVkoTBBseeQOw2o0AXEZDBET4fQXqThj/f
5l3BKoQZQdvugMAwcIfB8/N1QKR/QsBPGI/BYzSVQJWkBkBC66PB4h4KQaLYg8BRAJHBiNqVQJaK
isAVi4/BjX7xQJiZQcDSf5DBdAG4QB2ai8BJo4bBYvKJQEZagUBhU5fBbdSqQAnyQUDAqpvB1WTN
QEuD5ECTvY/Bziu7QAxqDUALyJLB2tLUQFgVS8AkCYfBW/R3QFFkvkCR44vBVwD+QK+cR0B985HB
0aLGQEu1JcCfU2vBsyoBQRKDEUHOY43BFe8KQfHs5EBRrZnBs1ppQMM/lkBnAKDBO84OQZ1ssD4x
w7HBhaSuQOGhLcA83qfBwHHBQHskJ0G9Qp/BDtL1QFhLAUGhTJXBsqTCQDphE0GgjLrBqyvtQAGa
8kAWW63BzB7HQFHKjr4teIzB7JsQQWUrJEAYG3/B18IJQR3bp79D7mHB+pXmQL0+DUBJGqzBFpaD
QLg8Dr8UmKLB+x37QAx/AsBaA6/BLUWiQLLoM0ESsLDBHq+YQAijB0HtoJDB15S4QK/0CUHvuoTB
pAXcQC5Nq0BjA5jB6DixQNNOykD4qZ3BTgucQM6n0ECwknvB6DBgQBBt8kCHmIHBHBOvQCP6kkAD
aInBfmoXQWAHwT/t7k/Bd+YnQUVQFj6Z3ljBppUqQVhb4j/s72TBO6UlQXRRmsAfD4jB/HEhQeAD
Q8D5dIfBcXkQQQXhhMD353/B+hlGQD5YQ8B6jJXB90JVQKJ4PsBMUYfBVw+QQBWyCsCXGJDBZpmN
QKTvK0D3IqvBTftuQJIT2j/rc6DBYU4TQfgKgMB8cpjB1lUCQQ1qo8B+8ZDBEHyAQFk/psAQlY7B
6+mlQBNcjMBbXJfBaqEAQcK+AsBWFZDBJffdQJsxRcCVzpfBTM2nQCdFjMCop33B3m7LQHG2qMBV
lIfBQ7dkQI09X0Beh5LBvT3FQM2uZEDWiZ/BndqmQI9PyT9KSI/B1UlOQJPYq0Cy94fB335aQAt6
zECDDpLBuYpPQCVugUCzgKTBtSa2QHzhJkHq8KnBv2jHQPNCIEG3gp/BywHgQFBYNz5uqoXB5VUL
QUJk4j9q5n/BeGsGQUT2pL5VZmzBbjfZQAzmnD/hV6zBB1imQH34xL6t9qTBRXnoQC70lL8VP63B
cebAQD7wGEFRArLBZjH1QJEytT9QBofBUpTrQNX/LL+KZ3rBlWERQTqMZD+1Pm/BqxmyQOAPcz+D
JqfBMHD0QNChLT5PV6/BMW/BQEhJuL8LD6jBhvneQHDADUGIKKDBtBznQEIBFkBPgY/BaV7SQNaa
8L8MTXbBLv6qQP7S+0DkzYnBL+e+QMbQvkA/CpbBYCOLQHoB3kBIL4TBDhWeQHKeokCTFZDBKWUi
QZxlpj9dWV/BeFNqQFa8jsBcZI3BHU4XQSegecD0mpXBcLiUQNARBUDv56PBsOOXQKAKXMBAzYrB
X+IBQa8aWMDYdpHBHzW3QJzHgMBmfYLB0FICQT5BWMC1L4XBYZmJQHg1gUBWiJfBA9uqQIi9QkCF
AJzB5XjNQPb34kAESo/B5wq9QGKtEEC0HZPB0lDaQJ6iRMBVoYDBhNZ2QGSdvUBbwIvB/fv/QChm
S0BjHpPBPmSzQD3y47/QX2rBbPwAQfj0EEHI74zB4l8LQfT84kA215jBPpVoQHyFlkCUI6DBswUN
QYYh3z7mPbTBOPO1QPv6LcBcEqbBvzfgQLPlA0H8Oa3B2j/2QD5oAEGRwJTBmSSjQGgdNUF6IavB
bCbCQO74KEFbKpjBsOTGQHSX4r1UIYvB2YUTQdOQLUAu7IDBHsoKQSqoe78bc1/BKD/iQJPQD0C4
A67BzpGIQMGfGL+T6qDBFz79QHK4/L+Bnq/BnTS3QI3FGkFXQLrBS8WZQIGNB0HDxo/BRaG5QJKN
CEFl04PBd7raQHwbq0CUOZjBc/WvQI+dy0A0Vp3BXCibQE7/zUBW5XrBVvRfQMni8ED8LIHBq26u
QOXrkUDkgInB2/IaQTzJ7D+HDFLBgWgqQRSQzT7xHFnBbDguQZPx+D+iUGfB7eU9QPAugcB2UZPB
LgCEQFLVq8A7rJDBaQBHQHjKlsAdDYbBsi8XQZvSecCxZ57B/kkkQZMHUMA3u5LB4d0ZQS6VncCc
qJLBHEWLQEb4KEAAGavBNSBwQKcn1D9/EaDBXYCpQN3zS8CdJpLBYwCJQCneIcB/h4fBvZT+QGKD
FsDOYpTBg7zpQBXTgMA0UJTBBSGmQLiahsA93nXBrFvEQC0dn8CLgoXB/mMHQUzui8CCZILBbNkN
Qf3WJ8DMbYLBWi1kQN7RXUCL2JLBpTjEQII3ZkBOMaDB5J6pQNgazz/kX4/BTMBMQN7TqkCE+YfB
LshZQNiAzECV1JHBX0RPQJ/ogUAIvqTBqKvBQLnHGkGqY7DBKyvaQOQOC0GBHKrBy/DeQNaCJT6P
JoXBHuMKQbly3j87o37BuZYFQSautL6aNWvBpMTaQA0tkj8t1qvB1yumQNeS2b4lnaTBR3PoQEUK
ob8bd6zBmWmyQFpQK0HOOKrBtF70QN2Usj94cobB6iTqQMNbM7/XZnnBf7EQQaLmWz+c8G3BHw6z
QETPZT8W1KbBo3z1QHkfgz3rnK7BLsPAQBUmwL8ZfKfBybTcQM6QEEEKfJ/BzsXmQJ0QFUC6847B
43DQQDzs8r/edXXBdFarQB6N+0AuG4rBw4S/QLLLvkCVbZbBFZmLQMac3UAThITBseueQEyHokCq
Z5DB3o8hQW2xoT/a3V3BKGVgQGqyi8DMkIvBJaYXQWi9e8C6YpTBRBWWQMMPA0B33qPBSgeYQEil
X8DUoYrBbY4CQS8JVsDeZ5DBuje2QNHygcDQ8oHBiAMCQdMDW8B1JITB0qKKQM6ygEC8vJfBjPar
QIjHQEAa75vBROLNQK0X40CTsY/B2i69QEMKD0Az45LB8EDZQLMFR8B/xn/BKyx4QDNbvUAcIIzB
67P/QNpCS0DdWJLBfc6vQEhh4r8YxGrB41UCQbTHD0FS3YzBDE4KQVPD5EAeb5rB33ZrQDpxlUAP
fqDBp8gNQcPFmD7eYrPBCxS0QFEyMcB4haXB44HBQDZfKEH05JzBBQ72QL/ZAEGsK5XBmEi8QOl3
GUEC5rjBWH7oQAKt+UDvd63BMOTFQLbq9r2SqIrBDDwTQUhEK0B3RIDBXMIJQZbzgb+jNl7B06Lk
QMHrCUAlia3BzeiHQJp/HL9lt6DB4eT8QO13BcBwo67BIX6fQCpxOEHdQK3B2PmZQKd/B0H3BJDB
7QK6QHNUCEFQGITBLnDbQBo6q0C5nZjBIGywQK9qy0CFuZ3Bs6KbQMaMzUBrlHvBv7dgQLFa8EBB
f4HBInGvQCI6kkD1yYnBYwEaQatd6D8Ap1DBNXUpQb/+uT46iVfB4YEtQerc8z+ZtmXB9d01QJMX
fcCSwpHBUC9zQCZ2rMBXw43BXZ4+QNA3jMB/2IPBtTAYQZJ1eMADLJ3BcRQlQUEFV8AYB5HBy98Y
QRx0n8Bf0pHBN6ONQEGMJkCLK6vBK6txQFjx0j+MKaDB2dSoQKugXsAeXZLBX4yOQAAkHsBGcojB
/E0BQRLUEsAq85LBqzLqQAm3esBxvpPB/wykQEEph8CVDHXBzq7DQDqKoMBotYTBG3kGQTMRjsB+
poHBFpgNQd/uLMC83YDBQLRlQMy6XUBUBpPB5tfFQJtkY0AyCqDBznGpQKVjyz9USo/Bt+1NQL19
qkCYZojBV2pbQIdNzEC8N5LBO1xSQMKIgEC5B6XB

>  <OMEGA_E>  (49) 
QP0SPcD1HD0AGQE9aJW6Prh0xz4=

>  <OMEGA_NBR>  (49) 
     31373

$$$$
50162097
     RDKit          3D

 82 84  0  0  1  0  0  0  0  0999 V2000
    6.9659   -0.0496  -16.8272 C   0  0  0  0  0  0  0  0  0  0  0  0
    8.5491    1.5492  -15.8744 C   0  0  0  0  0  0  0  0  0  0  0  0
    8.3087   -0.6647  -14.8835 C   0  0  0  0  0  0  0  0  0  0  0  0
    6.8664    1.2210  -21.3998 C   0  0  0  0  0  0  0  0  0  0  0  0
    5.1087   -0.3384  -20.7289 C   0  0  0  0  0  0  0  0  0  0  0  0
    7.2234   -1.1819  -21.6035 C   0  0  0  0  0  0  0  0  0  0  0  0
    7.5632    1.2351  -16.8368 C   0  0  0  0  0  0  0  0  0  0  0  0
    7.3531   -1.0072  -15.8610 C   0  0  0  0  0  0  0  0  0  0  0  0
    8.8991    0.6125  -14.8821 C   0  0  0  0  0  0  0  0  0  0  0  0
    5.5736    0.9822  -20.8853 C   0  0  0  0  0  0  0  0  0  0  0  0
    7.6951    0.1389  -21.7449 C   0  0  0  0  0  0  0  0  0  0  0  0
    5.9276   -1.4179  -21.1009 C   0  0  0  0  0  0  0  0  0  0  0  0
    7.1453    2.2503  -17.8274 C   0  0  0  0  0  0  0  0  0  0  0  0
    6.7009   -2.3321  -15.7978 C   0  0  0  0  0  0  0  0  0  0  0  0
    5.2045    8.0317  -17.4551 C   0  0  0  0  0  0  0  0  0  0  0  0
    6.0268    6.0335  -18.8126 C   0  0  0  0  0  0  0  0  0  0  0  0
    4.4520    7.0097  -16.5883 C   0  0  0  0  0  0  0  0  0  0  0  0
    5.0236    5.1250  -18.0308 C   0  0  2  0  0  0  0  0  0  0  0  0
    9.9531    0.9548  -13.8529 C   0  0  0  0  0  0  0  0  0  0  0  0
    3.8348   -3.0337  -17.8597 C   0  0  0  0  0  0  0  0  0  0  0  0
    9.6121   -4.0714  -16.9709 C   0  0  0  0  0  0  0  0  0  0  0  0
    8.2459    8.5681  -18.9743 C   0  0  0  0  0  0  0  0  0  0  0  0
    4.6826    2.1372  -20.4992 C   0  0  0  0  0  0  0  0  0  0  0  0
    4.6680   -4.3243  -17.9711 C   0  0  0  0  0  0  0  0  0  0  0  0
    8.6383   -4.1502  -18.1571 C   0  0  0  0  0  0  0  0  0  0  0  0
    5.7484   -4.4021  -16.8731 C   0  0  0  0  0  0  0  0  0  0  0  0
    7.5565   -3.0524  -18.0747 C   0  0  0  0  0  0  0  0  0  0  0  0
    4.3507    4.0711  -18.9204 C   0  0  2  0  0  0  0  0  0  0  0  0
    5.3668    3.0421  -19.4553 C   0  0  1  0  0  0  0  0  0  0  0  0
    5.6541    7.4797  -18.7715 N   0  0  0  0  0  0  0  0  0  0  0  0
    5.8559    2.1987  -18.3468 N   0  0  0  0  0  0  0  0  0  0  0  0
    6.6568   -3.2185  -16.8975 N   0  0  0  0  0  0  0  0  0  0  0  0
    3.9393    5.9138  -17.4127 N   0  0  0  0  0  0  0  0  0  0  0  0
    7.9187    3.1440  -18.1572 O   0  0  0  0  0  0  0  0  0  0  0  0
    6.1770   -2.6412  -14.7326 O   0  0  0  0  0  0  0  0  0  0  0  0
    6.0540    9.9000  -19.6090 O   0  0  0  0  0  0  0  0  0  0  0  0
    6.7671    7.9464  -21.0743 O   0  0  0  0  0  0  0  0  0  0  0  0
    3.6800    4.7354  -19.9937 O   0  0  0  0  0  0  0  0  0  0  0  0
    8.9412    0.3700  -22.2156 F   0  0  0  0  0  0  0  0  0  0  0  0
    5.4643   -2.6810  -20.9818 F   0  0  0  0  0  0  0  0  0  0  0  0
    6.6103    8.5451  -19.7405 S   0  0  0  0  0  0  0  0  0  0  0  0
    6.2126   -0.2984  -17.5600 H   0  0  0  0  0  0  0  0  0  0  0  0
    9.0368    2.5124  -15.8996 H   0  0  0  0  0  0  0  0  0  0  0  0
    8.5896   -1.3868  -14.1311 H   0  0  0  0  0  0  0  0  0  0  0  0
    7.2185    2.2339  -21.5282 H   0  0  0  0  0  0  0  0  0  0  0  0
    4.1243   -0.5208  -20.3237 H   0  0  0  0  0  0  0  0  0  0  0  0
    7.8548   -2.0132  -21.8802 H   0  0  0  0  0  0  0  0  0  0  0  0
    4.5377    8.8857  -17.6448 H   0  0  0  0  0  0  0  0  0  0  0  0
    6.0902    8.3743  -16.9001 H   0  0  0  0  0  0  0  0  0  0  0  0
    7.0264    5.9157  -18.3688 H   0  0  0  0  0  0  0  0  0  0  0  0
    6.0512    5.7069  -19.8628 H   0  0  0  0  0  0  0  0  0  0  0  0
    5.1385    6.6023  -15.8315 H   0  0  0  0  0  0  0  0  0  0  0  0
    3.6099    7.5103  -16.0879 H   0  0  0  0  0  0  0  0  0  0  0  0
    5.5834    4.6034  -17.2405 H   0  0  0  0  0  0  0  0  0  0  0  0
    9.4726    1.4012  -12.9697 H   0  0  0  0  0  0  0  0  0  0  0  0
   10.4868    0.0398  -13.5565 H   0  0  0  0  0  0  0  0  0  0  0  0
   10.6668    1.6724  -14.2837 H   0  0  0  0  0  0  0  0  0  0  0  0
    3.0776   -3.0154  -18.6575 H   0  0  0  0  0  0  0  0  0  0  0  0
    3.3357   -3.0030  -16.8799 H   0  0  0  0  0  0  0  0  0  0  0  0
    4.4960   -2.1605  -17.9619 H   0  0  0  0  0  0  0  0  0  0  0  0
   10.3671   -4.8662  -17.0622 H   0  0  0  0  0  0  0  0  0  0  0  0
   10.1105   -3.0907  -16.9703 H   0  0  0  0  0  0  0  0  0  0  0  0
    9.0558   -4.2005  -16.0308 H   0  0  0  0  0  0  0  0  0  0  0  0
    8.9100    9.2329  -19.5462 H   0  0  0  0  0  0  0  0  0  0  0  0
    8.1614    8.9351  -17.9408 H   0  0  0  0  0  0  0  0  0  0  0  0
    8.6626    7.5501  -18.9690 H   0  0  0  0  0  0  0  0  0  0  0  0
    4.4561    2.7317  -21.3965 H   0  0  0  0  0  0  0  0  0  0  0  0
    3.7473    1.7430  -20.0749 H   0  0  0  0  0  0  0  0  0  0  0  0
    3.9976   -5.1909  -17.8738 H   0  0  0  0  0  0  0  0  0  0  0  0
    5.1579   -4.3484  -18.9557 H   0  0  0  0  0  0  0  0  0  0  0  0
    9.2035   -4.0255  -19.0925 H   0  0  0  0  0  0  0  0  0  0  0  0
    8.1489   -5.1353  -18.1530 H   0  0  0  0  0  0  0  0  0  0  0  0
    5.2543   -4.4504  -15.8915 H   0  0  0  0  0  0  0  0  0  0  0  0
    6.3467   -5.3122  -17.0275 H   0  0  0  0  0  0  0  0  0  0  0  0
    8.0533   -2.0736  -18.0025 H   0  0  0  0  0  0  0  0  0  0  0  0
    6.9482   -3.0883  -18.9904 H   0  0  0  0  0  0  0  0  0  0  0  0
    3.6133    3.5311  -18.3084 H   0  0  0  0  0  0  0  0  0  0  0  0
    6.2066    3.5723  -19.9282 H   0  0  0  0  0  0  0  0  0  0  0  0
    5.2163    1.5455  -17.9414 H   0  0  0  0  0  0  0  0  0  0  0  0
    3.3887    5.3088  -16.8376 H   0  0  0  0  0  0  0  0  0  0  0  0
    3.3667    6.2970  -18.1374 H   0  0  0  0  0  0  0  0  0  0  0  0
    3.2593    4.0917  -20.5515 H   0  0  0  0  0  0  0  0  0  0  0  0
  1  7  2  0
  1  8  1  0
  2  7  1  0
  2  9  2  0
  3  8  2  0
  3  9  1  0
  4 10  2  0
  4 11  1  0
  5 10  1  0
  5 12  2  0
  6 11  2  0
  6 12  1  0
  7 13  1  0
  8 14  1  0
  9 19  1  0
 10 23  1  0
 11 39  1  0
 12 40  1  0
 13 31  1  0
 13 34  2  0
 14 32  1  0
 14 35  2  0
 15 17  1  0
 15 30  1  0
 16 18  1  0
 16 30  1  0
 17 33  1  0
 18 28  1  0
 18 33  1  0
 20 24  1  0
 21 25  1  0
 22 41  1  0
 23 29  1  0
 24 26  1  0
 25 27  1  0
 26 32  1  0
 27 32  1  0
 28 29  1  0
 28 38  1  0
 29 31  1  0
 30 41  1  0
 36 41  2  0
 37 41  2  0
  1 42  1  0
  2 43  1  0
  3 44  1  0
  4 45  1  0
  5 46  1  0
  6 47  1  0
 15 48  1  0
 15 49  1  0
 16 50  1  0
 16 51  1  0
 17 52  1  0
 17 53  1  0
 18 54  1  1
 19 55  1  0
 19 56  1  0
 19 57  1  0
 20 58  1  0
 20 59  1  0
 20 60  1  0
 21 61  1  0
 21 62  1  0
 21 63  1  0
 22 64  1  0
 22 65  1  0
 22 66  1  0
 23 67  1  0
 23 68  1  0
 24 69  1  0
 24 70  1  0
 25 71  1  0
 25 72  1  0
 26 73  1  0
 26 74  1  0
 27 75  1  0
 27 76  1  0
 28 77  1  1
 29 78  1  6
 31 79  1  0
 33 80  1  0
 33 81  1  0
 38 82  1  0
M  CHG  1  33   1
M  END
>  <OMEGA_C>  (50) 
/ejeQJwBS701nobB88gIQbNKxj9d/X3BgfAEQcIrKr/3Im7B37nbQJ5InD/QMqvBMXqjQApDrb7S
1KXBDCbnQB1Hl7/j06zBFQbyQGQYnj/RsYbBbEzrQEztgL/Gxn3BrmIOQbDPHD8tHW7Bj1qyQI50
ez8KFafBhz72QC5CDj599a3BvK69QNd8tb+hzqjBLabkQHYFEECPno7BBW7WQNpAFcC8w3zBAIum
QNuBAEEQpIvBwNvAQB4SwUBDgJbBc3aOQDhP4EDKtITBPMGgQPf/o0ALP5DBtD8fQfZvdD9KpV3B
q2x1QLYnQsCw4I7BOcsZQcZIgsBqxIfBU+8DQeUWCUFpy5fBfteVQGrHCEBM/qPB+1+VQG5gisDo
xI/BeDYKQXnOhMDGQZHByPK3QEjejMAi/IbBP8/xQFBaQ8DlmJDBDjmLQGJGgkDyXJfBkryrQN+x
QkBppJvBpe60QOtZ70D6K5bBI2O7QJi3DEAzxpLBMQTVQKH8TcAKLofBpR18QCI+vUAvTYvBomX9
QPg3SUDzQZHBBqrFQLIJKcDhuGvBZLrBQD1mHkFA35zByovYQDBJ/kAfmKjBCYVrQCeIl0AD85/B
Mw8PQTF1vT6LubHBOtuuQPuUK8C82qfBmofTQLW4CEGI7J3B1c3GQC/JmL76eozBkpYQQb3LIEDg
ZH7B724JQcyCsb8WGWLBQP7mQGz3DkDQOazBWvqDQFJVBb8Il6LBt1r7QB3YAMCkCq/BjTSRQPkr
DkGnKI3BAOPCQC39BUFSM4fBJdjgQG5NvUA885LBF6PBQPeetkDs5p7BXG6kQMxF00DITX3B1whn
QP9T8EAEtIDBl6uyQChPk0CX7InBoY8XQY1Zsz//g0/BAMonQT0DIz2O51jBIqsqQagR1j88imTB
nPdEQEH8QMB4QpXB03tVQNkxQMAVCofBA9+PQFBGCsDisY/Bp98lQYe3m8Bjf4jBcsQhQcXORcA7
w4fBm+QQQb9qhsAGP4DBQY8OQQq6E0GeXpzBMpUCQQn2DkG9ho/B0JkKQQqa8UCTwJfBwpiOQDTU
LkAcLKvBZdRvQHcb3z9cmaDBmdh/QDkcpsCF/Y7BZg2lQHQmi8BTpZfBqEETQS/RgMB5vZjB0WEC
QYtUpMBEOZHB4iKoQHRpjsCxQ37BGxjLQFv9qcBrOIjBOdoAQY61BMA1BZDBx1feQCamRcBn7JfB
uz9nQLv8YUCbd5LBFJzGQG2gZED7bJ/BP+ymQOHRxT8OiI/BfOBYQI/hqUBfs4bBY3dXQPeAyUB5
GZHBmJhQQPfugkB0aaTBCTPfQHtqJ71MnobBt8gIQWlwyD8T9n3BngoFQSPJJb8YEm7ByZ7bQHed
mz9KK6vB30+jQGb9rr6yzaXBvvfmQGH6l78my6zBmTDyQOltnz9Gs4bBH53rQND7fr8pv33BuGMO
QesGIj+yCm7BlD+yQLh+ej+fDKfB9xv2QFQbCD4V7K3BnHi9QIoKtr8oyqjB48vkQFpwEEBBpI7B
UcLWQNKbFMCYsnzBPHmlQOeeAEGfyovB9PzAQCYnwUDeY5bBgpKNQH+a4ECdzoTBN9mgQNfvo0Dc
LpDBgBsfQX76ez/IeF3BHTgZQbmAgsCKwofB0291QASCQsDmAY/BiMkDQf8QCUELtpfBx82VQJum
CECH9aPBXtYJQTt+hMCOV5HB11GVQOaqisDjsY/BACrxQNuQQsCtqJDBrMm3QCh9jMCw4IbBmm2L
QCJKgkDYWJfBNdirQIWzQkASpZvBiI+0QBZP70C1OZbBq427QMLYDEA3yZLB3afUQBXsTMAeL4fB
XqV7QJbpvEAmSYvBQID9QCGjSUByTpHBWHnGQIi1KMD0j2vBOZbBQP1hHkH96JzBZ6/YQLM6/kDj
lqjBojtsQIKzl0D07Z/B//oOQYDJuT7htLHBFpWuQNXZK8DX3qfBpmPTQLmyCEHh7Z3BuCnHQK38
lb5jfYzBHIUQQT0BIkARXn7ByZAJQXoOr78XA2LB6+jmQKqbDkBsNKzBws+DQP/tBb8cj6LBWyr7
QOo7AcBA/67BFNGPQKIXDkGOc43BUnnBQH1qBkGJUIfBQszgQBrivUA0tpLBZ2LCQN5htkDBwp7B
In+jQEQ31EATUX3BjJFkQFeB8ED164DBiKmyQGs3k0AS2YnBdEcXQRv7tj8HaU/Bb7UnQa49lj2+
o1jB838qQRlM2j/HUGTBaUclQSP4m8DVf4jBRDwhQX5XRsDinofBhiYQQTjvhsDFTIDBWBRFQMQy
QsAcZ5XBM2FVQM9UP8DKLofB9+6PQA3VCsCD8Y/BdHkOQRizE0GEQJzBP1MCQXDxDkHNco/BSnMK
QdGN8UDfpJfBAXmOQC+RLkDFJKvBddRvQHwV3z/Qh6DB2goTQaMzgMDuw5jBG/UBQRz3o8DRcZHB
/qZ/QJdPpsDky47B3BGlQLYPjMCejpfBq5AAQcv2A8DMIpDBoHzdQNz7RMAB85fBDuOnQF+ujcCU
EH7B9BrLQGmSqcBG/4fBvHNnQJ76YUCcfJLB9azGQIiJZEDQdZ/BiSinQLXTxT+Wio/BQyVZQDh9
qUA/nYbB731WQFKQyECyHJHBYGxRQPYvg0BWbaTB

>  <OMEGA_E>  (50) 
8NXZPkBb2j4=

>  <OMEGA_NBR>  (50) 
     34264

$$$$
50162077
     RDKit          3D

 89 92  0  0  1  0  0  0  0  0999 V2000
    6.9887    0.0328  -16.8794 C   0  0  0  0  0  0  0  0  0  0  0  0
    8.5527    1.6616  -15.9457 C   0  0  0  0  0  0  0  0  0  0  0  0
    8.3688   -0.5586  -14.9571 C   0  0  0  0  0  0  0  0  0  0  0  0
    6.7926    1.2677  -21.4293 C   0  0  0  0  0  0  0  0  0  0  0  0
    5.0666   -0.3241  -20.7524 C   0  0  0  0  0  0  0  0  0  0  0  0
    7.1906   -1.1288  -21.6401 C   0  0  0  0  0  0  0  0  0  0  0  0
    6.3912    9.7544  -20.2435 C   0  0  0  0  0  0  0  0  0  0  0  0
    6.5677    8.7155  -22.2722 C   0  0  0  0  0  0  0  0  0  0  0  0
    7.5606    1.3267  -16.8931 C   0  0  0  0  0  0  0  0  0  0  0  0
    7.4072   -0.9183  -15.9239 C   0  0  0  0  0  0  0  0  0  0  0  0
    8.9364    0.7304  -14.9620 C   0  0  0  0  0  0  0  0  0  0  0  0
    5.5090    1.0049  -20.9015 C   0  0  0  0  0  0  0  0  0  0  0  0
    7.6369    0.2003  -21.7855 C   0  0  0  0  0  0  0  0  0  0  0  0
    5.9011   -1.3882  -21.1333 C   0  0  0  0  0  0  0  0  0  0  0  0
    7.1422    8.6145  -20.1304 C   0  0  0  0  0  0  0  0  0  0  0  0
    7.1103    2.3247  -17.8781 C   0  0  0  0  0  0  0  0  0  0  0  0
    6.7769   -2.2532  -15.8612 C   0  0  0  0  0  0  0  0  0  0  0  0
    5.3320    7.9271  -17.3047 C   0  0  0  0  0  0  0  0  0  0  0  0
    5.9415    5.9619  -18.7454 C   0  0  0  0  0  0  0  0  0  0  0  0
    4.3121    7.0398  -16.5780 C   0  0  0  0  0  0  0  0  0  0  0  0
    4.8951    5.1148  -17.9898 C   0  0  2  0  0  0  0  0  0  0  0  0
   10.0048    1.0915  -13.9543 C   0  0  0  0  0  0  0  0  0  0  0  0
    3.8726   -3.0066  -17.8113 C   0  0  0  0  0  0  0  0  0  0  0  0
    9.6712   -3.9070  -17.0167 C   0  0  0  0  0  0  0  0  0  0  0  0
    5.1656   10.7960  -22.1440 C   0  0  0  0  0  0  0  0  0  0  0  0
    4.5980    2.1404  -20.4995 C   0  0  0  0  0  0  0  0  0  0  0  0
    4.7266   -4.2780  -17.9741 C   0  0  0  0  0  0  0  0  0  0  0  0
    8.7331   -3.9999  -18.2312 C   0  0  0  0  0  0  0  0  0  0  0  0
    5.8572   -4.3445  -16.9273 C   0  0  0  0  0  0  0  0  0  0  0  0
    7.6051   -2.9493  -18.1582 C   0  0  0  0  0  0  0  0  0  0  0  0
    4.2440    4.0625  -18.9040 C   0  0  2  0  0  0  0  0  0  0  0  0
    5.2755    3.0634  -19.4669 C   0  0  1  0  0  0  0  0  0  0  0  0
    7.2298    7.9947  -21.3935 N   0  0  0  0  0  0  0  0  0  0  0  0
    6.0709    9.7862  -21.5667 N   0  0  0  0  0  0  0  0  0  0  0  0
    6.4087    7.0956  -17.9182 N   0  0  0  0  0  0  0  0  0  0  0  0
    5.8125    2.2404  -18.3703 N   0  0  0  0  0  0  0  0  0  0  0  0
    6.7287   -3.1344  -16.9669 N   0  0  0  0  0  0  0  0  0  0  0  0
    3.8184    5.9905  -17.4830 N   0  0  0  0  0  0  0  0  0  0  0  0
    7.8715    3.2163  -18.2380 O   0  0  0  0  0  0  0  0  0  0  0  0
    6.2648   -2.5714  -14.7933 O   0  0  0  0  0  0  0  0  0  0  0  0
    8.0318    9.0926  -17.7008 O   0  0  0  0  0  0  0  0  0  0  0  0
    8.7923    6.9728  -18.9043 O   0  0  0  0  0  0  0  0  0  0  0  0
    3.5714    4.7239  -19.9783 O   0  0  0  0  0  0  0  0  0  0  0  0
    8.8707    0.4526  -22.2775 F   0  0  0  0  0  0  0  0  0  0  0  0
    5.4572   -2.6590  -21.0230 F   0  0  0  0  0  0  0  0  0  0  0  0
    7.7446    7.9515  -18.5806 S   0  0  0  0  0  0  0  0  0  0  0  0
    6.2298   -0.2282  -17.6021 H   0  0  0  0  0  0  0  0  0  0  0  0
    9.0188    2.6354  -15.9758 H   0  0  0  0  0  0  0  0  0  0  0  0
    8.6717   -1.2757  -14.2084 H   0  0  0  0  0  0  0  0  0  0  0  0
    7.1254    2.2869  -21.5592 H   0  0  0  0  0  0  0  0  0  0  0  0
    4.0865   -0.5250  -20.3456 H   0  0  0  0  0  0  0  0  0  0  0  0
    7.8368   -1.9486  -21.9170 H   0  0  0  0  0  0  0  0  0  0  0  0
    6.1189   10.4577  -19.4704 H   0  0  0  0  0  0  0  0  0  0  0  0
    6.4410    8.5100  -23.3248 H   0  0  0  0  0  0  0  0  0  0  0  0
    4.8191    8.4948  -18.0950 H   0  0  0  0  0  0  0  0  0  0  0  0
    5.7815    8.6261  -16.5840 H   0  0  0  0  0  0  0  0  0  0  0  0
    6.8017    5.3257  -19.0010 H   0  0  0  0  0  0  0  0  0  0  0  0
    5.4881    6.3535  -19.6679 H   0  0  0  0  0  0  0  0  0  0  0  0
    4.7931    6.5717  -15.7065 H   0  0  0  0  0  0  0  0  0  0  0  0
    3.4664    7.6579  -16.2422 H   0  0  0  0  0  0  0  0  0  0  0  0
    5.3879    4.6041  -17.1494 H   0  0  0  0  0  0  0  0  0  0  0  0
    9.5344    1.5285  -13.0611 H   0  0  0  0  0  0  0  0  0  0  0  0
   10.5613    0.1864  -13.6698 H   0  0  0  0  0  0  0  0  0  0  0  0
   10.6962    1.8224  -14.3991 H   0  0  0  0  0  0  0  0  0  0  0  0
    3.0799   -2.9966  -18.5738 H   0  0  0  0  0  0  0  0  0  0  0  0
    3.4180   -2.9962  -16.8097 H   0  0  0  0  0  0  0  0  0  0  0  0
    4.5102   -2.1186  -17.9338 H   0  0  0  0  0  0  0  0  0  0  0  0
   10.4602   -4.6685  -17.1030 H   0  0  0  0  0  0  0  0  0  0  0  0
   10.1288   -2.9073  -16.9827 H   0  0  0  0  0  0  0  0  0  0  0  0
    9.0956   -4.0783  -16.0951 H   0  0  0  0  0  0  0  0  0  0  0  0
    5.0598   10.6193  -23.2246 H   0  0  0  0  0  0  0  0  0  0  0  0
    4.1794   10.7224  -21.6623 H   0  0  0  0  0  0  0  0  0  0  0  0
    5.5817   11.8003  -21.9758 H   0  0  0  0  0  0  0  0  0  0  0  0
    4.3431    2.7289  -21.3932 H   0  0  0  0  0  0  0  0  0  0  0  0
    3.6794    1.7245  -20.0601 H   0  0  0  0  0  0  0  0  0  0  0  0
    4.0794   -5.1596  -17.8559 H   0  0  0  0  0  0  0  0  0  0  0  0
    5.1716   -4.2820  -18.9800 H   0  0  0  0  0  0  0  0  0  0  0  0
    9.3179   -3.8329  -19.1478 H   0  0  0  0  0  0  0  0  0  0  0  0
    8.2848   -5.0040  -18.2602 H   0  0  0  0  0  0  0  0  0  0  0  0
    5.4095   -4.4268  -15.9260 H   0  0  0  0  0  0  0  0  0  0  0  0
    6.4742   -5.2329  -17.1273 H   0  0  0  0  0  0  0  0  0  0  0  0
    8.0581   -1.9481  -18.1107 H   0  0  0  0  0  0  0  0  0  0  0  0
    6.9885   -3.0302  -19.0656 H   0  0  0  0  0  0  0  0  0  0  0  0
    3.5137    3.4970  -18.3067 H   0  0  0  0  0  0  0  0  0  0  0  0
    6.0883    3.6197  -19.9567 H   0  0  0  0  0  0  0  0  0  0  0  0
    5.1993    1.5722  -17.9489 H   0  0  0  0  0  0  0  0  0  0  0  0
    3.1560    5.4281  -16.9880 H   0  0  0  0  0  0  0  0  0  0  0  0
    3.3687    6.4270  -18.2623 H   0  0  0  0  0  0  0  0  0  0  0  0
    3.1678    4.0775  -20.5456 H   0  0  0  0  0  0  0  0  0  0  0  0
  1  9  2  0
  1 10  1  0
  2  9  1  0
  2 11  2  0
  3 10  2  0
  3 11  1  0
  4 12  2  0
  4 13  1  0
  5 12  1  0
  5 14  2  0
  6 13  2  0
  6 14  1  0
  7 15  2  0
  7 34  1  0
  8 33  2  0
  8 34  1  0
  9 16  1  0
 10 17  1  0
 11 22  1  0
 12 26  1  0
 13 44  1  0
 14 45  1  0
 15 33  1  0
 15 46  1  0
 16 36  1  0
 16 39  2  0
 17 37  1  0
 17 40  2  0
 18 20  1  0
 18 35  1  0
 19 21  1  0
 19 35  1  0
 20 38  1  0
 21 31  1  0
 21 38  1  0
 23 27  1  0
 24 28  1  0
 25 34  1  0
 26 32  1  0
 27 29  1  0
 28 30  1  0
 29 37  1  0
 30 37  1  0
 31 32  1  0
 31 43  1  0
 32 36  1  0
 35 46  1  0
 41 46  2  0
 42 46  2  0
  1 47  1  0
  2 48  1  0
  3 49  1  0
  4 50  1  0
  5 51  1  0
  6 52  1  0
  7 53  1  0
  8 54  1  0
 18 55  1  0
 18 56  1  0
 19 57  1  0
 19 58  1  0
 20 59  1  0
 20 60  1  0
 21 61  1  1
 22 62  1  0
 22 63  1  0
 22 64  1  0
 23 65  1  0
 23 66  1  0
 23 67  1  0
 24 68  1  0
 24 69  1  0
 24 70  1  0
 25 71  1  0
 25 72  1  0
 25 73  1  0
 26 74  1  0
 26 75  1  0
 27 76  1  0
 27 77  1  0
 28 78  1  0
 28 79  1  0
 29 80  1  0
 29 81  1  0
 30 82  1  0
 30 83  1  0
 31 84  1  1
 32 85  1  6
 36 86  1  0
 38 87  1  0
 38 88  1  0
 43 89  1  0
M  CHG  1  38   1
M  END
>  <OMEGA_C>  (51) 
yKPfQMkoBj0JCYfB+dcIQVuv1D+BIX/Bh+YFQZH+Dr8VUG/B31zZQOZEoj8vb6vBUyGiQGLxpb78
BKbBdRnmQP97kL/fHq3BiITMQBESHEG28qHBcCrSQMNyC0FgLbLBQPDxQGjSqT8eJYfBqwftQCsX
a782yH7Bc/sOQbD4Oj9uZG/BZUmwQPOhgD9GNqfBb2H0QJQhTT6fSK7BL9a8QF+vsb8IEanB14zk
QBPVCUEZC6HBq4fjQOzHFEBbBo/BP9zYQOozEMCEx33BDqCqQN+q/UAQcIrBJSG+QB3IvkCO9pXB
4fyJQARG4UDXn4TBaaScQFeso0Ac64/BxBMgQdy3iz+5RF/BPtl3QDZsQMB2fY7BDL0aQesLesA4
IojBjEylQG+8LEHzJrHBJSOTQAj9CEAD/6PBR0CXQJ7liMDlyo/B6LoLQQP/f8CP2ZHBdG67QOgF
i8Ata4fBr1zzQBzCPMACRJHB8c6HQEsAgkBoO5fBldCoQNYOREBEvJvBa1rnQDrU/0DvJavBAEXC
QBmUHEGBiKzBsBPNQMMO40CLWI/BAwC6QJliD0Bu9pLB3FHXQDeZSMAyvIfBQGB0QHOyv0Af3YvB
R+P7QAnYTUBt55HB9HjIQOqRJMBqsWzBR4IAQVJ7EUE0m43BRq0MQfkg30ABPJfBjpJkQFIql0Cg
05/BfO4NQdW25z48OLLBP6GuQAYtKsApL6jBKdT3QIFy/kAEpZTBq1rHQJylab400YzB7UwQQW6q
KEDOnH/BRb8KQSlJo7/KVWPBowPkQKJcEkBQeazBgMSCQKpkBr/Xw6LBNMf6QPRr+b8TVq/BUM7D
QNpSJ0F5w5vBvxzOQBApCEFBmbrB6jWaQNrqB0GUwpDBCgK5QFIECkH/q4TBUafZQN9rqkAcApjB
jp6vQP9Py0DiV53BxmCZQBtL0kDuTXvBStpdQFYN9UD074HBwmmsQBlVk0DhMYnBEI0YQYqmwz81
+lDBQvsoQX/YPj5dt1rBoyMrQcdD6T/MYmbBjhxFQIvIP8AVl5TBScBaQMfBP8AzeobBy1OQQOqX
B8BUeI/B9FwnQZ9klcD80ojBeA8iQaIQOsCM3IfBlIcRQaaBgsC/woDByemhQMToKUHry7nB9L2F
QMiOK0FZTK3BsJ2yQN7NPEGDzq/B0vqKQBqmLkBdJavBjntrQCu83D8Ge6DBE4qCQEAbpcD62I7B
un2lQFEGicAa15fBTxYVQddOdcCyLpnBa44EQcAgoMDlFJLBVRqtQF2ojcDG0H7BAC3PQAN0p8Ci
BInB9e0AQR5b+b/Q4pDB0aHfQLfuQcBMhpjB2d9gQADPX0AhdJLBctPCQIaoZ0BGp5/BymCmQDI/
yT9ol4/BoPxJQNOyrUB954fBh5hXQLOpzUAgGZLBPb1KQCV7gkBUXaTBeSXgQADOTTum24bBI3sJ
QXWj0j+u2n/BjkMGQYQzCb/Awm7BkTnZQCCpkD/fdKvBn4KhQOc72L6IoaXBTMbkQDhEo7/QyqzB
SkzdQEibCUFVmanBsUC4QHKxKEHB5KbBNfbyQCwEpT/8X4fBn1/tQDAaa7+I5X3BI4YPQRcrPz+H
mm/BKzSwQKa8ZT9AGqfBOp3zQAghMz1OM67BxqC7QG7UwL97j6jBf+XfQM+4D0HGF5/B+8fkQI/L
EEDvf4/B5rTYQJSND8CDA3zBrtuqQALL+0B8Z4rBMjK/QFWCvkDPiZbBynaKQD523kBU5ITBOtOd
QIKyokCymZDBsp0gQTWPkT9npl/Ba5R2QLxeQsB0CI7BcUQaQcrQgMC1QIfBUm+2QDSmGEGBSbnB
4aCTQK6fA0D1HKTBuX6WQGAzisCUqo7Bb4wKQXU4hMBorJDBYHS5QPkBi8C49IXBDoLyQCz/QcDd
LpDBAw2JQIXegEA13ZfBe86pQMZcQEA2HZzBQNXIQFjgIkESrp3BJBfFQLpaGUElF67BB5vNQOl9
4kB0oo/Bzcq6QMxGDUBBJ5PBRFDWQOUSSsB2nIbBezN2QKUfvkBtfYzBzqP9QDeqR0CkwpLB3avI
QDxVIcBlqWrB2HECQRoTD0G2N4zB4BELQSnq4kAMnpnB3RdoQCWtlUCNlqDBA4gNQYxYiT6SQrLB
TQytQFg+McCUXafBc0X3QDIkAEGuoJTBeJ3HQE6hjL4JhozBHB4RQVcsJ0BDd4DBOx4LQfCInb9D
dGLBb1PkQKQNCUC4razBJDaCQDy2Gb9qQaLB8vD4QBAHB8Dv9K7BCRTrQDpk90DmZK3B76+kQOOU
NkGveajBEkKaQEB1B0FEhJDBdR65QGufCEE0aITBsPLaQOOVqkCRqJjB066wQLmAy0Aw3p3B7d2Z
QHR2zkAFIXzBTHxeQOKd8UBwB4LBmcCtQAdmkkC85InBeRkZQS//zT+spFHBLGkpQRH/dD7yjFrB
X8YrQYlk7D+iJ2fBNZFFQK2FQ8AzWZTBgUlXQPjTPsCgKYbBYwOQQAsmCsAgIo/B+VEmQfdYmsBz
3ofB20IiQWPvQsCsd4fB03cRQXAvhMBCW3/BA4OjQJAPJ0HjDrvB11PSQGECGEFCpb7BmYaiQIZY
CkEXhbrBxICLQLSsJ0DHZKvBWlhsQKst1T8rc6DBfHyBQD8fpsCGmo3BH9ulQEjIi8AGk5bBJn8T
QQH/gMBQNZjBHrQCQb+2o8BFa5DBefipQNlVi8BiG3zBRLnMQK4zqMA48IbBUzYBQVw8A8C174/B
D5beQGJKRsANa5fBz39iQOawXkC3FZPB6+/DQOB0YkBKMKDBibOmQDePyj8TcY/B3BZLQDmhq0Dz
zYjBw4FaQIAIzUAPqpLBa19OQBrSgEA5FqXB

>  <OMEGA_E>  (51) 
UExUPhANQz4=

>  <OMEGA_NBR>  (51) 
     37354

$$$$
50162101
     RDKit          3D

 88 90  0  0  1  0  0  0  0  0999 V2000
    6.9509   -0.0557  -16.8174 C   0  0  0  0  0  0  0  0  0  0  0  0
    8.5393    1.5321  -15.8567 C   0  0  0  0  0  0  0  0  0  0  0  0
    8.2622   -0.6754  -14.8560 C   0  0  0  0  0  0  0  0  0  0  0  0
    6.8619    1.1886  -21.3155 C   0  0  0  0  0  0  0  0  0  0  0  0
    5.0898   -0.3778  -20.7018 C   0  0  0  0  0  0  0  0  0  0  0  0
    7.2099   -1.2097  -21.5768 C   0  0  0  0  0  0  0  0  0  0  0  0
    7.5619    1.2213  -16.8260 C   0  0  0  0  0  0  0  0  0  0  0  0
    7.3176   -1.0152  -15.8472 C   0  0  0  0  0  0  0  0  0  0  0  0
    8.8653    0.5987  -14.8538 C   0  0  0  0  0  0  0  0  0  0  0  0
    5.5642    0.9459  -20.8129 C   0  0  0  0  0  0  0  0  0  0  0  0
    7.6881    0.1103  -21.6809 C   0  0  0  0  0  0  0  0  0  0  0  0
    5.9066   -1.4513  -21.1030 C   0  0  0  0  0  0  0  0  0  0  0  0
    7.1580    2.2315  -17.8212 C   0  0  0  0  0  0  0  0  0  0  0  0
    6.6619   -2.3419  -15.8118 C   0  0  0  0  0  0  0  0  0  0  0  0
    5.3262    7.9489  -17.2780 C   0  0  0  0  0  0  0  0  0  0  0  0
    6.0031    6.0151  -18.7821 C   0  0  0  0  0  0  0  0  0  0  0  0
    4.4274    6.9837  -16.5044 C   0  0  0  0  0  0  0  0  0  0  0  0
    5.0121    5.1266  -17.9822 C   0  0  2  0  0  0  0  0  0  0  0  0
    9.9106    0.9416  -13.8158 C   0  0  0  0  0  0  0  0  0  0  0  0
    9.5791   -3.9435  -16.8082 C   0  0  0  0  0  0  0  0  0  0  0  0
    3.9325   -3.0713  -18.1327 C   0  0  0  0  0  0  0  0  0  0  0  0
    5.9940    9.7621  -22.2481 C   0  0  0  0  0  0  0  0  0  0  0  0
    4.6655    2.1008  -20.4268 C   0  0  0  0  0  0  0  0  0  0  0  0
    8.6852   -4.1057  -18.0483 C   0  0  0  0  0  0  0  0  0  0  0  0
    4.2571   -4.0485  -16.9914 C   0  0  0  0  0  0  0  0  0  0  0  0
    6.6665    8.7452  -21.3114 C   0  0  0  0  0  0  0  0  0  0  0  0
    7.5541   -3.0534  -18.0795 C   0  0  0  0  0  0  0  0  0  0  0  0
    5.7566   -4.4075  -16.9279 C   0  0  0  0  0  0  0  0  0  0  0  0
    6.8369    9.3596  -19.9084 C   0  0  0  0  0  0  0  0  0  0  0  0
    4.3380    4.0583  -18.8621 C   0  0  2  0  0  0  0  0  0  0  0  0
    5.3515    3.0347  -19.4064 C   0  0  1  0  0  0  0  0  0  0  0  0
    6.4061    7.2237  -18.0112 N   0  0  0  0  0  0  0  0  0  0  0  0
    5.8526    2.2123  -18.2941 N   0  0  0  0  0  0  0  0  0  0  0  0
    6.6274   -3.2055  -16.9299 N   0  0  0  0  0  0  0  0  0  0  0  0
    3.9296    5.9515  -17.4165 N   0  0  0  0  0  0  0  0  0  0  0  0
    7.9542    3.0876  -18.1929 O   0  0  0  0  0  0  0  0  0  0  0  0
    6.1038   -2.6677  -14.7691 O   0  0  0  0  0  0  0  0  0  0  0  0
    8.5507    7.3551  -19.4682 O   0  0  0  0  0  0  0  0  0  0  0  0
    8.1544    9.0662  -17.6341 O   0  0  0  0  0  0  0  0  0  0  0  0
    3.6499    4.6976  -19.9401 O   0  0  0  0  0  0  0  0  0  0  0  0
    8.9324    0.3433  -22.1543 F   0  0  0  0  0  0  0  0  0  0  0  0
    5.4315   -2.7142  -21.0655 F   0  0  0  0  0  0  0  0  0  0  0  0
    7.6315    8.2219  -18.7160 S   0  0  0  0  0  0  0  0  0  0  0  0
    6.2009   -0.2976  -17.5559 H   0  0  0  0  0  0  0  0  0  0  0  0
    9.0391    2.4891  -15.8841 H   0  0  0  0  0  0  0  0  0  0  0  0
    8.5246   -1.3952  -14.0947 H   0  0  0  0  0  0  0  0  0  0  0  0
    7.2199    2.2022  -21.4193 H   0  0  0  0  0  0  0  0  0  0  0  0
    4.1015   -0.5672  -20.3096 H   0  0  0  0  0  0  0  0  0  0  0  0
    7.8432   -2.0372  -21.8606 H   0  0  0  0  0  0  0  0  0  0  0  0
    4.7132    8.5046  -18.0029 H   0  0  0  0  0  0  0  0  0  0  0  0
    5.7862    8.6539  -16.5700 H   0  0  0  0  0  0  0  0  0  0  0  0
    6.9018    5.4253  -19.0155 H   0  0  0  0  0  0  0  0  0  0  0  0
    5.5204    6.3338  -19.7177 H   0  0  0  0  0  0  0  0  0  0  0  0
    5.0046    6.5122  -15.6953 H   0  0  0  0  0  0  0  0  0  0  0  0
    3.5783    7.5359  -16.0753 H   0  0  0  0  0  0  0  0  0  0  0  0
    5.5615    4.6260  -17.1713 H   0  0  0  0  0  0  0  0  0  0  0  0
    9.4240    1.3997  -12.9421 H   0  0  0  0  0  0  0  0  0  0  0  0
   10.4334    0.0249  -13.5054 H   0  0  0  0  0  0  0  0  0  0  0  0
   10.6350    1.6494  -14.2450 H   0  0  0  0  0  0  0  0  0  0  0  0
   10.3695   -4.7084  -16.8227 H   0  0  0  0  0  0  0  0  0  0  0  0
   10.0369   -2.9433  -16.8146 H   0  0  0  0  0  0  0  0  0  0  0  0
    8.9706   -4.0624  -15.8996 H   0  0  0  0  0  0  0  0  0  0  0  0
    2.8548   -2.8505  -18.1317 H   0  0  0  0  0  0  0  0  0  0  0  0
    4.4978   -2.1387  -17.9887 H   0  0  0  0  0  0  0  0  0  0  0  0
    4.2127   -3.5251  -19.0947 H   0  0  0  0  0  0  0  0  0  0  0  0
    5.8750    9.3181  -23.2474 H   0  0  0  0  0  0  0  0  0  0  0  0
    5.0060   10.0323  -21.8470 H   0  0  0  0  0  0  0  0  0  0  0  0
    6.6197   10.6640  -22.3198 H   0  0  0  0  0  0  0  0  0  0  0  0
    4.4177    2.6783  -21.3297 H   0  0  0  0  0  0  0  0  0  0  0  0
    3.7420    1.7019  -19.9818 H   0  0  0  0  0  0  0  0  0  0  0  0
    9.3035   -3.9911  -18.9508 H   0  0  0  0  0  0  0  0  0  0  0  0
    8.2372   -5.1102  -18.0358 H   0  0  0  0  0  0  0  0  0  0  0  0
    3.9646   -3.5858  -16.0373 H   0  0  0  0  0  0  0  0  0  0  0  0
    3.6796   -4.9723  -17.1433 H   0  0  0  0  0  0  0  0  0  0  0  0
    6.0401    7.8436  -21.2414 H   0  0  0  0  0  0  0  0  0  0  0  0
    7.6539    8.4753  -21.7141 H   0  0  0  0  0  0  0  0  0  0  0  0
    8.0013   -2.0490  -18.0458 H   0  0  0  0  0  0  0  0  0  0  0  0
    6.9849   -3.1702  -19.0135 H   0  0  0  0  0  0  0  0  0  0  0  0
    5.9443   -4.9780  -16.0063 H   0  0  0  0  0  0  0  0  0  0  0  0
    6.0085   -5.0276  -17.8008 H   0  0  0  0  0  0  0  0  0  0  0  0
    7.4572   10.2639  -19.9957 H   0  0  0  0  0  0  0  0  0  0  0  0
    5.8434    9.6323  -19.5229 H   0  0  0  0  0  0  0  0  0  0  0  0
    3.6123    3.5158  -18.2383 H   0  0  0  0  0  0  0  0  0  0  0  0
    6.1815    3.5651  -19.8961 H   0  0  0  0  0  0  0  0  0  0  0  0
    5.2062    1.5946  -17.8462 H   0  0  0  0  0  0  0  0  0  0  0  0
    3.3018    5.3562  -16.9149 H   0  0  0  0  0  0  0  0  0  0  0  0
    3.4398    6.3958  -18.1666 H   0  0  0  0  0  0  0  0  0  0  0  0
    3.2330    4.0401  -20.4845 H   0  0  0  0  0  0  0  0  0  0  0  0
  1  7  2  0
  1  8  1  0
  2  7  1  0
  2  9  2  0
  3  8  2  0
  3  9  1  0
  4 10  2  0
  4 11  1  0
  5 10  1  0
  5 12  2  0
  6 11  2  0
  6 12  1  0
  7 13  1  0
  8 14  1  0
  9 19  1  0
 10 23  1  0
 11 41  1  0
 12 42  1  0
 13 33  1  0
 13 36  2  0
 14 34  1  0
 14 37  2  0
 15 17  1  0
 15 32  1  0
 16 18  1  0
 16 32  1  0
 17 35  1  0
 18 30  1  0
 18 35  1  0
 20 24  1  0
 21 25  1  0
 22 26  1  0
 23 31  1  0
 24 27  1  0
 25 28  1  0
 26 29  1  0
 27 34  1  0
 28 34  1  0
 29 43  1  0
 30 31  1  0
 30 40  1  0
 31 33  1  0
 32 43  1  0
 38 43  2  0
 39 43  2  0
  1 44  1  0
  2 45  1  0
  3 46  1  0
  4 47  1  0
  5 48  1  0
  6 49  1  0
 15 50  1  0
 15 51  1  0
 16 52  1  0
 16 53  1  0
 17 54  1  0
 17 55  1  0
 18 56  1  1
 19 57  1  0
 19 58  1  0
 19 59  1  0
 20 60  1  0
 20 61  1  0
 20 62  1  0
 21 63  1  0
 21 64  1  0
 21 65  1  0
 22 66  1  0
 22 67  1  0
 22 68  1  0
 23 69  1  0
 23 70  1  0
 24 71  1  0
 24 72  1  0
 25 73  1  0
 25 74  1  0
 26 75  1  0
 26 76  1  0
 27 77  1  0
 27 78  1  0
 28 79  1  0
 28 80  1  0
 29 81  1  0
 29 82  1  0
 30 83  1  1
 31 84  1  6
 33 85  1  0
 35 86  1  0
 35 87  1  0
 40 88  1  0
M  CHG  1  35   1
M  END
>  <OMEGA_C>  (52) 
km3eQBArZL3+iYbBH6EIQfwcxD8VtX3BzDEEQYrmLL/6sW3B7pTbQHQimD8shqrBuN+iQMRywb5W
naXBobfmQCTWmr9FnazB5/rxQJ5SnD+Zm4bBpynqQIvzgb8Cjn3BRtgNQR5FGT9dqW3Bhg2yQNIj
cj/kgKbBygT2QKbq4T1ncq3BhwK9QLjEub/h0qjBlg7lQJ/QDkDHkY7BfC7VQFbhFcAP/XzB7W+q
QBJd/kBUOYrBXxnAQIB7wECtQZbBjq2NQNZ630DwCITBW2OgQF4NpECK24/By5EeQcYJcT+ADV3B
HEQZQWFifMAwd4bBjq17QM6PRMDVD5HB0s6/QLYxHEEK/LHBi0uVQL1zBkAwaqPBo/YKQaZhg8Du
YpDBVzqIQCiNgcB07ofBq1PVQC3sC0GwfarBMLvxQC1rQ8DEopDBtDW4QCYKjcBBbIfBOcjaQB7B
FUF2RJ/BuNCKQEDdgUB+5ZbBdz+rQMU4QkBWQJvB9/7MQNAo50DlFpDB1ki7QNSVDUBOWpLBnhPU
QKEmTcBocIfB8X17QFhyvkAAVYvB7oj+QK2bRUALi5HBJVLDQCO7KsBZTmzB3M8IQSJd60DlvpvB
bngCQfQOEUGwEo3BP5dpQNpSlkA7hZ/BF+sOQcfIrz4OPLHBys6tQAi2LcAkhqjBCzX0QP+MA0FH
upXBwW3GQONjmL54cozBNKAQQS9OH0BTJX7Bm2QIQcuUsr/7g2HBDwnnQDXxDECgWqvBwz+DQL0y
Eb8FeqLBtfv6QCxhAsBw4q7BltKWQNwSCEHcBZDBwSi5QIl2CkFtj4TBftvcQN+brUC2H5jBgKew
QGSuykDsvZ3BASagQEVk0EAdIHvB6QJlQAwm8UAymoDB6/exQCgIlEDXXonBuMgWQQApsz/YEk/B
PO8mQTukyzwyFljBBikqQfMe0z9s62PBbuklQYCrlsDplIbBIpcgQQxfPMBKhIbBgYcPQWj/gcDP
ZH7B1rU2QN5uNsDEDZHB8e2PQLfgCMDv6I/BwM6GQOibYcAFwpjBNAC8QAwXFUG1+rnBAjGgQGqE
IEG7xq7B3NTTQKKfKkHvjrLB712NQBhpK0A6o6rBiXxvQHPY2T/M2p/BU9sUQV1uf8BKm5fBsssD
QRCHo8BoSZDBZ7x9QF1+ZcBZTIDBBX5rQMccn8BwJYnBlUjBQOn++kBM7qnBcOz0QKyaB0F/tq3B
PAUAQXIiA8DKXZDBCITfQP/kSsCRG5jBvze+QAlMn8DyDIDB00XAQPjhoMAAaI7Bt6HuQNA4JEEe
95/BcP26QAQeGkH/LpzBhS9nQGMDYUDy55HB0M7FQA8qZEBKK5/BSpmmQIAczD/0xI7BYlFTQBBm
q0CiUYfBayVcQCCqzEBIVZHB0ehOQMRIgUA/4KPBeffeQBW/Mb1FpIbBMWYIQTZ5yD+8pX3B6UoE
QWRVJL/8qW3BDRXdQEd3mz8h9arBeHqkQA3Zsb6I4aXBTG7oQOoKmL9auqzBtAXyQJfmnj//qobB
H8bqQB+8fr83o33B8acNQWWIIz+2i23BIYOzQFt9eT8896bBZqH3QMtNCD62vK3Bece+QK6Ctr9r
2KjBKyvlQMHlD0AYqY7BOt/VQO2FFMBEw3zBpSeqQBNO/UD6xYnBvf6/QA2KwEA9JpbBrZGMQP0L
3kB/9IPBlASgQE6yo0BT/Y/BfBAeQSVNfz8Wt1zBdhJ2QGdrQ8C2co/BoikZQRUAgsCPRofBc8a+
QOEbHUGYUrHBGL+WQEg/CEDS76PBZtCVQJAKi8DB+4/BTjMKQSFUhMC5BJHBQarVQCvFDEHNHKrB
Fqu3QBuajMA6BIfBo5vxQKSpQsD6kJDBx7zZQB/dFUEdtZ7BCS2LQBXKgUCZO5fBlxisQC3pQkAa
kJvBsM/MQAeV5kB4wI/BR8q7QN1oDUC4spLBaGfUQJLpTMCeOIfBdCt6QG/lvUASjYvB9GL+QHPZ
R0CzbZHBSuDEQK9wKMDbyWvBjaUIQafq60Dda5vBqhcCQQnxEEH/k4zBVWNrQNCUlkDq45/B3NEP
QZZguj7kabHBe+SvQOkpLMCeBajB1a3zQGeNA0HpTZXBZVnHQLz4l75hnYzBZiwQQUjzIUDn/33B
14wIQfzVrb9Pc2HBXHvoQOqRDkAh4KvB5MWEQFsTCL84xqLBN7X8QOslAcA27q7B9hmXQCgZCEEp
eI/BGN64QJFoCUG324PBTMDcQGK7rUBhD5jBStewQEZ0y0DRm53BtUueQCUozkAV8nrBf21iQGSX
70DnkoDBQy+xQP5xk0AdeInB/PoVQSpquT9S2U7BD5MmQaottT00oFfBzZQpQQ+V2z+ybWPBxZlG
QGd0Q8BJ8pXB9u5UQAkgQMDnsYfBoTiQQE2hC8B2UZDB0VMlQcVUm8Al3IfBtxMhQZsjRcAcFYfB
McoPQbFshsDb0X/Bjea7QC+VFkGxdrnBRq6eQG1jIEEYGq7BbF/RQGgLLEGBjrHBxJuPQLz/LUCh
JavBwJVxQESD3T+3lqDBD1uAQMu+psDbJo/BNRymQG1/jMBqxpfBWLYTQd8LgMBDWJjB0mwCQcLm
o8AULJHBdQ/DQEOs+0Am4qnBnMD1QB1+CUGPVq3BODmnQJ3FjcCYe37B+C7LQIedqcCWB4jB2KgA
QeLQA8ApBZDB1oLeQGS/RcDX8pfBz6TsQNuwJEFzFJ/BdHS5QBp+GUGRtJvBr2JnQNANYEAVaZLB
LcvGQIGjZUCeT5/BMjSnQDLHyD8uWY/BM9ZQQCilqkBSyofBIFxcQG3TzED/kJHBFZdRQNazgUAX
YKTB

>  <OMEGA_E>  (52) 
YHRnPgDqSz4=

>  <OMEGA_NBR>  (52) 
     40414

$$$$
50162091
     RDKit          3D

 93 96  0  0  1  0  0  0  0  0999 V2000
    6.5029    8.9221  -22.2452 C   0  0  0  0  0  0  0  0  0  0  0  0
    5.7769   10.6921  -20.7232 C   0  0  0  0  0  0  0  0  0  0  0  0
    7.1648    8.2826  -21.1872 C   0  0  0  0  0  0  0  0  0  0  0  0
    6.4427   10.0549  -19.6694 C   0  0  0  0  0  0  0  0  0  0  0  0
    7.0614    0.0987  -16.8315 C   0  0  0  0  0  0  0  0  0  0  0  0
    8.6231    1.7848  -16.0097 C   0  0  0  0  0  0  0  0  0  0  0  0
    8.5248   -0.4034  -14.9411 C   0  0  0  0  0  0  0  0  0  0  0  0
    6.7129    1.1847  -21.4480 C   0  0  0  0  0  0  0  0  0  0  0  0
    4.9979   -0.3793  -20.6827 C   0  0  0  0  0  0  0  0  0  0  0  0
    7.0855   -1.2185  -21.6228 C   0  0  0  0  0  0  0  0  0  0  0  0
    7.6046    1.4017  -16.9106 C   0  0  0  0  0  0  0  0  0  0  0  0
    7.5387   -0.8095  -15.8591 C   0  0  0  0  0  0  0  0  0  0  0  0
    9.0606    0.8958  -15.0088 C   0  0  0  0  0  0  0  0  0  0  0  0
    5.4441    0.9436  -20.8769 C   0  0  0  0  0  0  0  0  0  0  0  0
    5.7940   10.1330  -22.0139 C   0  0  0  0  0  0  0  0  0  0  0  0
    7.5371    0.1033  -21.8080 C   0  0  0  0  0  0  0  0  0  0  0  0
    5.8134   -1.4584  -21.0667 C   0  0  0  0  0  0  0  0  0  0  0  0
    7.1347    8.8507  -19.8997 C   0  0  0  0  0  0  0  0  0  0  0  0
    7.1176    2.3581  -17.9231 C   0  0  0  0  0  0  0  0  0  0  0  0
    6.9489   -2.1509  -15.7435 C   0  0  0  0  0  0  0  0  0  0  0  0
    5.3542    7.9076  -17.2924 C   0  0  0  0  0  0  0  0  0  0  0  0
    5.9469    5.9854  -18.8000 C   0  0  0  0  0  0  0  0  0  0  0  0
    4.2988    7.0270  -16.6205 C   0  0  0  0  0  0  0  0  0  0  0  0
    4.8905    5.1340  -18.0645 C   0  0  2  0  0  0  0  0  0  0  0  0
   10.1487    1.3148  -14.0471 C   0  0  0  0  0  0  0  0  0  0  0  0
    3.3282   -3.9368  -17.7816 C   0  0  0  0  0  0  0  0  0  0  0  0
    9.8002   -3.9604  -16.9228 C   0  0  0  0  0  0  0  0  0  0  0  0
    4.9123   10.1217  -24.2521 C   0  0  0  0  0  0  0  0  0  0  0  0
    4.5501    2.0964  -20.4875 C   0  0  0  0  0  0  0  0  0  0  0  0
    4.5327   -3.0548  -17.4823 C   0  0  0  0  0  0  0  0  0  0  0  0
    8.7589   -4.0934  -18.0445 C   0  0  0  0  0  0  0  0  0  0  0  0
    5.7054   -3.9079  -16.9740 C   0  0  0  0  0  0  0  0  0  0  0  0
    7.7684   -2.9153  -18.0154 C   0  0  0  0  0  0  0  0  0  0  0  0
    4.2387    4.0813  -18.9743 C   0  0  2  0  0  0  0  0  0  0  0  0
    5.2564    3.0513  -19.5033 C   0  0  1  0  0  0  0  0  0  0  0  0
    6.4280    7.0733  -17.9130 N   0  0  0  0  0  0  0  0  0  0  0  0
    5.8075    2.2611  -18.3837 N   0  0  0  0  0  0  0  0  0  0  0  0
    6.8619   -3.0159  -16.8475 N   0  0  0  0  0  0  0  0  0  0  0  0
    3.8136    6.0134  -17.5676 N   0  0  0  0  0  0  0  0  0  0  0  0
    7.8693    3.2326  -18.3397 O   0  0  0  0  0  0  0  0  0  0  0  0
    6.3710   -2.4263  -14.6970 O   0  0  0  0  0  0  0  0  0  0  0  0
    8.1765    8.9204  -17.4799 O   0  0  0  0  0  0  0  0  0  0  0  0
    8.7659    6.9704  -19.0149 O   0  0  0  0  0  0  0  0  0  0  0  0
    3.5940    4.7377  -20.0684 O   0  0  0  0  0  0  0  0  0  0  0  0
    5.0919   10.8071  -22.9955 O   0  0  0  0  0  0  0  0  0  0  0  0
    8.7583    0.3342  -22.3398 F   0  0  0  0  0  0  0  0  0  0  0  0
    5.3726   -2.7260  -20.9077 F   0  0  0  0  0  0  0  0  0  0  0  0
    7.7869    7.9412  -18.5037 S   0  0  0  0  0  0  0  0  0  0  0  0
    6.5315    8.4946  -23.2366 H   0  0  0  0  0  0  0  0  0  0  0  0
    5.2480   11.6167  -20.5445 H   0  0  0  0  0  0  0  0  0  0  0  0
    7.6956    7.3580  -21.3596 H   0  0  0  0  0  0  0  0  0  0  0  0
    6.4255   10.4871  -18.6798 H   0  0  0  0  0  0  0  0  0  0  0  0
    6.2812   -0.2029  -17.5147 H   0  0  0  0  0  0  0  0  0  0  0  0
    9.0689    2.7653  -16.0890 H   0  0  0  0  0  0  0  0  0  0  0  0
    8.8711   -1.0904  -14.1831 H   0  0  0  0  0  0  0  0  0  0  0  0
    7.0500    2.1982  -21.6082 H   0  0  0  0  0  0  0  0  0  0  0  0
    4.0305   -0.5638  -20.2394 H   0  0  0  0  0  0  0  0  0  0  0  0
    7.7151   -2.0486  -21.9075 H   0  0  0  0  0  0  0  0  0  0  0  0
    4.8729    8.5144  -18.0735 H   0  0  0  0  0  0  0  0  0  0  0  0
    5.8037    8.5703  -16.5382 H   0  0  0  0  0  0  0  0  0  0  0  0
    6.7953    5.3463  -19.0859 H   0  0  0  0  0  0  0  0  0  0  0  0
    5.4972    6.4235  -19.7032 H   0  0  0  0  0  0  0  0  0  0  0  0
    4.7436    6.5268  -15.7476 H   0  0  0  0  0  0  0  0  0  0  0  0
    3.4557    7.6536  -16.2939 H   0  0  0  0  0  0  0  0  0  0  0  0
    5.3730    4.6237  -17.2178 H   0  0  0  0  0  0  0  0  0  0  0  0
    9.6946    1.7705  -13.1548 H   0  0  0  0  0  0  0  0  0  0  0  0
   10.7351    0.4328  -13.7501 H   0  0  0  0  0  0  0  0  0  0  0  0
   10.8088    2.0462  -14.5365 H   0  0  0  0  0  0  0  0  0  0  0  0
    2.4976   -3.3133  -18.1441 H   0  0  0  0  0  0  0  0  0  0  0  0
    3.5964   -4.6743  -18.5523 H   0  0  0  0  0  0  0  0  0  0  0  0
    3.0204   -4.4603  -16.8644 H   0  0  0  0  0  0  0  0  0  0  0  0
   10.4953   -4.8120  -16.9641 H   0  0  0  0  0  0  0  0  0  0  0  0
   10.3610   -3.0230  -17.0525 H   0  0  0  0  0  0  0  0  0  0  0  0
    9.2901   -3.9506  -15.9483 H   0  0  0  0  0  0  0  0  0  0  0  0
    4.3419   10.7619  -24.9413 H   0  0  0  0  0  0  0  0  0  0  0  0
    5.8956    9.8961  -24.6905 H   0  0  0  0  0  0  0  0  0  0  0  0
    4.3624    9.1841  -24.0829 H   0  0  0  0  0  0  0  0  0  0  0  0
    4.2741    2.6565  -21.3931 H   0  0  0  0  0  0  0  0  0  0  0  0
    3.6418    1.6993  -20.0109 H   0  0  0  0  0  0  0  0  0  0  0  0
    4.8362   -2.5313  -18.4009 H   0  0  0  0  0  0  0  0  0  0  0  0
    4.2602   -2.3173  -16.7130 H   0  0  0  0  0  0  0  0  0  0  0  0
    9.2751   -4.1063  -19.0158 H   0  0  0  0  0  0  0  0  0  0  0  0
    8.2042   -5.0340  -17.9116 H   0  0  0  0  0  0  0  0  0  0  0  0
    5.4576   -4.3460  -15.9959 H   0  0  0  0  0  0  0  0  0  0  0  0
    5.9257   -4.7125  -17.6910 H   0  0  0  0  0  0  0  0  0  0  0  0
    8.3317   -1.9725  -17.9541 H   0  0  0  0  0  0  0  0  0  0  0  0
    7.1696   -2.9253  -18.9381 H   0  0  0  0  0  0  0  0  0  0  0  0
    3.4874    3.5395  -18.3810 H   0  0  0  0  0  0  0  0  0  0  0  0
    6.0662    3.5788  -20.0286 H   0  0  0  0  0  0  0  0  0  0  0  0
    5.1988    1.6131  -17.9259 H   0  0  0  0  0  0  0  0  0  0  0  0
    3.1269    5.4498  -17.1086 H   0  0  0  0  0  0  0  0  0  0  0  0
    3.3956    6.4790  -18.3476 H   0  0  0  0  0  0  0  0  0  0  0  0
    3.1897    4.0897  -20.6333 H   0  0  0  0  0  0  0  0  0  0  0  0
  1  3  2  0
  1 15  1  0
  2  4  1  0
  2 15  2  0
  3 18  1  0
  4 18  2  0
  5 11  2  0
  5 12  1  0
  6 11  1  0
  6 13  2  0
  7 12  2  0
  7 13  1  0
  8 14  2  0
  8 16  1  0
  9 14  1  0
  9 17  2  0
 10 16  2  0
 10 17  1  0
 11 19  1  0
 12 20  1  0
 13 25  1  0
 14 29  1  0
 15 45  1  0
 16 46  1  0
 17 47  1  0
 18 48  1  0
 19 37  1  0
 19 40  2  0
 20 38  1  0
 20 41  2  0
 21 23  1  0
 21 36  1  0
 22 24  1  0
 22 36  1  0
 23 39  1  0
 24 34  1  0
 24 39  1  0
 26 30  1  0
 27 31  1  0
 28 45  1  0
 29 35  1  0
 30 32  1  0
 31 33  1  0
 32 38  1  0
 33 38  1  0
 34 35  1  0
 34 44  1  0
 35 37  1  0
 36 48  1  0
 42 48  2  0
 43 48  2  0
  1 49  1  0
  2 50  1  0
  3 51  1  0
  4 52  1  0
  5 53  1  0
  6 54  1  0
  7 55  1  0
  8 56  1  0
  9 57  1  0
 10 58  1  0
 21 59  1  0
 21 60  1  0
 22 61  1  0
 22 62  1  0
 23 63  1  0
 23 64  1  0
 24 65  1  1
 25 66  1  0
 25 67  1  0
 25 68  1  0
 26 69  1  0
 26 70  1  0
 26 71  1  0
 27 72  1  0
 27 73  1  0
 27 74  1  0
 28 75  1  0
 28 76  1  0
 28 77  1  0
 29 78  1  0
 29 79  1  0
 30 80  1  0
 30 81  1  0
 31 82  1  0
 31 83  1  0
 32 84  1  0
 32 85  1  0
 33 86  1  0
 33 87  1  0
 34 88  1  1
 35 89  1  6
 37 90  1  0
 39 91  1  0
 39 92  1  0
 44 93  1  0
M  CHG  1  39   1
M  END
>  <OMEGA_C>  (53) 
rRfQQNrADkE09rHBTty4QP4SK0ETyaXB8EXlQJWFBEF7f6nBqSrOQPTgIEHYWp3BQ/fhQPA7yj31
pobBIfgJQe505D/zE4DBxWUIQciNzr67Dm/BctDWQGmklz+alavBfO6fQJwtwr4udqXBQbziQG73
m7+X+6zBrFjzQDZssz/gSIfBND3xQOg5T7+2vn3BFfgQQSdQZT88JHDBGzauQOeRcT/sA6fBL2i5
QKIgIkGFHLDBHzDxQAiS0z3Pdq7BYQe6QHSrur+wiKjBEU/kQI6cDUGSMp/BxsPjQFrqFkCRYo/B
Ul3eQB2oCcBb5XvB/VWrQAoL/UDVVorBu0y+QBiIv0BcZpbBdI+JQHLd4EC+9oTBYX+cQIRJpEAi
hJDBHmEiQdRMqD+9wGDBegFVQNXze8CiQI7Bzs0cQbl2fcDSYYfBNzGdQHzyIUFiBMLBsJqRQK8r
BkB/5qPB9AuRQN6BQ8DY24vBiSQMQUL9gsAiW5DBqZK2QDsaesDEyofB5Jb4QMaUOsCSH5DBeKOH
QKmZgkBSy5fBDzSoQNFHQ0DPBpzBx7HNQOJY4kDMTY/BB9e5QC+1EEDOEZPB45TbQLQDQcCdx4bB
yRJ0QChuwEBhiozBqNH7QDzjTkCnt5LB897LQOlHG8C2JmvBy9ICQdW5DkHS1ovBMEEMQboN30CJ
HpjB8wNmQF+bl0AdjKDBQfGiQMzpLEHb9rfBBCIMQTMcqz74t7LBi+yrQBh3LsD3QqfBqi75QBAe
/kCVB5TBQALRQOLpB0GO5LnB6e+nQPDdOUEoW6TB9EH2QGB060Bt4KrB7J3NQDPLJ0EicJXB7P/I
QDzPT74JHozBURoRQZz6MEBOtoDBOvANQSSRi7/n7WLB+pnhQMGuDECp3azB2vmAQH5VEL846qHB
tuH2QJUbA8CKQq/Bte6bQA07CEF1lpDBsre5QM0fCUEiToTBFHPZQK8Uq0Dar5jBFOmvQLeNzUAk
oJ3BVMuXQLDb0EAk9nvBuSpdQJTq9EDbWYLBce+rQD31k0AivonBGR0bQdyf4j/2eVLB4cIrQdaZ
3T5RAFzBvvAsQSD0AkBNlWjB1NgfQC0NVMAEJ5HBkStmQOeTlcAva5TBTE5BQMC6jsBR6obBv+wn
QYX7mcB0tofBkMYlQQp4QcB2a4jBDaQUQeDWfMAuLH/B6/CKQJAwLEG5h8fBs6i8QGFWHkEghsXB
2JiLQDXyEkHYqcDBDsWIQPMDKkAmJavBSxNpQLKC2T87FqDBi8KaQAYBIsAiNZPB6FOIQLhOFMBE
tIXBAWcUQdpmg8BFIJjBfkQDQUUWocDmSo/BhqSuQBgSi8BN73/Bm5+9QKDMlsAZh43B004FQVN7
/L/5oY/BXG3lQHI4O8AygZfBODFfQGSGYkBTDJPBEB7CQPEKZUCPOqDBilymQLB4zj89aI/B5B5I
QNlkrkBd3ojBZFFZQMlTz0D3x5LBXCNMQNregkD/EKXB

>  <OMEGA_E>  (53) 
IJN2Pg==

>  <OMEGA_NBR>  (53) 
     42250

$$$$
50162134
     RDKit          3D

 88 91  0  0  1  0  0  0  0  0999 V2000
    5.6364   10.5817  -21.1766 C   0  0  0  0  0  0  0  0  0  0  0  0
    6.2050   10.0370  -20.0149 C   0  0  0  0  0  0  0  0  0  0  0  0
    6.9755   -0.0164  -16.8313 C   0  0  0  0  0  0  0  0  0  0  0  0
    8.5502    1.5888  -15.8736 C   0  0  0  0  0  0  0  0  0  0  0  0
    8.3221   -0.6304  -14.8923 C   0  0  0  0  0  0  0  0  0  0  0  0
    6.8663    1.2198  -21.3557 C   0  0  0  0  0  0  0  0  0  0  0  0
    5.0973   -0.3454  -20.7302 C   0  0  0  0  0  0  0  0  0  0  0  0
    7.2144   -1.1807  -21.6065 C   0  0  0  0  0  0  0  0  0  0  0  0
    5.8338    9.9296  -22.4118 C   0  0  0  0  0  0  0  0  0  0  0  0
    7.1078    8.2450  -21.3887 C   0  0  0  0  0  0  0  0  0  0  0  0
    7.5669    1.2697  -16.8347 C   0  0  0  0  0  0  0  0  0  0  0  0
    7.3661   -0.9749  -15.8702 C   0  0  0  0  0  0  0  0  0  0  0  0
    8.9305    0.6395  -14.9063 C   0  0  0  0  0  0  0  0  0  0  0  0
    5.5701    0.9765  -20.8506 C   0  0  0  0  0  0  0  0  0  0  0  0
    7.6896    0.1409  -21.7254 C   0  0  0  0  0  0  0  0  0  0  0  0
    5.9153   -1.4214  -21.1156 C   0  0  0  0  0  0  0  0  0  0  0  0
    6.9586    8.8539  -20.1215 C   0  0  0  0  0  0  0  0  0  0  0  0
    7.1479    2.2761  -17.8247 C   0  0  0  0  0  0  0  0  0  0  0  0
    6.7173   -2.3024  -15.8145 C   0  0  0  0  0  0  0  0  0  0  0  0
    5.3162    7.9333  -17.2828 C   0  0  0  0  0  0  0  0  0  0  0  0
    5.9971    5.9753  -18.7258 C   0  0  0  0  0  0  0  0  0  0  0  0
    4.3522    7.0058  -16.5381 C   0  0  0  0  0  0  0  0  0  0  0  0
    4.9614    5.1110  -17.9671 C   0  0  2  0  0  0  0  0  0  0  0  0
    9.9352    1.0098  -13.8386 C   0  0  0  0  0  0  0  0  0  0  0  0
    3.8440   -3.0466  -17.9260 C   0  0  0  0  0  0  0  0  0  0  0  0
    9.5689   -4.0504  -16.9910 C   0  0  0  0  0  0  0  0  0  0  0  0
    4.6704    2.1265  -20.4628 C   0  0  0  0  0  0  0  0  0  0  0  0
    4.6894   -4.3325  -17.9988 C   0  0  0  0  0  0  0  0  0  0  0  0
    8.6224   -4.0956  -18.2016 C   0  0  0  0  0  0  0  0  0  0  0  0
    5.7595   -4.3708  -16.8894 C   0  0  0  0  0  0  0  0  0  0  0  0
    7.5384   -3.0009  -18.1116 C   0  0  0  0  0  0  0  0  0  0  0  0
    4.3131    4.0558  -18.8798 C   0  0  2  0  0  0  0  0  0  0  0  0
    5.3432    3.0494  -19.4263 C   0  0  1  0  0  0  0  0  0  0  0  0
    6.5556    8.7855  -22.5017 N   0  0  0  0  0  0  0  0  0  0  0  0
    6.4144    7.1568  -17.9312 N   0  0  0  0  0  0  0  0  0  0  0  0
    5.8502    2.2260  -18.3176 N   0  0  0  0  0  0  0  0  0  0  0  0
    6.6487   -3.1725  -16.9271 N   0  0  0  0  0  0  0  0  0  0  0  0
    3.8723    5.9612  -17.4496 N   0  0  0  0  0  0  0  0  0  0  0  0
    7.9370    3.1388  -18.1961 O   0  0  0  0  0  0  0  0  0  0  0  0
    6.2227   -2.6318  -14.7417 O   0  0  0  0  0  0  0  0  0  0  0  0
    7.9983    9.1750  -17.6972 O   0  0  0  0  0  0  0  0  0  0  0  0
    8.7262    7.1621  -19.0756 O   0  0  0  0  0  0  0  0  0  0  0  0
    3.6472    4.7113  -19.9619 O   0  0  0  0  0  0  0  0  0  0  0  0
    8.9292    0.3756  -22.2112 F   0  0  0  0  0  0  0  0  0  0  0  0
    5.4462   -2.6852  -21.0267 F   0  0  0  0  0  0  0  0  0  0  0  0
    7.6755    8.0920  -18.6363 S   0  0  0  0  0  0  0  0  0  0  0  0
    5.0543   11.4899  -21.1254 H   0  0  0  0  0  0  0  0  0  0  0  0
    6.0667   10.5170  -19.0574 H   0  0  0  0  0  0  0  0  0  0  0  0
    6.2236   -0.2653  -17.5655 H   0  0  0  0  0  0  0  0  0  0  0  0
    9.0124    2.5648  -15.8803 H   0  0  0  0  0  0  0  0  0  0  0  0
    8.5894   -1.3451  -14.1279 H   0  0  0  0  0  0  0  0  0  0  0  0
    7.2251    2.2333  -21.4579 H   0  0  0  0  0  0  0  0  0  0  0  0
    4.1069   -0.5318  -20.3419 H   0  0  0  0  0  0  0  0  0  0  0  0
    7.8459   -2.0092  -21.8915 H   0  0  0  0  0  0  0  0  0  0  0  0
    5.4000   10.3514  -23.3064 H   0  0  0  0  0  0  0  0  0  0  0  0
    7.6743    7.3292  -21.4713 H   0  0  0  0  0  0  0  0  0  0  0  0
    4.7602    8.4837  -18.0560 H   0  0  0  0  0  0  0  0  0  0  0  0
    5.7534    8.6460  -16.5681 H   0  0  0  0  0  0  0  0  0  0  0  0
    6.8833    5.3609  -18.9430 H   0  0  0  0  0  0  0  0  0  0  0  0
    5.5501    6.3206  -19.6697 H   0  0  0  0  0  0  0  0  0  0  0  0
    4.8746    6.5397  -15.6896 H   0  0  0  0  0  0  0  0  0  0  0  0
    3.4967    7.5888  -16.1665 H   0  0  0  0  0  0  0  0  0  0  0  0
    5.4659    4.6015  -17.1329 H   0  0  0  0  0  0  0  0  0  0  0  0
    9.4103    1.4456  -12.9757 H   0  0  0  0  0  0  0  0  0  0  0  0
   10.4799    0.1089  -13.5196 H   0  0  0  0  0  0  0  0  0  0  0  0
   10.6469    1.7442  -14.2439 H   0  0  0  0  0  0  0  0  0  0  0  0
    3.0936   -3.0545  -18.7302 H   0  0  0  0  0  0  0  0  0  0  0  0
    3.3363   -2.9964  -16.9514 H   0  0  0  0  0  0  0  0  0  0  0  0
    4.4986   -2.1705  -18.0440 H   0  0  0  0  0  0  0  0  0  0  0  0
   10.3267   -4.8418  -17.0876 H   0  0  0  0  0  0  0  0  0  0  0  0
   10.0660   -3.0699  -16.9507 H   0  0  0  0  0  0  0  0  0  0  0  0
    8.9912   -4.2068  -16.0681 H   0  0  0  0  0  0  0  0  0  0  0  0
    4.4332    2.7133  -21.3625 H   0  0  0  0  0  0  0  0  0  0  0  0
    3.7416    1.7237  -20.0325 H   0  0  0  0  0  0  0  0  0  0  0  0
    4.0262   -5.2028  -17.8855 H   0  0  0  0  0  0  0  0  0  0  0  0
    5.1884   -4.3768  -18.9781 H   0  0  0  0  0  0  0  0  0  0  0  0
    9.2088   -3.9436  -19.1199 H   0  0  0  0  0  0  0  0  0  0  0  0
    8.1340   -5.0805  -18.2372 H   0  0  0  0  0  0  0  0  0  0  0  0
    5.2563   -4.4087  -15.9119 H   0  0  0  0  0  0  0  0  0  0  0  0
    6.3745   -5.2733  -17.0204 H   0  0  0  0  0  0  0  0  0  0  0  0
    8.0323   -2.0204  -18.0424 H   0  0  0  0  0  0  0  0  0  0  0  0
    6.9233   -3.0381  -19.0228 H   0  0  0  0  0  0  0  0  0  0  0  0
    3.5772    3.4971  -18.2829 H   0  0  0  0  0  0  0  0  0  0  0  0
    6.1688    3.5957  -19.9057 H   0  0  0  0  0  0  0  0  0  0  0  0
    5.2151    1.5842  -17.8879 H   0  0  0  0  0  0  0  0  0  0  0  0
    3.2211    5.3827  -16.9584 H   0  0  0  0  0  0  0  0  0  0  0  0
    3.4128    6.3980  -18.2229 H   0  0  0  0  0  0  0  0  0  0  0  0
    3.2458    4.0619  -20.5273 H   0  0  0  0  0  0  0  0  0  0  0  0
  1  2  2  0
  1  9  1  0
  2 17  1  0
  3 11  2  0
  3 12  1  0
  4 11  1  0
  4 13  2  0
  5 12  2  0
  5 13  1  0
  6 14  2  0
  6 15  1  0
  7 14  1  0
  7 16  2  0
  8 15  2  0
  8 16  1  0
  9 34  2  0
 10 17  2  0
 10 34  1  0
 11 18  1  0
 12 19  1  0
 13 24  1  0
 14 27  1  0
 15 44  1  0
 16 45  1  0
 17 46  1  0
 18 36  1  0
 18 39  2  0
 19 37  1  0
 19 40  2  0
 20 22  1  0
 20 35  1  0
 21 23  1  0
 21 35  1  0
 22 38  1  0
 23 32  1  0
 23 38  1  0
 25 28  1  0
 26 29  1  0
 27 33  1  0
 28 30  1  0
 29 31  1  0
 30 37  1  0
 31 37  1  0
 32 33  1  0
 32 43  1  0
 33 36  1  0
 35 46  1  0
 41 46  2  0
 42 46  2  0
  1 47  1  0
  2 48  1  0
  3 49  1  0
  4 50  1  0
  5 51  1  0
  6 52  1  0
  7 53  1  0
  8 54  1  0
  9 55  1  0
 10 56  1  0
 20 57  1  0
 20 58  1  0
 21 59  1  0
 21 60  1  0
 22 61  1  0
 22 62  1  0
 23 63  1  1
 24 64  1  0
 24 65  1  0
 24 66  1  0
 25 67  1  0
 25 68  1  0
 25 69  1  0
 26 70  1  0
 26 71  1  0
 26 72  1  0
 27 73  1  0
 27 74  1  0
 28 75  1  0
 28 76  1  0
 29 77  1  0
 29 78  1  0
 30 79  1  0
 30 80  1  0
 31 81  1  0
 31 82  1  0
 32 83  1  1
 33 84  1  6
 36 85  1  0
 38 86  1  0
 38 87  1  0
 43 88  1  0
M  CHG  1  38   1
M  END
>  <OMEGA_C>  (54) 
e120QLlOKUGYaanBUY/GQKuXIEGZHqDBNzffQFcehrxrpobBbM0IQaBcyz8R+n3BeycFQeJkIb/G
Rm7BrbjbQKginD9h2KrBaR2jQPfdsL5016XBP9zmQF0hl78R2qzBtq66QInfHkFqS7PBD3PjQKnr
A0EFHKvB3CPyQLiFoj+BrYbBM7frQB6Veb9G7H3BJ+MOQXC0Iz9DgG7B2z2yQIX9eT8TzqbBbRH2
QN5CED6tza3B2km9QPnutb/Y7KjBjazeQHmpDUHs+KDByLvkQNyrEUAQmY7B4PPWQPVZE8BHCH3B
Yx6qQDDd/UAyQ4rBgOi/QMI1v0B0zpXBnEWLQCIv4EAQToTBFMSeQEONo0C0vI/Bw/YeQXRAgT/m
al3BFAR2QED7QsBcaI/BRBoZQbycgcCI7YfBi3OVQHgYCEDcs6PBMw+WQOSjisCL/Y/BivUJQcIO
g8DynJHBCE64QE/di8BkHYfBdDrxQBgOQMCS5JDBSQWKQA3JgUDACZfBNvuqQCYqQ0AFaZvBYsfR
QFKRDEGLA7TBGEPNQD8E5UAbc4/BHzW7QCB3DkBbipLBNcLUQJQJS8CvaofBptN3QMbBvkDLmIvB
sfv9QJrhSECzkZHBFSDHQB1vKMDx3WvBV/L/QKLMEkHXk43Bjp4LQf4v5UDJmpjB32tpQO/ClkD+
sZ/BHd4OQe5RwD6bsLHBf0euQNDaK8C9NqjBTp31QLZ4AUEwF5XBa7yhQNLWN0HnAKnBZCLCQJVF
KEGGdZjBjSfHQPPah74NhozBszIQQScmJECyFX7BD24JQQMrrL/JC2LBHDTnQKvuDkC4qavBEWyD
QKciCL8uvKLBUhH7QJqWAMDSIa/BEs2sQGCfJUGFc7rBjpP1QBmJ6kBAxavBZFOYQDq9B0G2cpDB
8hu4QDdWCkGGi4TBBETcQDyMq0A0i5fBJZqxQAlCykCMW53BtfybQPdE0UDDCHvBbspfQMLX8kD7
VIHBkOiuQLk/k0ApEInBuZAWQd8HuT+GnE/BoK0nQUUG3z0uUFjBiFkqQdJB3z/b5mPBwfxFQB98
Q8Bm15XBuoZVQLPEP8B1nIfBRfSPQLLoCsAVWpDBUjolQR/wmsB2s4jBLQ4hQXZ5RMAEm4fBAtwP
QTOehsBhi4DB7NyNQGemLUBu5qrB7XZvQHWh3D93QqDBf9aAQB19psB6FY/BaAemQBwPjMAb05fB
HVcTQWRkfMB79ZjB8yQCQaqTosDX5ZHBiDOoQOITjcBWl37B6vvLQCy/qMDAKYjBZ4QAQcpOAcDc
VpDBtYvdQItvQsC3LpjBiPBkQEfQX0ByQ5LB/2bFQFcgZkDvPp/ByuGmQMLGyj9oGo/BViZOQAk/
rEC7qofBpmpaQJ28zEB8yJHBobtPQNH6gUDbN6TB5aLNQD+dEEHtcbPBlcLhQFkSBkFI5qrBiw7f
QCAvKjyZdIbB7cEIQapj0T9VQH7Bl2EFQfJJEb+d5m3BwHfaQE4zmD+xXqvB5IWiQDKpv74v4aXB
XF7mQEhWm7/HzqzBp/y1QNZpI0EubLHBGJDFQMyUIUEmFp/Bo+LxQKACpj/Vu4bB+uLrQK7Tbb+S
TX3B06YOQSI+Nz/IO27BlCyxQMXAcj8RNqfBOTL1QN8k3j0HC67Bx++8QDL3ub+QyKjBhu7dQCzD
DkGRjqDB90fkQGcLEkCu147BezHXQEtSEMD1BnzBWlOrQDFM/EAuBYrB+OK/QNMuv0AyOpbBhICM
QBcJ3kBFPITBNWqfQKy2okB/JZDBr6MfQcWWij/4BF7BLh8ZQbDUg8ACmYfBo/93QCSlQsA1R4/B
3JiUQEadBkCuHqTBoK8JQRnWg8C0LJHBNmWXQNVLisDOiY/BKBTyQF0WP8ALPpDBM6i4QKPGisDU
bIbBJDCKQARCgUA6dZfBprmqQEt+QUAo5JvB0S6yQLmEK0GzaKfBbfnNQMkN5EDOlo/B3zC7QEBq
DEBfDZPBZWzVQLtWScDXx4bBIot5QIBuvUAet4vBJev8QCm7SkCQsZHBv5LGQNyEI8D96GrBJLUA
QcT3EUFFT43BCIILQeOD5UCjOZnB8o9pQIWwlkDpB6DBNIQOQTQKrz630rHBTW2uQLH+LcAKvKfB
XP71QJ9jAUEDJJXBvjrQQMlmCkEue7vBYdHzQB8q70AuPKzB58nGQNsagr5HO4zB2lwQQZ+0JkBL
537Bph4KQUqmo7+HyWHBeITlQOv3DEA8f6zBvguDQG0YD7/7oaLBkML6QDrKAsAE8q7B44+mQCWI
K0HFALjBMVHCQAkxKEEhJZfBylWZQOWDB0G59Y/B3Ny5QAcICUHPIoTBPAHcQCXJq0DWWZjBSLiw
QDxXy0BZkJ3BA1adQMFRzkAYKXvBNo1iQBl28EAiF4HBgDKwQB8WkkBxn4nBQQgYQai4xD/X6E/B
114oQUtYNT4+KlnBv98qQaWE5j8OMmXB9L4kQVUCnsAHgojBuaghQU0nSsDZRYfBAQEQQbBkiMBY
KIDBCGhJQMcuRMBU35XBTMlVQM7aPsAOmofBlNeQQLxdCsASLJDBoeqMQLUKLEBUUqvBDsxtQLSn
2j/9m6DB8+4SQeLXfsCMlJjBOkcBQfu8osALd5HBvEiCQDRBpsAXr47BqjuoQKsCjMAcQZfBGo8B
QZC/AcAViI/BQVTeQG+sPsDLhpfBZbGnQOALi8D4bX3BlzvMQHLjp8AbJYfBzCtlQDEXX0AeqZLB
wh/FQIn2Y0Aezp/Bc1ynQP1pwj+n2Y/BkztQQHl8qkDk2ofB1o1bQM8ZzEC2wZHBDz1PQGApgkCz
kaTBylHOQJl+EEHtprPBeR3iQEL0BUFtDqvBZojfQIAnBr1/wobBK74IQeWvyj9NJ37Bk+YEQZnU
H79iGW7B9SzcQKlFmT8ow6rBvZejQIRtvb4uyaXBnIHnQN/4mb/7tqzBqs22QHJdI0G7srHBQubF
QF6dIUHMVZ/B6mLyQOOMoD+Q04bBvaLrQG/9er9k4n3BCp0OQXhkJT+Na27BdZyyQLjvcz/JxabB
36f2QG5T9D34qq3Bu+W9QJn2uL9R0ajBPBDeQBy1DkHzuqDBYOnkQBCLEEDpwY7BaLbWQCWAE8Dt
0nzB7fCqQNVG/UANK4rBX9a/QKsrv0DkC5bBic+LQIB130BbVoTB2OKeQGZfo0Dj8Y/ByVIeQTFP
hD8KGl3BZ4J2QJKQQ8DOLo/BXkgZQW/zgcB2q4fBx5yVQIqKBkDwvqPBphWWQDYUi8CXvY/B9xYK
Qa7zg8DyU5HBJGG4QFRfjMB24IbBC3rxQP3aQcCdsJDBVAmKQJpygUCZL5fBmPyqQI0oQkCZfpvB
ltqyQIKNK0GTtKfBVqrNQBOg5EB9mY/Bcjq7QEjLDUAcmJLBJ/LUQGM+TMABN4fB5mN4QHucvkBP
wovBav79QJMuSEB4sZHB0g7GQLYfJ8C2vmvB8ckAQRUTEkHhe43BUlELQVgm5UB9RJnBCZFpQGA2
lkBi4Z/BHzYPQYTYtT4SfbHByf+uQFhsLcA8EKjBEt71QNhqAUGPPpXBIhDRQKQ5CkGRrLvBaBf0
QJrX7kBTV6zBA9bHQJn4lL4zs4zBwioQQcvAI0DbXX7B6QYJQdFFqr98sGHBep3nQJ2HDUDUlKvB
FOCDQMHFDr9Us6LB5Mj7QFf3AcCZ+K7Bc5qnQHh4K0GuULjBQ4rCQKBLKEFPaZfBDzKZQJviB0Ew
M5DBjWa5QN+kCUFSVITBmQTcQN16q0DS75fBnzCxQM2nykD4g53Bul+cQLP7z0C8NXvBHCdhQIwn
8kBCTIHBPTmvQEgqk0A5SYnBgqAVQUAzvT+hjU/BIf0mQQNgDj4PpVfBlMopQQsF4j/ogWPBT2dG
QCX9Q8CPm5XB2iBWQID4P8DDYYfBqVeQQDm9C8CFKJDB62slQTdIm8AQYIjBCzchQVUURcBbdofB
LhUQQe+WhsAIQoDBdACOQMqoK0Aq+qrB5tZvQIZp2T+MS6DBiriAQFPNpsCZzY7Bxf+lQLCvjMBc
lJfBf2wTQc/mfsD6s5jBoUoCQSyAo8Cnf5HBh1OoQAd4jcCeGX7B7PPLQHBUqcBX64fBDKIAQZsP
A8BgMZDBMNfdQC64RMAR/JfBBOtkQAN9X0D7YJLBKG7FQGLrZEBOWZ/BPtOmQJPMyj+BD4/BhjxO
QGgUrEBn6ofB5nNbQHUSzUA06ZHBq8NPQAFUgUANXaTBzjawQMbvK0HmwafB3yrEQJ4dIkFR+57B
WBneQKD+QbxTx4XBq2oKQdbGxD9X3H7BGl4FQTHaGr+362zBZD7dQEipqT8aHqzBMRqqQLDQrb7V
r6XBc7TtQMKdhr9nm63BHim1QOXuIkHXB7LBtcjfQHIuB0EMNKvBSofzQN5mnT/mqobBO6XpQFr/
a7+1SnvB50MQQUsFHz9Bwm7BcpC1QO4YgT/nVqfBMlf5QBk3lz70M6/BSAvGQGYRr78M4KjBY3rc
QAx9D0HYtqDBekXmQKz9DUAVzo7BmL7PQIz4B8AExXfBw8+qQGxN/UA3RIrBwD/AQOlDv0CfEpbB
fwaNQGsL30CVJoTB1BegQG3zokBD1Y/BEuQgQcqfgD/VTl7B/WphQH+8j8CNEo/BzcwWQdkHccA2
sZbBpFeXQC4AB0Ao66PB7raUQDT4YcC0FozBjgQBQTPnVcD9SpLBJzKzQOSlhsA+AoTBUJ0AQQr6
ZsAnOIbB5DiLQOPggECUDJfB81msQCShQUBcfZvBGX/MQD/rEEGPm7PBAL/NQDgS5UBBuY/BC468
QM31C0A1rJLBIybXQCKwU8CUjoHBVJx6QPWOvUDYZYvBiJ//QO6oRECq4JHB6ICwQCWyAcAJBGzB
z9gAQQ9GEkHsoo3BC/YKQRV15kCAzJnB3X5qQBKtlUDkoZ/B8rEPQS5yGT/7vbPBHb26QLUuKsAa
aqfBJGb1QHjdAUFeeZXB9EidQOU5OkGZqKbBO+zAQCC8KEHDCpfBnN/EQL/ahr6/VIvBTrgSQYvJ
HkCzEoDBErcJQXy5pr+Cd2DBKwXmQJ7jFkApZ63BKOGLQLkaFb9p+aHBZpkBQXTM678dA7DBeAOm
QDGQKkF/y7jBJhLyQNqI8UAwjKzB1x6YQK1mB0EbTpDBCxW5QNIWCkHxm4TBq63cQCMMrEB1CJjB
aAKxQP9XykCLgZ3Bb62eQPAv0EBuAnvB1HhjQIBA8UDu9YDBfzKxQE7GkkBySonB6xMZQeQ1wj/q
1VDBpvsoQSjkyj0CdVjBP7gsQbG31j98qGXBczM2QKQpgMBa05TBGsV8QHm8rMA7tJLB5l49QJp9
mMBc1ofBbVEXQY8fZcCQXJ/B83kjQR3iS8CpupLBJkoZQbjPmsCOJpXBWKCOQByCLUCw9KrBg7B0
QHlE1D9ReaDBL7KmQAR5UMCvVJPBFf+GQEX7J8DQdojBI/r8QOpKEcAvzpPBiZroQD0Ie8AUOpbB
4pmhQJXgjcBvNXnBq5u/QO+GpMCPeYfBXl8EQbtllcAGyoTBrMAMQYOaPsAfVILBLytoQL65XUBy
LpLBttXGQFUfZUCBOJ/B6haoQCdlxj+POo/BWF9SQOmkqkD1WofBimpbQO58y0AJdJHB/6BQQDfJ
gECkG6TBmwnQQB4EDEGlT7PBLdfjQADZAkH4VarBX5jgQOzD6z0VFIbBi6ALQaMi2j8dWoDB7J4H
QTQv2L5vCW7Bv3vXQBmimD8lbqzB9cmjQOqrxL6W8KTB5j7lQO9rmr86Sa3BKzW4QH0HH0G9ErLB
Ze3GQLYCIEH6rJ/B5GX1QIsWrj+gVofBHWrtQErKQ7+YwnvBfTESQWfmTj8zinDBOl2wQCcZcT/D
KafBc/bxQFp58z13ca/BmR2+QCZ9ur8iDajB7m/fQHYQDUGGXKDBZ/jmQCl7E0Csq4/BKRDUQPjp
+r9gUnfBwHWqQCHX+0B1nonBg9q/QLr7vkBgzJXBgXWLQHZi3UBR94PB1eGeQB50okBO9Y/BpFAj
QbHFmj/tuGDBOjxuQIwcksBRy43BsAoVQYGhe8DPbJfB7teTQEnLBUBQ46PBrBCXQMP9X8C/RorB
13MAQb+4WcD+Y5LBkg+4QBCtg8CUe4LBKGcCQVkuXsDJJYbB0RKKQPuNgUDFfpfBDb2qQEqWQkAs
AJzBIvizQLelKEExaajBrX/NQJGi40BgB4/BRLK8QJOqD0DMJZPByKrbQOISS8C15YDBhBt4QN4L
vUCHj4vBagMAQYspSED7XZPBwgC1QF/E6r8vg2vBGP7+QNmHEkGNzYzB2CcMQU0B5UC9r5fBpjxq
QK1rl0DwEqDByMMLQYT/uD6jcLTBxbyxQBeRLsBDDabBmuv1QOcfAUH6X5TBFwLTQD2ZBEFHFLvB
MRf2QFZ+6EB4EavBIdzGQOS9Jb4KZ4vBlZETQe4SKkDTNIHB8oEMQWBRjb/zjmHB1xbhQN1GDUCs
Ja7Ba/eFQM1ZE7/h2aDB/3/5QB7wAcBopa/BIf6oQE0VJkGU+7jBmTnDQADIJ0GoA5jB0siYQAY+
B0F3oo/B7oW4QP3WCEEfroPBZxjcQMuTq0DEz5fBclOxQF1ky0BzMJ3BSw6cQJ5yzUDtnHrBYzRg
QEyu70A32IDB/SOvQLNVkUBebonBe+cbQW433T/hFlPByq4rQRPnnj7S+1rBUdQuQc+58D95lGjB
R4A/QJjmg8CRVZPBBD+IQNlArMDD15HBlKJMQPjLnsDKvYbB4r8TQa+ceMBzMaDB0aQiQeVRVMCS
xZTBApEXQT8yn8Ar75TB8amKQGsWKkAZEqvBs+5tQDUL2D+1BaDBa8+nQEelRsC5VpHBseGFQIa7
K8DAPIbBM9P7QJDvFsAH3pTBlqvlQBSBgMChB5XBhYyoQN8qisDpgHXBHmzEQI3BocCf2YXByI4H
QcZ2j8C72IPBXGgOQdNQL8D1e4PBVm5kQH8BX0DL25LBCk7EQEBDZUA9OKDBkQapQHWrzj9UWo/B
SnJOQO35qUCAzIfBAqlaQCrvy0A6nJHBCYhQQGceg0DJuqTB

>  <OMEGA_E>  (54) 
kIa4PRCvuD0AELA9qG/EPgBIyz4=

>  <OMEGA_NBR>  (54) 
     52245

$$$$
50162138
     RDKit          3D

 91 94  0  0  1  0  0  0  0  0999 V2000
    6.9816    0.0312  -16.8764 C   0  0  0  0  0  0  0  0  0  0  0  0
    8.6416    1.6004  -16.0090 C   0  0  0  0  0  0  0  0  0  0  0  0
    8.3723   -0.5892  -14.9700 C   0  0  0  0  0  0  0  0  0  0  0  0
    6.8496    1.4509  -21.5547 C   0  0  0  0  0  0  0  0  0  0  0  0
    5.2959   -0.2626  -20.7657 C   0  0  0  0  0  0  0  0  0  0  0  0
    7.4121   -0.9094  -21.7904 C   0  0  0  0  0  0  0  0  0  0  0  0
    7.6103    1.2998  -16.9263 C   0  0  0  0  0  0  0  0  0  0  0  0
    7.3698   -0.9159  -15.9033 C   0  0  0  0  0  0  0  0  0  0  0  0
    9.0280    0.6543  -15.0388 C   0  0  0  0  0  0  0  0  0  0  0  0
    5.6230    1.0939  -20.9510 C   0  0  0  0  0  0  0  0  0  0  0  0
    7.7460    0.4484  -21.9677 C   0  0  0  0  0  0  0  0  0  0  0  0
    6.1845   -1.2623  -21.1942 C   0  0  0  0  0  0  0  0  0  0  0  0
    8.2048    9.2139  -15.9034 C   0  0  0  0  0  0  0  0  0  0  0  0
    8.3316    8.6819  -17.1716 C   0  0  0  0  0  0  0  0  0  0  0  0
    9.2431   10.9602  -16.9487 C   0  0  0  0  0  0  0  0  0  0  0  0
    7.1706    2.3094  -17.9102 C   0  0  0  0  0  0  0  0  0  0  0  0
    6.6932   -2.2231  -15.8092 C   0  0  0  0  0  0  0  0  0  0  0  0
    5.2670    8.0598  -17.6194 C   0  0  0  0  0  0  0  0  0  0  0  0
    5.7154    6.1583  -19.1663 C   0  0  0  0  0  0  0  0  0  0  0  0
    4.5538    7.1122  -16.6451 C   0  0  0  0  0  0  0  0  0  0  0  0
    4.9986    5.2178  -18.1588 C   0  0  2  0  0  0  0  0  0  0  0  0
   10.0967    0.9990  -14.0263 C   0  0  0  0  0  0  0  0  0  0  0  0
    7.5446    8.5762  -14.6910 C   0  0  0  0  0  0  0  0  0  0  0  0
    9.9509   12.2825  -17.1015 C   0  0  0  0  0  0  0  0  0  0  0  0
    3.9007   -3.1135  -17.9461 C   0  0  0  0  0  0  0  0  0  0  0  0
    9.5846   -4.1121  -16.7732 C   0  0  0  0  0  0  0  0  0  0  0  0
    4.6561    2.1587  -20.4970 C   0  0  0  0  0  0  0  0  0  0  0  0
    4.7904   -4.3699  -17.9676 C   0  0  0  0  0  0  0  0  0  0  0  0
    8.7053   -4.1528  -18.0338 C   0  0  0  0  0  0  0  0  0  0  0  0
    5.8127   -4.3577  -16.8142 C   0  0  0  0  0  0  0  0  0  0  0  0
    7.6416   -3.0338  -18.0163 C   0  0  0  0  0  0  0  0  0  0  0  0
    4.2885    4.0701  -18.8781 C   0  0  2  0  0  0  0  0  0  0  0  0
    5.3181    3.0833  -19.4616 C   0  0  1  0  0  0  0  0  0  0  0  0
    8.7815   10.4830  -15.8150 N   0  0  0  0  0  0  0  0  0  0  0  0
    6.2609    7.3012  -18.4343 N   0  0  0  0  0  0  0  0  0  0  0  0
    5.8606    2.2581  -18.3706 N   0  0  0  0  0  0  0  0  0  0  0  0
    6.6975   -3.1584  -16.8677 N   0  0  0  0  0  0  0  0  0  0  0  0
    3.9813    5.9819  -17.4004 N   0  0  0  0  0  0  0  0  0  0  0  0
    7.9410    3.1868  -18.2881 O   0  0  0  0  0  0  0  0  0  0  0  0
    6.1294   -2.4828  -14.7515 O   0  0  0  0  0  0  0  0  0  0  0  0
    7.7263    6.1336  -16.6620 O   0  0  0  0  0  0  0  0  0  0  0  0
    8.7079    6.7696  -18.9213 O   0  0  0  0  0  0  0  0  0  0  0  0
    3.4508    4.6107  -19.9025 O   0  0  0  0  0  0  0  0  0  0  0  0
    8.9232    0.7888  -22.5395 F   0  0  0  0  0  0  0  0  0  0  0  0
    5.8492   -2.5618  -21.0453 F   0  0  0  0  0  0  0  0  0  0  0  0
    9.0227    9.8419  -18.2500 S   0  0  0  0  0  0  0  0  0  0  0  0
    7.8254    7.0745  -17.7859 S   0  0  0  0  0  0  0  0  0  0  0  0
    6.2033   -0.2123  -17.5845 H   0  0  0  0  0  0  0  0  0  0  0  0
    9.1361    2.5597  -16.0514 H   0  0  0  0  0  0  0  0  0  0  0  0
    8.6391   -1.2958  -14.1981 H   0  0  0  0  0  0  0  0  0  0  0  0
    7.0986    2.4919  -21.6988 H   0  0  0  0  0  0  0  0  0  0  0  0
    4.3628   -0.5344  -20.2946 H   0  0  0  0  0  0  0  0  0  0  0  0
    8.0973   -1.6800  -22.1115 H   0  0  0  0  0  0  0  0  0  0  0  0
    4.5249    8.5215  -18.2873 H   0  0  0  0  0  0  0  0  0  0  0  0
    5.7861    8.8447  -17.0497 H   0  0  0  0  0  0  0  0  0  0  0  0
    6.5314    5.6141  -19.6644 H   0  0  0  0  0  0  0  0  0  0  0  0
    4.9960    6.5106  -19.9200 H   0  0  0  0  0  0  0  0  0  0  0  0
    5.2750    6.7334  -15.9060 H   0  0  0  0  0  0  0  0  0  0  0  0
    3.7487    7.6543  -16.1274 H   0  0  0  0  0  0  0  0  0  0  0  0
    5.7458    4.8028  -17.4664 H   0  0  0  0  0  0  0  0  0  0  0  0
    9.6320    1.4718  -13.1485 H   0  0  0  0  0  0  0  0  0  0  0  0
   10.6171    0.0810  -13.7158 H   0  0  0  0  0  0  0  0  0  0  0  0
   10.8189    1.6949  -14.4782 H   0  0  0  0  0  0  0  0  0  0  0  0
    7.6160    9.2597  -13.8320 H   0  0  0  0  0  0  0  0  0  0  0  0
    6.4860    8.3760  -14.9130 H   0  0  0  0  0  0  0  0  0  0  0  0
    8.0540    7.6313  -14.4508 H   0  0  0  0  0  0  0  0  0  0  0  0
   10.0180   12.7783  -16.1219 H   0  0  0  0  0  0  0  0  0  0  0  0
   10.9634   12.1128  -17.4966 H   0  0  0  0  0  0  0  0  0  0  0  0
    9.3878   12.9213  -17.7978 H   0  0  0  0  0  0  0  0  0  0  0  0
    3.1853   -3.1558  -18.7806 H   0  0  0  0  0  0  0  0  0  0  0  0
    3.3512   -3.0697  -16.9942 H   0  0  0  0  0  0  0  0  0  0  0  0
    4.5299   -2.2170  -18.0479 H   0  0  0  0  0  0  0  0  0  0  0  0
   10.3292   -4.9205  -16.8187 H   0  0  0  0  0  0  0  0  0  0  0  0
   10.0999   -3.1419  -16.7169 H   0  0  0  0  0  0  0  0  0  0  0  0
    8.9537   -4.2446  -15.8819 H   0  0  0  0  0  0  0  0  0  0  0  0
    4.3410    2.7554  -21.3657 H   0  0  0  0  0  0  0  0  0  0  0  0
    3.7764    1.6788  -20.0432 H   0  0  0  0  0  0  0  0  0  0  0  0
    4.1528   -5.2610  -17.8708 H   0  0  0  0  0  0  0  0  0  0  0  0
    5.3315   -4.4083  -18.9245 H   0  0  0  0  0  0  0  0  0  0  0  0
    9.3444   -4.0249  -18.9200 H   0  0  0  0  0  0  0  0  0  0  0  0
    8.1982   -5.1276  -18.0850 H   0  0  0  0  0  0  0  0  0  0  0  0
    5.2696   -4.3566  -15.8576 H   0  0  0  0  0  0  0  0  0  0  0  0
    6.4352   -5.2621  -16.8812 H   0  0  0  0  0  0  0  0  0  0  0  0
    8.1531   -2.0623  -17.9482 H   0  0  0  0  0  0  0  0  0  0  0  0
    7.0657   -3.0802  -18.9524 H   0  0  0  0  0  0  0  0  0  0  0  0
    3.6731    3.5297  -18.1437 H   0  0  0  0  0  0  0  0  0  0  0  0
    6.1271    3.6494  -19.9463 H   0  0  0  0  0  0  0  0  0  0  0  0
    5.2396    1.6117  -17.9271 H   0  0  0  0  0  0  0  0  0  0  0  0
    3.5327    5.3627  -16.7560 H   0  0  0  0  0  0  0  0  0  0  0  0
    3.3053    6.3392  -18.0450 H   0  0  0  0  0  0  0  0  0  0  0  0
    3.0058    3.9035  -20.3544 H   0  0  0  0  0  0  0  0  0  0  0  0
  1  7  2  0
  1  8  1  0
  2  7  1  0
  2  9  2  0
  3  8  2  0
  3  9  1  0
  4 10  2  0
  4 11  1  0
  5 10  1  0
  5 12  2  0
  6 11  2  0
  6 12  1  0
  7 16  1  0
  8 17  1  0
  9 22  1  0
 10 27  1  0
 11 44  1  0
 12 45  1  0
 13 14  2  0
 13 23  1  0
 13 34  1  0
 14 46  1  0
 14 47  1  0
 15 24  1  0
 15 34  2  0
 15 46  1  0
 16 36  1  0
 16 39  2  0
 17 37  1  0
 17 40  2  0
 18 20  1  0
 18 35  1  0
 19 21  1  0
 19 35  1  0
 20 38  1  0
 21 32  1  0
 21 38  1  0
 25 28  1  0
 26 29  1  0
 27 33  1  0
 28 30  1  0
 29 31  1  0
 30 37  1  0
 31 37  1  0
 32 33  1  0
 32 43  1  0
 33 36  1  0
 35 47  1  0
 41 47  2  0
 42 47  2  0
  1 48  1  0
  2 49  1  0
  3 50  1  0
  4 51  1  0
  5 52  1  0
  6 53  1  0
 18 54  1  0
 18 55  1  0
 19 56  1  0
 19 57  1  0
 20 58  1  0
 20 59  1  0
 21 60  1  1
 22 61  1  0
 22 62  1  0
 22 63  1  0
 23 64  1  0
 23 65  1  0
 23 66  1  0
 24 67  1  0
 24 68  1  0
 24 69  1  0
 25 70  1  0
 25 71  1  0
 25 72  1  0
 26 73  1  0
 26 74  1  0
 26 75  1  0
 27 76  1  0
 27 77  1  0
 28 78  1  0
 28 79  1  0
 29 80  1  0
 29 81  1  0
 30 82  1  0
 30 83  1  0
 31 84  1  0
 31 85  1  0
 32 86  1  1
 33 87  1  6
 36 88  1  0
 38 89  1  0
 38 90  1  0
 43 91  1  0
M  CHG  1  38   1
M  END
>  <OMEGA_C>  (55) 
YWnfQCCk/zzkAofB/UMKQWTbzD9fEoDBvfQFQenVFr8ohW/B7C/bQIq4uT/zb6zBK3ipQC54hr4i
IKbBATDtQAPPaL+pUq7BgofzQGRepj/+aIfBG9XrQFN5ar8bdH7BwXIQQUB/Jz8Hn3DBv++zQKcF
jD+Ym6fB8N73QEGZ5T7Gva/BcOfFQA6Sob+3janB80YDQTNsE0EzdH7BI04FQevoCkFrX4nB1OMT
QdBcL0HvlofBTXXlQG7ME0AQSI/Bdy7WQNhHDsBW8nzB3YqoQBz1AEF19IzB8OS2QHIQxUB9VJnB
sbiRQIqX40A7KYXBfPSfQG34pkAgRZHBG4whQWu+fz/qa2DBb23xQEU4CUExDmvByzYfQQKFREHJ
z4jBqqR5QN1CR8CdkY/BcloZQaWWg8CRL4bB8P6UQN4nCkDC+aPBjkqZQO7Vi8CyvY/B7UgLQajj
hMBKRZDB2QG6QIdyi8Bng4bBpYf0QM4pQsBRIZDBQzuJQAs+gkBEBpfByy2qQElURUBisZvB7YAM
QS+6J0EbCn3BsFnIQKWj6UBgeZPB04m7QDWEEED49pLBClLWQHwjSsDz8IbB3M1+QMFrv0AZNIvB
eBz+QIL0S0AaTpLB6SPEQMflHsBEBmzBzz33QCJGxEDcS4XBsFMLQWig2EDWXpfBuNlcQCiLk0BV
OJ/BPsUOQWXxST/4ULTBpyy7QFL1I8DGXKjBz1wQQZl4HUENAJLBlmn6QH5i4kBySY7BuoHGQNpf
Wb4SrYzBXi0SQXzRI0A3aYDBtDkKQefcpb89K2PBByjjQF97H0Avl63BUZyLQAnMCL9fW6LBko4B
QbYJ179R5LDBq8uQQERYCEFgTJLBkie5QPGDDUHZZYjBKgHRQMmms0CqUJ3B596fQCZX0EA1XJ/B
jMyoQJx310Dlfn7BButvQDTw9ED9BIHBxt23QDmwmUAou4vB3hwaQVpjvD9cYFLBxN8pQR3rpT3D
c1vBJRotQeDy2D+tpmfBobbzQMcnFEEEUF3Bfo3PQBoEBkGnm27BJN0AQcQz9EClNmfB2EkgQQl0
TEGQ+YDB4mkvQQfOQUH2+IvBiTQWQZS9TkHmYY7BfNtLQD74ScCwPpbBqnpWQER1RMAI9IfBIPWQ
QMfiDcACYpDBXEQlQfh0ncCqjIbBB5khQVQVScAovIXBekIPQZ3Th8A1HH7Bz+mKQDRYMEDl7KrB
JbFxQE3i1j+QWKDBxuOEQFJaqMB7947BkZuqQBMRjcB2ZZfBhIIVQWHMgMAfXJfB9ysDQVQVpMAR
rpDBlKCoQNxoi8C4uH3Bf+3NQIhjqMDGDIfB8nICQWb9A8AAlo/BaBriQKQiRcBsnpfBwRNrQAbn
YUBFJpHBSxHEQCOQaUAYkp/BIqunQFxMzj/Fao/BKxhiQA2bq0A/DIbBR4pTQFnaykAPXJDBkl5A
QCbSeUDP1aLB

>  <OMEGA_E>  (55) 
MAocPw==

>  <OMEGA_NBR>  (55) 
     54048

$$$$
50162165
     RDKit          3D

 92 95  0  0  1  0  0  0  0  0999 V2000
    6.6682    8.4584  -22.5058 C   0  0  0  0  0  0  0  0  0  0  0  0
    5.9107    9.6447  -22.4609 C   0  0  0  0  0  0  0  0  0  0  0  0
    7.2610    7.9582  -21.3307 C   0  0  0  0  0  0  0  0  0  0  0  0
    7.0011    0.0335  -16.8659 C   0  0  0  0  0  0  0  0  0  0  0  0
    8.5647    1.6634  -15.9340 C   0  0  0  0  0  0  0  0  0  0  0  0
    8.3660   -0.5490  -14.9301 C   0  0  0  0  0  0  0  0  0  0  0  0
    6.8087    1.2718  -21.4190 C   0  0  0  0  0  0  0  0  0  0  0  0
    5.0817   -0.3200  -20.7445 C   0  0  0  0  0  0  0  0  0  0  0  0
    6.3422    9.8341  -20.0678 C   0  0  0  0  0  0  0  0  0  0  0  0
    7.2004   -1.1246  -21.6446 C   0  0  0  0  0  0  0  0  0  0  0  0
    7.5773    1.3251  -16.8850 C   0  0  0  0  0  0  0  0  0  0  0  0
    7.4057   -0.9106  -15.8975 C   0  0  0  0  0  0  0  0  0  0  0  0
    5.7584   10.3398  -21.2423 C   0  0  0  0  0  0  0  0  0  0  0  0
    8.9625    0.7264  -14.9612 C   0  0  0  0  0  0  0  0  0  0  0  0
    5.5255    1.0091  -20.8902 C   0  0  0  0  0  0  0  0  0  0  0  0
    7.6495    0.2042  -21.7833 C   0  0  0  0  0  0  0  0  0  0  0  0
    5.9132   -1.3841  -21.1323 C   0  0  0  0  0  0  0  0  0  0  0  0
    7.1023    8.6514  -20.1100 C   0  0  0  0  0  0  0  0  0  0  0  0
    7.1334    2.3180  -17.8774 C   0  0  0  0  0  0  0  0  0  0  0  0
    6.7602   -2.2372  -15.8221 C   0  0  0  0  0  0  0  0  0  0  0  0
    5.3292    7.9227  -17.2815 C   0  0  0  0  0  0  0  0  0  0  0  0
    5.9503    5.9563  -18.7159 C   0  0  0  0  0  0  0  0  0  0  0  0
    4.3176    7.0313  -16.5498 C   0  0  0  0  0  0  0  0  0  0  0  0
    4.9037    5.1084  -17.9638 C   0  0  2  0  0  0  0  0  0  0  0  0
    4.9021   11.5800  -21.1725 C   0  0  0  0  0  0  0  0  0  0  0  0
    9.9696    1.1156  -13.9023 C   0  0  0  0  0  0  0  0  0  0  0  0
    3.8706   -3.0098  -17.9174 C   0  0  0  0  0  0  0  0  0  0  0  0
    9.6385   -3.9475  -16.9886 C   0  0  0  0  0  0  0  0  0  0  0  0
    4.6149    2.1444  -20.4859 C   0  0  0  0  0  0  0  0  0  0  0  0
    4.7255   -4.2894  -17.9841 C   0  0  0  0  0  0  0  0  0  0  0  0
    8.6722   -4.0466  -18.1798 C   0  0  0  0  0  0  0  0  0  0  0  0
    5.7966   -4.3144  -16.8747 C   0  0  0  0  0  0  0  0  0  0  0  0
    7.5773   -2.9610  -18.1123 C   0  0  0  0  0  0  0  0  0  0  0  0
    4.2562    4.0610  -18.8858 C   0  0  2  0  0  0  0  0  0  0  0  0
    5.2911    3.0673  -19.4529 C   0  0  1  0  0  0  0  0  0  0  0  0
    6.4105    7.0962  -17.8952 N   0  0  0  0  0  0  0  0  0  0  0  0
    5.8303    2.2455  -18.3569 N   0  0  0  0  0  0  0  0  0  0  0  0
    6.6869   -3.1177  -16.9260 N   0  0  0  0  0  0  0  0  0  0  0  0
    3.8252    5.9807  -17.4540 N   0  0  0  0  0  0  0  0  0  0  0  0
    7.9062    3.1908  -18.2584 O   0  0  0  0  0  0  0  0  0  0  0  0
    6.2554   -2.5466  -14.7481 O   0  0  0  0  0  0  0  0  0  0  0  0
    8.0456    9.0797  -17.6690 O   0  0  0  0  0  0  0  0  0  0  0  0
    8.7792    6.9804  -18.9124 O   0  0  0  0  0  0  0  0  0  0  0  0
    3.5834    4.7272  -19.9572 O   0  0  0  0  0  0  0  0  0  0  0  0
    8.8836    0.4557  -22.2752 F   0  0  0  0  0  0  0  0  0  0  0  0
    5.4707   -2.6554  -21.0185 F   0  0  0  0  0  0  0  0  0  0  0  0
    7.7372    7.9587  -18.5677 S   0  0  0  0  0  0  0  0  0  0  0  0
    6.7942    7.9327  -23.4408 H   0  0  0  0  0  0  0  0  0  0  0  0
    5.4462   10.0228  -23.3596 H   0  0  0  0  0  0  0  0  0  0  0  0
    7.8367    7.0451  -21.3626 H   0  0  0  0  0  0  0  0  0  0  0  0
    6.2491   -0.2313  -17.5946 H   0  0  0  0  0  0  0  0  0  0  0  0
    9.0163    2.6442  -15.9529 H   0  0  0  0  0  0  0  0  0  0  0  0
    8.6454   -1.2540  -14.1612 H   0  0  0  0  0  0  0  0  0  0  0  0
    7.1440    2.2909  -21.5435 H   0  0  0  0  0  0  0  0  0  0  0  0
    4.1028   -0.5209  -20.3349 H   0  0  0  0  0  0  0  0  0  0  0  0
    6.2069   10.3546  -19.1312 H   0  0  0  0  0  0  0  0  0  0  0  0
    7.8428   -1.9442  -21.9309 H   0  0  0  0  0  0  0  0  0  0  0  0
    4.8105    8.4843  -18.0724 H   0  0  0  0  0  0  0  0  0  0  0  0
    5.7756    8.6271  -16.5642 H   0  0  0  0  0  0  0  0  0  0  0  0
    6.8140    5.3218  -18.9637 H   0  0  0  0  0  0  0  0  0  0  0  0
    5.5002    6.3412  -19.6428 H   0  0  0  0  0  0  0  0  0  0  0  0
    4.8050    6.5649  -15.6809 H   0  0  0  0  0  0  0  0  0  0  0  0
    3.4707    7.6452  -16.2095 H   0  0  0  0  0  0  0  0  0  0  0  0
    5.3956    4.5936  -17.1254 H   0  0  0  0  0  0  0  0  0  0  0  0
    3.8610   11.2959  -20.9595 H   0  0  0  0  0  0  0  0  0  0  0  0
    5.2736   12.2374  -20.3726 H   0  0  0  0  0  0  0  0  0  0  0  0
    4.9476   12.1114  -22.1346 H   0  0  0  0  0  0  0  0  0  0  0  0
    9.4453    1.5537  -13.0403 H   0  0  0  0  0  0  0  0  0  0  0  0
   10.5247    0.2228  -13.5787 H   0  0  0  0  0  0  0  0  0  0  0  0
   10.6718    1.8533  -14.3179 H   0  0  0  0  0  0  0  0  0  0  0  0
    3.1200   -3.0274  -18.7214 H   0  0  0  0  0  0  0  0  0  0  0  0
    3.3629   -2.9585  -16.9430 H   0  0  0  0  0  0  0  0  0  0  0  0
    4.5185   -2.1294  -18.0401 H   0  0  0  0  0  0  0  0  0  0  0  0
   10.4031   -4.7342  -17.0696 H   0  0  0  0  0  0  0  0  0  0  0  0
   10.1255   -2.9612  -16.9928 H   0  0  0  0  0  0  0  0  0  0  0  0
    9.0784   -4.0759  -16.0506 H   0  0  0  0  0  0  0  0  0  0  0  0
    4.3593    2.7335  -21.3790 H   0  0  0  0  0  0  0  0  0  0  0  0
    3.6967    1.7275  -20.0465 H   0  0  0  0  0  0  0  0  0  0  0  0
    4.0689   -5.1640  -17.8662 H   0  0  0  0  0  0  0  0  0  0  0  0
    5.2245   -4.3349  -18.9633 H   0  0  0  0  0  0  0  0  0  0  0  0
    9.2413   -3.9226  -19.1129 H   0  0  0  0  0  0  0  0  0  0  0  0
    8.1942   -5.0373  -18.1708 H   0  0  0  0  0  0  0  0  0  0  0  0
    5.2936   -4.3406  -15.8968 H   0  0  0  0  0  0  0  0  0  0  0  0
    6.4110   -5.2188  -16.9954 H   0  0  0  0  0  0  0  0  0  0  0  0
    8.0617   -1.9747  -18.0614 H   0  0  0  0  0  0  0  0  0  0  0  0
    6.9641   -3.0218  -19.0235 H   0  0  0  0  0  0  0  0  0  0  0  0
    3.5262    3.4901  -18.2932 H   0  0  0  0  0  0  0  0  0  0  0  0
    6.1015    3.6275  -19.9422 H   0  0  0  0  0  0  0  0  0  0  0  0
    5.2139    1.5866  -17.9256 H   0  0  0  0  0  0  0  0  0  0  0  0
    3.1659    5.4159  -16.9577 H   0  0  0  0  0  0  0  0  0  0  0  0
    3.3723    6.4159  -18.2321 H   0  0  0  0  0  0  0  0  0  0  0  0
    3.1822    4.0833  -20.5289 H   0  0  0  0  0  0  0  0  0  0  0  0
  1  2  2  0
  1  3  1  0
  2 13  1  0
  3 18  2  0
  4 11  2  0
  4 12  1  0
  5 11  1  0
  5 14  2  0
  6 12  2  0
  6 14  1  0
  7 15  2  0
  7 16  1  0
  8 15  1  0
  8 17  2  0
  9 13  2  0
  9 18  1  0
 10 16  2  0
 10 17  1  0
 11 19  1  0
 12 20  1  0
 13 25  1  0
 14 26  1  0
 15 29  1  0
 16 45  1  0
 17 46  1  0
 18 47  1  0
 19 37  1  0
 19 40  2  0
 20 38  1  0
 20 41  2  0
 21 23  1  0
 21 36  1  0
 22 24  1  0
 22 36  1  0
 23 39  1  0
 24 34  1  0
 24 39  1  0
 27 30  1  0
 28 31  1  0
 29 35  1  0
 30 32  1  0
 31 33  1  0
 32 38  1  0
 33 38  1  0
 34 35  1  0
 34 44  1  0
 35 37  1  0
 36 47  1  0
 42 47  2  0
 43 47  2  0
  1 48  1  0
  2 49  1  0
  3 50  1  0
  4 51  1  0
  5 52  1  0
  6 53  1  0
  7 54  1  0
  8 55  1  0
  9 56  1  0
 10 57  1  0
 21 58  1  0
 21 59  1  0
 22 60  1  0
 22 61  1  0
 23 62  1  0
 23 63  1  0
 24 64  1  1
 25 65  1  0
 25 66  1  0
 25 67  1  0
 26 68  1  0
 26 69  1  0
 26 70  1  0
 27 71  1  0
 27 72  1  0
 27 73  1  0
 28 74  1  0
 28 75  1  0
 28 76  1  0
 29 77  1  0
 29 78  1  0
 30 79  1  0
 30 80  1  0
 31 81  1  0
 31 82  1  0
 32 83  1  0
 32 84  1  0
 33 85  1  0
 33 86  1  0
 34 87  1  1
 35 88  1  6
 37 89  1  0
 39 90  1  0
 39 91  1  0
 44 92  1  0
M  CHG  1  39   1
M  END
>  <OMEGA_C>  (56) 
pmHVQJhVB0HhC7TB1CS9QMFQGkHxr7PB5lnoQM6p/kBgparBsAjgQIEeCT1y7YbB2wgJQezp1D/b
8X7B79oFQeaIDL/X4W7BJuHZQA/Loj8iWqvBhZ2iQNjZo7699KXBjvPKQFRYHUHHiqDBqmnmQOry
j78hKK3Bd3nyQCKdqT9pFIfBy/vsQG4aab8rXH7BzUS4QKhvJUEq8KnBWWYPQWDyOT8DYW/BuNCw
QPgpgT8tH6fBDMn0QFweUT4qRK7BTTm9QLkrsb8ND6nBHUbjQPVrCkFX4aDBCEXkQOVZFEDuBI/B
jFPYQLMuD8B/J33BHomqQPmG/UCQQIrBIWm+QD6avkAiupXBGSqKQFUA4UD+ZYTBu+qcQFd4o0DE
tY/BLd6cQMNHOUFGYanBZoMfQS3Mjj/2b17BNLh3QKGgQMDjVo/BVDcaQS+kfMC46IfBYa2TQBg9
CUAs46PBRjeXQPtCicBa34/BRsEKQfR9gcBCcJHBj325QLkPisBv/4bB6XjyQNWAPcDp5ZDB8TKI
QIbzgUAVFpfBXFCpQPZORECkn5vBHyPNQEYU40BLKY/BbpG6QAO2D0D42pLBHfvVQMSHR8BjaIfB
uNB0QKZhv0DMoYvBMf/8QL02TEAnEZLBOCzIQCj8IsA3+GvBtLoAQZJGEUERWo3BhHcMQYNf30CS
TJfB/lZlQI9Fl0BaqJ/BKiMOQbJN6T6LM7LBLxCvQHrxKcD8JajBipf3QIqt/kCbipTBUmrZQKnY
/UCthrvBVEeuQGRdIEF54LrBpsb6QCtx4UCh5qrB8vjHQEndbL6uwYzB3UIQQQg7KUAgP3/BoVMK
QeSBoL9AlGLBjJvkQPydEkAbWazBbkqDQIxaBb/HraLB/Z7GQJ2sJUHEDJnBIPj6QGnb+L+Vcq/B
ou+ZQK6/B0FdlJDBzdG4QLYICkF1g4TBfQzaQBpMqkCZtZfBegGwQDjrykCEJJ3BNcKZQKMT0kDy
5HrBjR9eQCGl9EACrYHBuqisQJP+kkC7AInBmRp3QBm8NEEhrafBicGoQFvMQ0ES+6LBrlKeQF7I
QUGQE7HBxB8XQU/gxj/7pFDBS2UoQU8uZD4xQlnBfb8qQXs67T8dFmXBe65HQLXAQcBVxZXBYjlX
QJpYPcAyi4fBq5eQQF1HCMAQUpDBCHMmQZB+l8CZjojBMwIiQaqEPcBM8YfBQ0ERQd9tgsC1Z4DB
NX+LQGLxLkAvCKvB6ZZsQKoe3T8jX6DBSzSCQOU/pcD47Y7BRC+nQEe3isDWtJfBYdwTQSIMe8BN
55jBcRsDQZsxocC3XZHBdGWpQOrlisA6WX7BlSbNQL8Ap8CD9ofBmPwAQf/C/L/KfZDB2dneQEJl
QcAYMJjBE65hQBVdX0BnWJLBsz/DQHcoaECmiZ/BmtimQM8Wyz+JZ4/B2p1KQBNPrUBtqYfBONRX
QDFPzUBW25HBhKlLQE6qgkA3O6TBo9CzQA4nLUHMF6bB2B61QFllJEExd7DB2sbIQH2qIkE/np3B
Av7fQACwwTgk24bBJIwJQQMe0D/2mX/BMfwFQXAuD7+1tm7BsVnZQBH+kD9DS6vB2j2hQN9o0b6p
hqXBmDvgQHqgBkEA4qnBW0jkQD0yo789uKzBdAbzQPNZpD+CRYfBTN3sQOQQbr+R8X3B6+DKQF33
EEGNVLLB/ssPQTbQND9yvG/B4UewQBBqaD9p8qbBlnPzQFgOKj0lFa7BBRS7QIfCv79bfqjB8kPf
QO5xD0Gihp/BewHlQONEEUDQUI/Bh+7XQCATEMDCKnzBYG6qQFZg/EC8PorBspu/QEctv0BtVJbB
NKOKQB6d3kBZrYTBU1+eQPkbo0A1bpDBHR/NQNG3B0FSd73BCBkgQQy3jT/IC1/B4V91QODeQsAB
R47BwGUZQbwQgcALfofBbfWTQGmpBEC59KPBpYWVQFrAisA0t47BNroJQS0khMDE8JDBaHO4QOsr
i8AqAYbB2eTwQNLhQcA9XpDBbayJQEKAgUD8w5fBXFSqQHxbQUDh+pvBPn/NQKSD40Cjd4/BDBO7
QCMsDkB4AZPBMxbVQFIgSsDouobBwPR2QFwvvkAbRYzB2wD+QFsdSEBghJLBTGLIQHBzIsBivmrB
5YcBQZ91EEFLTIzBuWgLQeQv5EDA9pjBwBdqQG2GlkA4hKDBdHYNQerFhD5UJrLBzymsQGCEMMCH
V6fBNb32QJXYAEHYhpTBcMCiQH7lO0E5pKTB23WlQM+NLEG2/7bBJanHQCNTKUF5ppXBR5PHQCXk
ib4BlIzBuw0RQcU+JkCDLIDBgWUKQRcPoL+ZMGLBorbkQHEVCUAUeqzBaeSBQD3BFL/wKKLBAGLx
QAHT70AlWKvB9Tz4QBU7B8AL6q7BMnGZQP2MB0EgXpDBymm4QAgXCUE/SYTBEaHbQN9/q0D7XpjB
MSuxQPjXy0BCtJ3BTXqaQNm/zkAVyXvBo4deQINh8UCtvoHBkF6uQMaikkDDwonBUUrpQJMuDkE/
o8HBo7fPQCRj7EAy+bzBlfuvQBUIDEEw6MHBn+MXQXlDyT9NX1HBkdMoQcUyXD6YlVnBQnErQdar
6T+YCmbB21ZEQIyJRMCWlpTBJyJWQCXXPcCaaobBkaqPQMI1C8Acg4/BYXYlQYmOmsAQJ4jBmGEh
QUlmQ8DDn4fBqI8QQY26hMDS33/BZN+LQFevKEDLPavBQO5sQNz91z/FRaDBRESAQMdlpsCxhI3B
wd2kQBUVjcAznZbBHrQSQbGdgMBfdZjBLuIBQRqlo8CFxZDBGveoQA5ei8A8NHzBlN/LQDxKqMD4
74bBlmYAQewaA8CmJpDBl7PcQN8jRsB5jpfBkTtjQNcaYEC2DJPBXJDEQKoXY0A+D6DBrNWmQOTH
zD8BT4/BflJMQLp2q0DEkYjBecVaQIcAzUBrbJLBQXhQQALKgUDqDqXB

>  <OMEGA_E>  (56) 
YGWXPWDXPD0=

>  <OMEGA_NBR>  (56) 
     57223

$$$$
50147865
     RDKit          3D

 73 76  0  0  1  0  0  0  0  0999 V2000
    4.9839   10.3216  -22.0650 C   0  0  0  0  0  0  0  0  0  0  0  0
    5.2320   10.9574  -20.8321 C   0  0  0  0  0  0  0  0  0  0  0  0
    5.4742    9.0217  -22.3003 C   0  0  0  0  0  0  0  0  0  0  0  0
    5.9715   10.2953  -19.8347 C   0  0  0  0  0  0  0  0  0  0  0  0
    6.2183    8.3595  -21.3051 C   0  0  0  0  0  0  0  0  0  0  0  0
    6.7846    1.0333  -21.3391 C   0  0  0  0  0  0  0  0  0  0  0  0
    5.0556   -0.4323  -20.4246 C   0  0  0  0  0  0  0  0  0  0  0  0
    7.1313   -1.3787  -21.2863 C   0  0  0  0  0  0  0  0  0  0  0  0
    6.4785    9.0003  -20.0716 C   0  0  0  0  0  0  0  0  0  0  0  0
    5.5172    0.8596  -20.7447 C   0  0  0  0  0  0  0  0  0  0  0  0
    7.5949   -0.0847  -21.5996 C   0  0  0  0  0  0  0  0  0  0  0  0
    5.8612   -1.5509  -20.6988 C   0  0  0  0  0  0  0  0  0  0  0  0
    8.4778   -0.4548  -15.2432 C   0  0  0  0  0  0  0  0  0  0  0  0
    6.1174    6.0568  -18.7389 C   0  0  0  0  0  0  0  0  0  0  0  0
    7.0476    2.1952  -17.5737 C   0  0  0  0  0  0  0  0  0  0  0  0
    8.5266    1.0124  -15.7358 C   0  0  0  0  0  0  0  0  0  0  0  0
    5.2576    7.9845  -17.4120 C   0  0  0  0  0  0  0  0  0  0  0  0
    7.0176   -0.2329  -17.0515 C   0  0  0  0  0  0  0  0  0  0  0  0
    4.5413    6.9579  -16.5320 C   0  0  0  0  0  0  0  0  0  0  0  0
    5.1296    5.1033  -18.0071 C   0  0  2  0  0  0  0  0  0  0  0  0
    7.1936    1.1529  -16.4598 C   0  0  2  0  0  0  0  0  0  0  0  0
    9.3231   -3.3080  -17.3999 C   0  0  0  0  0  0  0  0  0  0  0  0
    4.6789    2.0599  -20.3971 C   0  0  0  0  0  0  0  0  0  0  0  0
    7.2205    8.2801  -18.9650 C   0  0  0  0  0  0  0  0  0  0  0  0
    7.7862   -3.2573  -17.3434 C   0  0  0  0  0  0  0  0  0  0  0  0
    7.2693   -2.5853  -16.0435 C   0  0  0  0  0  0  0  0  0  0  0  0
    4.4515    4.0750  -18.9242 C   0  0  2  0  0  0  0  0  0  0  0  0
    5.4182    2.9662  -19.3904 C   0  0  1  0  0  0  0  0  0  0  0  0
    6.2957    7.3651  -18.2682 N   0  0  0  0  0  0  0  0  0  0  0  0
    7.5116   -1.1284  -16.0143 N   0  0  0  0  0  0  0  0  0  0  0  0
    5.8207    2.1662  -18.2306 N   0  0  0  0  0  0  0  0  0  0  0  0
    4.0408    5.8826  -17.3906 N   0  0  0  0  0  0  0  0  0  0  0  0
    9.1228   -0.9145  -14.3085 O   0  0  0  0  0  0  0  0  0  0  0  0
    6.8476    5.6262  -19.6245 O   0  0  0  0  0  0  0  0  0  0  0  0
    7.9194    3.0224  -17.8238 O   0  0  0  0  0  0  0  0  0  0  0  0
    3.8565    4.7534  -20.0310 O   0  0  0  0  0  0  0  0  0  0  0  0
    8.8244    0.0874  -22.1344 F   0  0  0  0  0  0  0  0  0  0  0  0
    5.4225   -2.7882  -20.3778 F   0  0  0  0  0  0  0  0  0  0  0  0
    4.4174   10.8313  -22.8303 H   0  0  0  0  0  0  0  0  0  0  0  0
    4.8543   11.9532  -20.6526 H   0  0  0  0  0  0  0  0  0  0  0  0
    5.2793    8.5334  -23.2437 H   0  0  0  0  0  0  0  0  0  0  0  0
    6.1513   10.7794  -18.8862 H   0  0  0  0  0  0  0  0  0  0  0  0
    6.5906    7.3616  -21.4839 H   0  0  0  0  0  0  0  0  0  0  0  0
    7.1315    2.0239  -21.5935 H   0  0  0  0  0  0  0  0  0  0  0  0
    4.0849   -0.5629  -19.9695 H   0  0  0  0  0  0  0  0  0  0  0  0
    7.7496   -2.2389  -21.4966 H   0  0  0  0  0  0  0  0  0  0  0  0
    8.5982    1.7144  -14.8920 H   0  0  0  0  0  0  0  0  0  0  0  0
    9.3717    1.1753  -16.4209 H   0  0  0  0  0  0  0  0  0  0  0  0
    4.5149    8.4770  -18.0568 H   0  0  0  0  0  0  0  0  0  0  0  0
    5.7349    8.7341  -16.7638 H   0  0  0  0  0  0  0  0  0  0  0  0
    5.9579   -0.4332  -17.2680 H   0  0  0  0  0  0  0  0  0  0  0  0
    7.6071   -0.3412  -17.9739 H   0  0  0  0  0  0  0  0  0  0  0  0
    5.2448    6.5465  -15.7932 H   0  0  0  0  0  0  0  0  0  0  0  0
    3.7006    7.4383  -16.0099 H   0  0  0  0  0  0  0  0  0  0  0  0
    5.6833    4.5647  -17.2240 H   0  0  0  0  0  0  0  0  0  0  0  0
    6.4030    1.3230  -15.7141 H   0  0  0  0  0  0  0  0  0  0  0  0
    9.6403   -3.7911  -18.3359 H   0  0  0  0  0  0  0  0  0  0  0  0
    9.7253   -2.2850  -17.3609 H   0  0  0  0  0  0  0  0  0  0  0  0
    9.7026   -3.8842  -16.5432 H   0  0  0  0  0  0  0  0  0  0  0  0
    4.4699    2.6323  -21.3129 H   0  0  0  0  0  0  0  0  0  0  0  0
    3.7315    1.7223  -19.9514 H   0  0  0  0  0  0  0  0  0  0  0  0
    8.0520    7.7032  -19.3960 H   0  0  0  0  0  0  0  0  0  0  0  0
    7.6166    9.0160  -18.2498 H   0  0  0  0  0  0  0  0  0  0  0  0
    7.4185   -2.6854  -18.2081 H   0  0  0  0  0  0  0  0  0  0  0  0
    7.3958   -4.2847  -17.3904 H   0  0  0  0  0  0  0  0  0  0  0  0
    6.1867   -2.7628  -15.9631 H   0  0  0  0  0  0  0  0  0  0  0  0
    7.7808   -3.0435  -15.1842 H   0  0  0  0  0  0  0  0  0  0  0  0
    3.6561    3.5893  -18.3399 H   0  0  0  0  0  0  0  0  0  0  0  0
    6.2955    3.4194  -19.8750 H   0  0  0  0  0  0  0  0  0  0  0  0
    5.1387    1.5291  -17.8714 H   0  0  0  0  0  0  0  0  0  0  0  0
    3.4776    5.2671  -16.8392 H   0  0  0  0  0  0  0  0  0  0  0  0
    3.4826    6.2846  -18.1164 H   0  0  0  0  0  0  0  0  0  0  0  0
    3.4356    4.1211  -20.6015 H   0  0  0  0  0  0  0  0  0  0  0  0
  1  2  2  0
  1  3  1  0
  2  4  1  0
  3  5  2  0
  4  9  2  0
  5  9  1  0
  6 10  2  0
  6 11  1  0
  7 10  1  0
  7 12  2  0
  8 11  2  0
  8 12  1  0
  9 24  1  0
 10 23  1  0
 11 37  1  0
 12 38  1  0
 13 16  1  0
 13 30  1  0
 13 33  2  0
 14 20  1  0
 14 29  1  0
 14 34  2  0
 15 21  1  0
 15 31  1  0
 15 35  2  0
 16 21  1  0
 17 19  1  0
 17 29  1  0
 18 21  1  0
 18 30  1  0
 19 32  1  0
 20 27  1  0
 20 32  1  0
 22 25  1  0
 23 28  1  0
 24 29  1  0
 25 26  1  0
 26 30  1  0
 27 28  1  0
 27 36  1  0
 28 31  1  0
  1 39  1  0
  2 40  1  0
  3 41  1  0
  4 42  1  0
  5 43  1  0
  6 44  1  0
  7 45  1  0
  8 46  1  0
 16 47  1  0
 16 48  1  0
 17 49  1  0
 17 50  1  0
 18 51  1  0
 18 52  1  0
 19 53  1  0
 19 54  1  0
 20 55  1  1
 21 56  1  1
 22 57  1  0
 22 58  1  0
 22 59  1  0
 23 60  1  0
 23 61  1  0
 24 62  1  0
 24 63  1  0
 25 64  1  0
 25 65  1  0
 26 66  1  0
 26 67  1  0
 27 68  1  1
 28 69  1  6
 31 70  1  0
 32 71  1  0
 32 72  1  0
 36 73  1  0
M  CHG  1  32   1
M  END
>  <OMEGA_C>  (57) 
YXyfQHMlJUEJhbDBQWynQHlRL0EhqKbB0iyvQNpYEEELZ7LBnBa/QJC5JEGDrZ7Bo/zGQIPABUHg
cKrBgRvZQMdChD9stqrBYMehQL5b3b6GZaPBmDPkQPd4sL9rSqrB7E/PQB0BEEGhkqDBy4ywQKwN
XD8T9aXBxgnzQFh0rb30y6zBx467QCuExr8el6XBMaUHQZra6L7843PBycHDQK7RwUBL6ZXBKobh
QN5+DEDrlozBGG0IQe6WgT/7xXvB9T2oQAyB/0CzS4vBdpDgQEB/br6MaYjBN1KRQGen3kCKQYTB
eyWkQBFOo0CWDpDBDjLmQLSRkz+hrYPBTisVQfq2U8AQM4vBermVQErVA0AqLaPBCg7nQH17BEFY
uJfBSSj5QNp3UMAzv4rBPJ7oQB52JcAeWYDB7HKOQBlmgkC6ZJfB5GGtQL7VPUByH5vB/HXJQASv
60BeJZLBs17wQNdwkL84HYDBC0O6QByjCkBA2JHBL06BQHo+vEDbH4vBCfcRQbQaar+B72TB4R/b
QJ8JtEDg/pzBpmv9QIhvQUAOl47BXNF2QP0bmEBrP6DBkjANQaT5sj0wE7HBPoWtQKpyMsDDBaPB
sFuNQN5MLUF9pLbBjVabQC1AP0GTOKXBGPCoQPiICEEk87nBmNfEQHR4LEHrFpfBeubSQC2S60Ad
36vBpzXkQHeHAUB9v6zBareCQOccEL+KwZ/BbPz3QOpJD8AM+avBJ5IJQUhx2z+BRW7BivIVQf9u
lj8EXoPB1XmQQM+hB0FjdJDBZYS3QA2/C0EqHIbBNae+QGLO3b7lJIrBmW3zQKKzrr6Qyo/BotWn
QDB90UAXsXzBHtdsQDMG7kBHFIDBUN21QLkRkkCzyonBuOXMQDlYqT/kbHvBtz4aQbehcsDhr5LB
rZobQaE8EsAX44rBwz0bQR2WeMBkWITBegmPQOx2KEDDgKrBj9FuQLd03D+QnJ/B7tQAQbuA9kDv
KpvBk7vzQH9BEEGG/5HBkmTtQF3eK8A5qpHBv6rsQOwbicCGH4vBivnFQGjSMMANaX/BRfz4QErJ
QsBv8nLBFP1pQMW3ZUAPuJLBFHXJQEfXWkD2/57BgHCkQNS5wz+J+I7BsJFeQHiMqECVtobBneNe
QJUbyUBq7pDBneBbQODfg0DGz6TBWLGjQD2JJ0EMxq/BMH+yQDKnEkGM37HBK/yqQFD4MEHCsqXB
JNHIQLE8B0FO66nBGCfBQIqOJUFwup3BmenVQIwahj92GKvBAo+gQKBo477aO6PBG1HiQDjprb/y
yKrByYvQQEHBEEGo15/BzyuuQDgYWz+k8qXB4QrwQGCCcL2rc63B/nu6QPhxxr9Gu6XBnB4IQQQt
Pb4HvHLBNnLCQGXywUA7tZXBXKrhQOkXDUDh0I3BKfgJQRJvkz98y37B4HinQGU6/0Ce1IrB4KHb
QOhGCb6/wYbByoWQQIUB3kC95oPBPi+iQLxfo0ACE5DBnkXnQGAepz+gBoTB75LAQNLMXcDU5YrB
L5SSQEnIAkCQIKPBb/3mQAxoBEEhDZfBPjTmQCIgV8BU/4LBuE3fQBuQD8CULXXBkRCMQOdcg0DE
ppfB8IiqQOUdP0B+cJvBX3DIQC6S60C3xpHBhfTuQKF7a78KTHzBa624QPUcDkCQGpLBYKh/QJpd
vEAV7orBj5ISQZcvAL/Y8WLB2kTaQLYotEAAspzBSj3+QDqHPEDGA5HBi0J0QCbmmUBzgqDB6BsL
QR7aAT68ULLBdAKtQAUWM8BuVKPB6L6SQLdQMEFG5LXBA7qsQAhnC0EAlbnBT5CfQJX1QEFnF6TB
nAfUQIJq7kDVhKvBZ2TGQP27LEGR+pXBRz3gQBrIAkDxOK3BhkSCQPMxF78TPp/Bvlb2QLpbDcB8
nazBd9oNQUMp/T/71nPBCR0WQeOrjD++wIXBH7ePQCm3B0Hd54/B+vW2QC9oC0HNkYXBVrK4QCgO
ib7e4YbBhwfpQGDj174BkI7BaCinQKoU0ED+QnzBRvNrQJBG7UBcIH/BVp2zQOoskUAO7onBdLXR
QM1s1D99WHvBCe3GQPCiiMD9r5DBUACjQB8nbMCReYbBrOO8QGS6IMBdLY/Bc2mKQPLXJUDheqrB
tCFqQIRc2D9vQJ/B6q8AQdUZ9kC3hZrBh9jzQPixD0EvHZHBobbpQEhUisA8oH3B/swBQdU7ScDq
g4fBU9i8QP2KCsChz3HBlWXwQF5fIcBoc2bBPg9kQEgWaEBDIpPB1xfGQDerW0BRl5/B5rCiQLK7
0z9jdo7B4mBbQAWIqEC0lobBFulbQKj2yUD+oJDBMflYQC0yhkB1L6XB+fKnQF0uJ0GgJa/BG4Wz
QNXoMEHzZaXBQuyxQKOEEUFCArHBbffIQGv8JEGnfp3B7cHHQKCfBUHfJ6nBVP3TQA5rdz8nE6vB
2lueQEt1/L7V86LBHLLfQN/MuL+4c6rBT43TQL9fD0EPYJ/BHkSsQO5FTD8v3aXBqa3tQHA1Hb5F
Wa3BeBK4QMRbzr8MPKXBPWAKQaDL072D3nTB5rnCQPCev0B1hZXBxZbdQHBrFUC1yozBBQ0HQdkF
rz9/DHvBJFCpQBwr/UDjhorBs7roQND7Sr1hpYnBXWOQQCVx3EC23oPBZg6hQOMBokCqH5DB3Szl
QLbOpT/AGITBixrWQL0+jMCMd4LBegWRQPsNAEB7KKPBoV3pQGicAkFHoZbBBOzbQO+eO8DPmH3B
0EoCQUYRFcBn0oPBfuOKQF28gkAt4ZfB2wKpQCznPEAwhJvBHPvJQGy56EB5bJHBBuIBQXw3X78s
0ILBYKK2QE48DUCcDZLBbz5+QKHju0BAIIvBMuATQQbzAb9r/WTBJ0naQMx/sUDxhZzBOLf5QKbb
RkDvv4/BX9d0QEvXmUAX0KDBkeMJQaA9MDxrTbLBT/mqQIgnNsAURaLBgmuXQCNXMEFjMrXBjOyr
QLOHQUF8/aPBidKoQMYJCkEtdbjBpVXRQAtmLEHF+ZXBBoTPQEAR6kBDmarBMqfeQOw5+j+NUK3B
ofB/QAZ2H7+H+J7BAFrzQC9xE8AkO6zB5vUEQe4JAEBtz2zByH8UQT+S3z99UoLB+6qSQO9iB0G8
oI/B+165QNbSCUG9EoXBUujIQK/OAb/Sg4rBFm/3QPPzjD3IlZHBzeClQJdPzUBHCHzBEQpsQBp7
7EDdRn/Bo2KxQDwuj0C16InBEIHJQOv+oz9CUX3B/vq4QDucmcBMpn3BoyvTQFEvjcC1O4vBQf7x
QCxGn8DK9H/BiCeJQOqYIkDKkarBw6pmQF2p1D+kSZ/Bl50BQU/k8UAeIprB/9P2QCKiDUHXppDB
fPS/QPbHFcD5SIHBGsfeQKz1OcBSD2zBTXcQQcthLsA1WX/B6wUDQV2PJsCMVozB6StgQAfIZ0Ar
jJPBBNDEQMR7WEBXq5/B9+6hQLBCxT/XE4/BD51XQDCBqECd+obBZL5cQFp5ykCj4pDBkoJZQB2Q
hkAYmKXB6r2gQFBgKkFn7a3BIt2tQIPCFUGNGrHB2JurQAwoMkHNs6PB5DDGQNn7CEEgF6rBRr3D
QGZfJUF0qpzBIqPUQCRXiD+/9avBHkOhQDaE8L6pz6PBaifjQCM1qr8Qs6vBKHrRQGjVEEFo3Z/B
HHytQPAjVz+jnqbBZIDvQJgrmbwJda7BSBS8QDLcxr92WqbBcTMKQYZDqj1QiXHBQhDCQAS8wEBo
x5bBTLXeQKCFEEB7ao3B/RoHQUQ3vj9n/XrBAFSuQMm4/EBbjYrBtovmQAbxu722cYfBUBiVQBrh
20Cr+oPB8CKjQJhlokD9qJDBGsnkQN9VrD9ewYPBNZoaQZyWesB7VYjB6nyRQNx4AECkg6PBPszp
QH7qAkF+A5jBkBERQVVqIMAXz4jB7IsBQQ4UEMCPvn7B5paLQITlgUBfz5fBxoOpQCy8O0Ajt5vB
ftDLQMfn6ED6bJLBQjb6QEa5T79VCn3B3F63QOa3CUCkdpLBQT+CQPQVvEACNYvBRnIWQduYQL5v
22LB0LXUQKJWtEDx1Z7BRoX6QCaSQkBMaZDBk4RwQBLXl0AckqDBx6YKQR93Tj7xabPBpIuwQFKr
M8AdhqPBwFaOQLs4NEHuVbPBc0SlQJzBD0FP6rjBR2uhQJruQUG6Q6HBVDrQQENd8kCOhqzBXMPL
QMtKK0HkzJTBd/PdQNJvBEBdIK7B/1aDQO0xJL82tp/Bw6P3QEN2CsDdrq3Bgo4FQcxmD0AjR27B
QHsUQQrA4D+UyoLBUnWXQD+JCEFS5Y7Bz0DBQGBGCEHwB4XBpSzGQPYp876CConBEi36QGsGPr7F
tY7BALuqQHTRy0A9onzBLwF3QEI57ECoDn/BzNC1QHehkED/qorBxYzJQI7TvD+ijXzBt4QlQaP5
gcALI4/BXn4jQbk/gcDWzYDB06QNQVkQlcCJt4jB/cmIQP66JECuvKrBepFoQPzY0D/doJ/B9tcA
QQS38kBOXZzBLw/6QCklDUFQHpLBgyIeQVSp4r/0dojB90gIQen1GMCnYJDBAv3kQFrJMsDnxoDB
yeIIQS3HJsDByW/BKrNkQJ/0ZUC18JLBOkTFQGwSWEAgz5/Bc7GiQJfTvT/JhY/BZuVeQGiJqEAU
9obBHmhhQB5Gy0A+t5DBAmpTQLrcg0Dn/qTB

>  <OMEGA_E>  (57) 
AL8TP0r4FD+WXCA/lOQJPw==

>  <OMEGA_NBR>  (57) 
      4892

$$$$
50147881
     RDKit          3D

 76 79  0  0  1  0  0  0  0  0999 V2000
    4.9826   10.3035  -22.0587 C   0  0  0  0  0  0  0  0  0  0  0  0
    5.2214   10.9432  -20.8260 C   0  0  0  0  0  0  0  0  0  0  0  0
    5.4782    9.0044  -22.2877 C   0  0  0  0  0  0  0  0  0  0  0  0
    5.9559   10.2855  -19.8220 C   0  0  0  0  0  0  0  0  0  0  0  0
    6.2181    8.3469  -21.2861 C   0  0  0  0  0  0  0  0  0  0  0  0
    6.8016    1.0287  -21.3152 C   0  0  0  0  0  0  0  0  0  0  0  0
    5.0876   -0.4547  -20.4016 C   0  0  0  0  0  0  0  0  0  0  0  0
    7.1719   -1.3800  -21.2662 C   0  0  0  0  0  0  0  0  0  0  0  0
    6.4682    8.9913  -20.0523 C   0  0  0  0  0  0  0  0  0  0  0  0
    5.5346    0.8425  -20.7215 C   0  0  0  0  0  0  0  0  0  0  0  0
    7.6226   -0.0815  -21.5786 C   0  0  0  0  0  0  0  0  0  0  0  0
    5.9041   -1.5651  -20.6781 C   0  0  0  0  0  0  0  0  0  0  0  0
    8.5197   -0.1804  -15.0970 C   0  0  0  0  0  0  0  0  0  0  0  0
    6.1098    6.0493  -18.7216 C   0  0  0  0  0  0  0  0  0  0  0  0
    7.0572    2.2675  -17.5893 C   0  0  0  0  0  0  0  0  0  0  0  0
    8.5611    1.2282  -15.7129 C   0  0  0  0  0  0  0  0  0  0  0  0
    5.2407    7.9711  -17.3914 C   0  0  0  0  0  0  0  0  0  0  0  0
    7.0389   -0.1285  -16.9168 C   0  0  0  0  0  0  0  0  0  0  0  0
    4.5237    6.9386  -16.5188 C   0  0  0  0  0  0  0  0  0  0  0  0
    5.1108    5.0941  -18.0067 C   0  0  2  0  0  0  0  0  0  0  0  0
    7.2179    1.2968  -16.4177 C   0  0  2  0  0  0  0  0  0  0  0  0
    9.4161   -3.6701  -17.3557 C   0  0  0  0  0  0  0  0  0  0  0  0
    4.6742    2.0341  -20.3863 C   0  0  0  0  0  0  0  0  0  0  0  0
    7.2063    8.2765  -18.9393 C   0  0  0  0  0  0  0  0  0  0  0  0
    8.0491   -3.2440  -17.9202 C   0  0  0  0  0  0  0  0  0  0  0  0
    6.9271   -3.2068  -16.8454 C   0  0  0  0  0  0  0  0  0  0  0  0
    7.2626   -2.3517  -15.5896 C   0  0  0  0  0  0  0  0  0  0  0  0
    4.4359    4.0748  -18.9395 C   0  0  2  0  0  0  0  0  0  0  0  0
    5.4057    2.9687  -19.4033 C   0  0  1  0  0  0  0  0  0  0  0  0
    6.2819    7.3572  -18.2474 N   0  0  0  0  0  0  0  0  0  0  0  0
    7.6918   -0.9734  -15.9111 N   0  0  0  0  0  0  0  0  0  0  0  0
    5.8295    2.1936  -18.2366 N   0  0  0  0  0  0  0  0  0  0  0  0
    4.0225    5.8707  -17.3866 N   0  0  0  0  0  0  0  0  0  0  0  0
    9.0952   -0.5285  -14.0729 O   0  0  0  0  0  0  0  0  0  0  0  0
    6.8555    5.6189  -19.5943 O   0  0  0  0  0  0  0  0  0  0  0  0
    7.9178    3.0916  -17.8844 O   0  0  0  0  0  0  0  0  0  0  0  0
    3.8558    4.7602  -20.0489 O   0  0  0  0  0  0  0  0  0  0  0  0
    8.8451    0.1005  -22.1259 F   0  0  0  0  0  0  0  0  0  0  0  0
    5.4741   -2.8081  -20.3677 F   0  0  0  0  0  0  0  0  0  0  0  0
    4.4192   10.8094  -22.8288 H   0  0  0  0  0  0  0  0  0  0  0  0
    4.8405   11.9387  -20.6518 H   0  0  0  0  0  0  0  0  0  0  0  0
    5.2906    8.5132  -23.2310 H   0  0  0  0  0  0  0  0  0  0  0  0
    6.1278   10.7723  -18.8734 H   0  0  0  0  0  0  0  0  0  0  0  0
    6.5948    7.3499  -21.4603 H   0  0  0  0  0  0  0  0  0  0  0  0
    7.1399    2.0231  -21.5667 H   0  0  0  0  0  0  0  0  0  0  0  0
    4.1192   -0.5959  -19.9447 H   0  0  0  0  0  0  0  0  0  0  0  0
    7.7985   -2.2339  -21.4775 H   0  0  0  0  0  0  0  0  0  0  0  0
    8.6463    2.0027  -14.9364 H   0  0  0  0  0  0  0  0  0  0  0  0
    9.3931    1.3300  -16.4251 H   0  0  0  0  0  0  0  0  0  0  0  0
    4.4991    8.4658  -18.0359 H   0  0  0  0  0  0  0  0  0  0  0  0
    5.7150    8.7182  -16.7380 H   0  0  0  0  0  0  0  0  0  0  0  0
    5.9705   -0.3782  -16.9955 H   0  0  0  0  0  0  0  0  0  0  0  0
    7.5186   -0.2565  -17.8983 H   0  0  0  0  0  0  0  0  0  0  0  0
    5.2269    6.5207  -15.7834 H   0  0  0  0  0  0  0  0  0  0  0  0
    3.6834    7.4154  -15.9929 H   0  0  0  0  0  0  0  0  0  0  0  0
    5.6572    4.5447  -17.2259 H   0  0  0  0  0  0  0  0  0  0  0  0
    6.4373    1.5118  -15.6730 H   0  0  0  0  0  0  0  0  0  0  0  0
   10.1617   -3.6756  -18.1644 H   0  0  0  0  0  0  0  0  0  0  0  0
    9.7275   -2.9605  -16.5749 H   0  0  0  0  0  0  0  0  0  0  0  0
    9.3362   -4.6786  -16.9239 H   0  0  0  0  0  0  0  0  0  0  0  0
    4.4459    2.5869  -21.3094 H   0  0  0  0  0  0  0  0  0  0  0  0
    3.7376    1.6863  -19.9260 H   0  0  0  0  0  0  0  0  0  0  0  0
    8.0439    7.7036  -19.3637 H   0  0  0  0  0  0  0  0  0  0  0  0
    7.5935    9.0155  -18.2224 H   0  0  0  0  0  0  0  0  0  0  0  0
    8.1488   -2.2391  -18.3563 H   0  0  0  0  0  0  0  0  0  0  0  0
    7.7575   -3.9572  -18.7053 H   0  0  0  0  0  0  0  0  0  0  0  0
    6.0201   -2.7929  -17.3102 H   0  0  0  0  0  0  0  0  0  0  0  0
    6.7325   -4.2383  -16.5164 H   0  0  0  0  0  0  0  0  0  0  0  0
    6.3655   -2.2979  -14.9553 H   0  0  0  0  0  0  0  0  0  0  0  0
    8.0734   -2.8486  -15.0366 H   0  0  0  0  0  0  0  0  0  0  0  0
    3.6335    3.5870  -18.3667 H   0  0  0  0  0  0  0  0  0  0  0  0
    6.2731    3.4244  -19.9032 H   0  0  0  0  0  0  0  0  0  0  0  0
    5.1665    1.5429  -17.8664 H   0  0  0  0  0  0  0  0  0  0  0  0
    3.4569    5.2523  -16.8411 H   0  0  0  0  0  0  0  0  0  0  0  0
    3.4666    6.2794  -18.1105 H   0  0  0  0  0  0  0  0  0  0  0  0
    3.4383    4.1322  -20.6266 H   0  0  0  0  0  0  0  0  0  0  0  0
  1  2  2  0
  1  3  1  0
  2  4  1  0
  3  5  2  0
  4  9  2  0
  5  9  1  0
  6 10  2  0
  6 11  1  0
  7 10  1  0
  7 12  2  0
  8 11  2  0
  8 12  1  0
  9 24  1  0
 10 23  1  0
 11 38  1  0
 12 39  1  0
 13 16  1  0
 13 31  1  0
 13 34  2  0
 14 20  1  0
 14 30  1  0
 14 35  2  0
 15 21  1  0
 15 32  1  0
 15 36  2  0
 16 21  1  0
 17 19  1  0
 17 30  1  0
 18 21  1  0
 18 31  1  0
 19 33  1  0
 20 28  1  0
 20 33  1  0
 22 25  1  0
 23 29  1  0
 24 30  1  0
 25 26  1  0
 26 27  1  0
 27 31  1  0
 28 29  1  0
 28 37  1  0
 29 32  1  0
  1 40  1  0
  2 41  1  0
  3 42  1  0
  4 43  1  0
  5 44  1  0
  6 45  1  0
  7 46  1  0
  8 47  1  0
 16 48  1  0
 16 49  1  0
 17 50  1  0
 17 51  1  0
 18 52  1  0
 18 53  1  0
 19 54  1  0
 19 55  1  0
 20 56  1  1
 21 57  1  1
 22 58  1  0
 22 59  1  0
 22 60  1  0
 23 61  1  0
 23 62  1  0
 24 63  1  0
 24 64  1  0
 25 65  1  0
 25 66  1  0
 26 67  1  0
 26 68  1  0
 27 69  1  0
 27 70  1  0
 28 71  1  1
 29 72  1  6
 32 73  1  0
 33 74  1  0
 33 75  1  0
 37 76  1  0
M  CHG  1  33   1
M  END
>  <OMEGA_C>  (58) 
ZHGfQEPbJEE5eLDBnhWnQFQXL0G0m6bBcU2vQDMSEEEcTbLB35a+QEKRJEF6k57BevrGQPyMBUH0
SarBrabZQOqtgz9uharBPs2iQAHU6L57NqPBdIDlQH+isL8ZIarBZfvOQF7cD0EXa6DBLhuxQByx
Vz+0xaXBCOzzQLz1pr3ioKzBme68QLJUyL+pbKXBpVAIQVrAOL5hjXHBhoPDQCmUwUDpxZXBidTh
QCsfEUDitozBNPoIQQs2nT/XZ3vBo7OnQF8T/0B/IYvBgz7hQPKTA76PVYfB4MGQQMgI3kCMJoTB
YYujQKsCo0C9DZDB3vjmQBH9pT9yV4PBbagWQS3iasBo2IrBBZOVQNUuAkAVF6PBF5rmQKlsBEHI
g5fBFckAQVmeT8B4XI/B7ardQDI8TcBpw4bBamfoQHuCFsD3bnnBJfONQMNkgkAWhJfBqPusQHP/
PUDdOZvBMAXJQBxu60Cx+pHBGSP2QKwyeb8LlH7BBou6QFFkDECB5JHBIriAQCzdu0DUF4vBvYUR
QQBJB79lKmHBEWDbQFvOs0AVwZzBXF79QCvdRUAnE4/BnsV2QNtTmEA5ZKDBuYUNQUDUzT3xAbHB
eCuvQFG3M8Ai8aLBs2mNQHnzLEFOobbBc+WaQMgEP0HTNqXB8UypQDM2CEEe2bnBDRfEQElbLEG7
/JbBkAjTQP0x60CrrqvBH3rkQPB5AUCRiKzBRdCDQAqKGL/Sjp/BE435QM73DsD50avBNVcKQews
AECV+27BTUoWQeU7qj+oZoPBx/iPQMlzB0F5SZDBjuG2QKd9C0Fo54XBWA6/QBaowb6+9ofBo5jw
QGVWg77IL4/BjEKnQMGp0ECmiHzBPL1rQE5L7UDw4n/BbAe1QHFukUCfzonBhv7NQHaBwT/IxHrB
fpYiQTY9a8CnUJHB36MbQVV5PcBgmYTBEWEVQRW3lcAUZIfByESOQHqQJUC/earB3zRvQPDX1z+M
aJ/B+7MAQcuD9kDz6JrB+v3yQJg/EEGLx5HBl2ECQeNND8Cp2ZLBkj34QLhCfcBdpJXBzKTAQP2+
MsBXe4rB0HDXQMSfh8CiIYTBPrLLQJMQE8AJSW/BeCwBQeVPNsDylXDB6YpoQOGRZUDn7pLBQ73I
QBIqW0DIOZ/BH1SlQAp9xT9l7o7BPT5dQKoSqECCuobBfd1dQPDwyEBl4pDBhgxcQNM6hEBKA6XB
qN2mQJ36JUFVb6/BFTK1QMj/EEHgerHBQAmvQEKfL0Gbc6XBj8TLQDyrBUF2jKnBQXvFQKxLJEHp
gJ3BWFbUQA41gj/izarBbcOaQIh42r7wWqTBmxjdQOHAs7+eBqvBuDTUQERaD0Eui5/BnRCrQOyh
XD/lXabBv3ztQED/670YA63BPqSzQH1ox786wqbBxdcIQWC7ajwZMHHBcXjDQLFawEA9lJXBN7He
QHYmEECecY3BtWcHQUuasz9ml3vB8BiqQLX+/UA+n4rBDpfkQAzaBL7xfIfBRSeRQOVv3UDY74PB
BOyhQJ21okB2HZDBis3kQDLUqD9c34PBQ96hQDJUh8A+L43BaZ6QQIWYBEC8gqPBdTHqQBn5AkGV
spbBKl/NQPSuYcBL+YvBU2HTQMZlRcBmRIDB8s/9QJiRFMD8O33BPlGLQChzg0AxxZfB2xipQGh7
PkB0o5vB/97KQMlv6UCkd5HBSV/3QMZyXL817XzBqve2QCx/C0DYaJLBNvN/QMe1vEB3JIvBlA8U
QSRcir5sxGHBQPLaQJc6skD7mJzBIDr6QELHQ0AOKZDBsMRzQOrFmkBvkaDB27MKQXg2FD1PALHB
Ka6jQHivMsAD86TBypmVQOetLkGGhrXBrt2uQOecCUEBIbnBMBGkQEW2P0FP5qPBaKbWQAwi60A8
G6vBF3LLQBqmK0EO1JXBGI/gQNVRAEDAf6zBcGJ2QIGVC7+I+KDBQ0/wQAuaEcA7xqzBGu8GQYuq
DEDAbm/BpusUQcclyj/pQIPBfXyTQFK5B0HNw4/BgRG6QP9PCkEHMYXBTLzDQD8J8r5rDYnBXRD4
QNEyhL4Mv47BXpqmQDV3zkC5GHzBY3ptQHKQ7UAdfX/BaFSyQMD/j0Az5InBIEPKQPbVvD8qdXzB
yIedQD5zkcD5ipXBBtigQPCKo8DE7YfBZRqIQGApYsAD8orBP3WJQC73KEBj1KrBAQ9lQEgc3z8K
x5/BtSsCQWO18kCbGZrBTUj3QPw3DkGQxZDBZCXnQD0Vh8DoNY7Bw2fOQPo9KcAoOpHB4qK4QLVb
G8DfAXzBJVzTQE59fsCYPHbBCP8FQVNsKMDN6G3B4OUJQdnFJMBHL4XBK+VhQDbmaEC1TpPBB/PE
QHqLWkASuJ/BMu6hQNY2wz8pbI/BQ19ZQPxlqUB394bBpmdeQB0ly0DX65DBMs5XQPuRh0ChT6XB
8TuoQC8cJ0EK9K/BGl+vQOK1MEEb6aXB16S2QLEbEkH16bHBNPnEQAVYJUHS1J3Bh2bMQEq9BkHS
2anBLI3VQMBTjT802KrBkEebQIafq74kuqTBeabdQMbnqL+LTqvBcPXTQPJqEEFNzZ/B6AmsQBiz
cz9Qj6bBZHjuQEDuAL2DHa3BN++zQJwVvL9eMKfBt2IFQTPSCL9Zj3bBnB/DQMx7wkBSpZXBonLa
QHgMCkAtpYzBZ5kDQfKadj85UnvBuASpQAtBAEED8YrBMgviQKp+o77O2orB4D2QQO8e4EDCKoTB
GoWhQHHxpEDoKJDBJnjfQKwVgD+brYTBitSMQLc8dsAkNorBzcKRQEiGCkAbvKPBTJPpQIsbBEFg
35bBBQ28QOnnacAlOI3BAN7XQGHwV8AXRoPBX+UAQQ3QKcDrcobBjjGLQBychUCzz5fBjP2oQKK2
QUCwUpvBriHKQH/R60DRp5HBGYf+QJoqmb+iqYTBImWzQI2cDEDL+5HB2rZ+QLP7vkDMSovB+DML
QY72hL9qq2XBLLXaQPU0tEDcn5zBYfb3QDENO0A+xI7B5ot1QOa6nEA/xqDBnEMLQVwt7T0xBrHB
nmijQJv6LMB7pKXBNrSXQEfbL0FgJ7bBgUKkQPbLQEHjaaTBmACxQKG7CkFcmbnBQRfKQC2nLEGI
G5bBClLXQK887UDEV6vBGCbiQAPaBUA4YKzBsRN3QMqS5r6Rb6HBjrzwQNxODMDJE63BclsBQbEY
xj9IlGzBY8ERQRnBqj+M94HBEF2SQNW1CEEhL5DBMaa4QDnQC0H+k4XBrxLCQD12Rb9YjIvBV0bv
QHbAF77F5JLBb72lQJKP0UBXc3zByGBrQFVE8EC5CIDBY9CxQMZmkkDX4onBIgPDQG9QeT+UAX/B
8wx0QOBwgcAJe5HBDNCJQG9elsBEsYTBlM6AQH7tO8BxTYbBEnGMQJ7uMEAq/arBXYZlQE5V6z8z
e6DBC+kBQXTj9EAhMprBonz2QPFpD0F/85DB3r3HQNUsksDkKJHBZby+QEqKM8AQxZLBY9HFQEc/
L8D+X3vB+MXfQPB5isAgtX7BGB8OQbRVQ8AEmYHBeiYEQZq7NcDE947Bw4VgQEpgbkCzcJPBDlHG
QK6VXEBh2J7BCi6cQFpJzT88MY/BjjlYQMHBq0BGFIfB5y5dQJ4PzUCGIJHBFd5ZQLF4iUB7h6XB
Wv+qQC8ZJkH+8K7BdL+4QCkWEUFrJrHB40OyQN0hL0FBxqTBIQvOQD0nBUE4N6nB81jHQJ4wI0E8
0ZzBnp/RQMhpiT/T8avBinifQFeRBb/GE6TB/MPhQOi1p79RP6zB/LrVQB9CDkG3CZ/BbtuqQDLA
Tj9niabBEiftQGS2jjzstq7B5uy6QNYfyr9+76bBxT0LQbgVmT5dKXHBUqfCQHTfvUBZc5XBhM3e
QK8bFUC1w43BSw8JQSuk0j/wr3zBPMOqQGsO+0CJJIrBXiTiQIKqqD0L5oXBbpyRQChY2kCMioPB
D82gQEhXoEDaDZDBGf3lQKarxj9EcoPBrcLeQA7bk8Bhx4jB4ECOQN6M+T+DF6PBGuHqQBtZAUHk
P5bB8NcGQVKvhMAU7IfBgm0IQRBCJ8BEK4fBLXj7QDlVA8DMsnnBPrKJQIyVgUAB0JfBRB2nQM9q
OkCvvZvBoO/KQEB55kBSJ5HBXfb4QFC6Fr+aenrB4tm2QH/yCkA7dZLBrAl/QMl4ukDI3YrB0YIX
QSIImD2KTWLBH5jZQMTxr0DkmZzB8z76QPfNREB+dZHB0RRyQDxUmUDZnaDBClUJQY65jz7iq7PB
/l2wQAh4NsDAZ6TBFN+aQNdJL0EbDLXBhPSyQM8iCkE37bjB+6anQEY6P0F3FqPBuIPYQBQS6kBg
56rBxobMQJQPKkEE/5TBBh/aQIa/BUAm9K3BtbeBQNeAOr88AaDB9872QJrWB8Bgba7Bzd4JQe/e
HkB6SnHBbZIVQUgi4j/JdITBnDaUQOiZBkGYJo/BnEe7QJ6HCEFSp4TBK1fAQBmbZb7cBYbBRPjw
QPH1GL5VqY3B6xqnQPGKykCumXvBK1tvQNKL6kBCXX7BIjGxQJwGjUC08YnBvorNQLpt6z/BF3vB
6OPdQLv7tsCWTInBgO3MQPpYicA4qYHBBQrQQIsHhsB9/I/BbCmDQJS6H0CiNarBwgFlQCIWxj+n
vJ7BDloCQZMh70CUsJnBikr4QFxFDEEDOJDBDhUOQb/UksABuYDBUaMPQVCDj8BGDI/BWWwZQRj3
FMDaK4fB13MAQUQSC8CMLY7BP/faQDfAHcAFR3jBr0MHQX+NFsAZtGvB+QJeQD6qZUDmapPBJA/C
QI0hVkBYOKDBZzWjQKQgvz+WOI/BMCtYQPYnp0Dwu4bBbn5dQAumyUB0hpDBL6BVQFx4hkBcZqXB
SvegQJgxJ0F7pbDBWvevQOtKEkFxm7LBINWoQN0PMUHps6bBAATHQC9JB0E9pKrB9Me/QO4RJkHv
uZ7BgjLYQKRejz9kF6vBEF2fQHIkp76jQqTBKFbhQBxopr+yKavBXlLPQG4+EUEPs6DBIkivQCC/
dT8dhabBolnxQEDVHrzdVK3Bmky4QJhtur+DoqbBuSQIQWchCL/OdHTBeqzCQByiw0DCEJbBUqjd
QCyGBUCxVozBPMEEQc78dD88xnnBcgGnQHvZAEF6nYvBUD3tQJgyvL6ProrBEAaQQLwk4UD7f4TB
oj6jQD8qpUBjGZDBbtLjQFIbaD/9ioTBhJm0QP7dXcAyv4XBeEKVQLiyCkDInqPB3HPmQCZWBUF2
35fBEMTWQEKahcBlj4zBQj79QF7fUcCXuY/BFfUJQYVlJcCCF4bBFHyNQFUShEAXWpfBPBysQJfh
P0D87JrBJlzIQPug7UBHYJLBJAUAQcj6pb/JzoLBcq62QHEnCEABw5HBRkOAQIA6vkAPP4vBeLIQ
QYO0c79zJWTBfpzZQCTNtUDYO53Bxvv5QLJtOkCj8I3BAQ52QHTqmUDLSqDBW34MQegKFz7XeLHB
GgKpQGUnLMAdbaTBdWyPQACoL0FrxbbBSsmpQJu3CkGqN7rBZz+dQEUQQUEDNKXBj1nSQAl47kCu
IKzBO4LFQM+WLUF+FJfBSyvkQKbzBkC43azBshOAQJdE475VtqDB7YT0QBHZCsC1+KzBo9oAQTit
xD8zVWvBOvoSQQOwsT+XwYDBtEqPQKeWCEGR15DBeSm2QBL6DEE/fIbB4ZLPQKduSb/DBo7B2AUC
QWepLb77MZHBn3KmQHxr1EB4BH3BEfFpQMup8ECLa4DBDQy1QDM6lEBZzInBSDDGQAGORT/81X/B
oqSaQAOChcCO4YPBKCrDQJD9RsDLhnzBeJCnQCUnJ8BUOYrBRLmQQIeIMkBsyarBC81rQF/I6z+8
laDBVGcAQbrn90DTVpvBaW3zQIflEEGLFZLB2wnjQNAJocDH+ofBK3DHQJsekcC18JPBR3UKQav5
ecDv4ZPBdZ7xQO/YH8BCMZXB3IQJQUpNUcDIbn7BF7AaQXLrGMCrVYjBsUxnQNgzakARsZLB6GXJ
QIowXEDWSZ7BfLmfQGgawT+JM4/Bl7hcQKquqkCYw4bBVKZcQPqlykA7GZHB+9ZaQLPIhUDs26TB
So+oQGCoJkE5Uq/BPj+3QKXDEUE3cLHBAz+vQODnL0FmLaXBlM7MQLwlBkGdbanBZpfEQAhHJEFh
JZ3BqNTUQHKQdj+k0arBawigQPBZ/L6RU6LBRPPhQObkt7/rkKnBpdLTQM1zD0ElRJ/BLxutQDkr
Sz87maXBLSzvQMRMG74zzqzBCni6QHiEzb/YSaTBNJQMQawpA75up3jBtFfCQKQUwECEe5XBbDXd
QDfPFEDSFY3BxpUIQd5nqj+tRX7BFAGpQMgr/UDWUorB6cPjQMRbq70Il4nBW0mQQLoo3EAdtYPB
ZbWgQBA4okCWIJDBnHflQNKhpT8EaITBksbqQCJSMMACo1nBRDCRQDg//z+MJqPB0C3pQB/ZAkGC
ZJbByKjJQE9NH8D1bGvBPSHYQK0CQsA3xIDBJTwBQe3OGMAJq4TBAWOKQL4Xg0CL7ZfBCGmoQM95
PUCKgZvBFKbJQI4H6UBwSJHB3LEAQSjWar8FjoPBqJq1QOSdDkCg+pHB98N9QEjeu0D6BIvB4aoZ
QfgG974vPGvBk+jZQKAxskAsg5zBAR75QJAeRkBaNZDB57R0QH4ymkAv5aDBZ5sKQUD8RDx8yrHB
jEWuQM5PNcDc7qDBcyqYQMKWL0F0erXBdvixQPqoCkEBNLnBD/2jQPrrP0GSkKPBYP3XQAU+7EBA
DKvBh1LJQHRPK0HWV5XBA//eQG9e+T9lSa3ByreBQP7KH78YUJ7BoxX2QHW3EsAAIavBxV0IQa+2
+j9A0W/BrtEUQSyA2j/hs4TBaDuSQB9sB0G/X4/BdA65QPDFCUGi14TBLSrDQBoo/b7+H4nBvLrt
QPYRvbwfBJLBQfClQLTTzEAj2XvBdQFsQFT/60D+yn7BFyqxQJQsj0Cy+YnBmHDMQJL+rj/0fXzB
DdveQCZwFsCjZErB7ervQFisdcD8CljBT5gEQVEBEcARyV3BxrWJQHZFIUCfpqrBcaRmQIt/0z+H
YZ/BlbcBQZR/8kDgwZnBVQz2QHf6DUH8YZDBQF6rQCR9PsAWAGfB8aPEQDuks78rvmzBo8XcQK/O
g8CMI4DBXei+QGtoNMApqobBUZEOQZI7MsD2w3/BZbIDQcYxKcAuI43BasxeQOvWaECHoZPB3GbE
QErwWEA9l5/BTkigQG1nzT+AtY7BiFtXQElOqEB25IbBb/pbQJWpykAJuJDBHUZZQKn5hkB5rqXB
bOGgQHAPJUHEZbDB/nKwQPA8EEFGR7LB7qeoQCMsL0HwgqbB5PLHQFeNBUG1SarBkQvAQFB/JEEI
gp7BCoDYQMgzhT+D1KrBwTiiQNTn6b5/cKPBKMjkQC7crr9mk6rBdxfQQPG8D0GxZKDBJTKwQPU5
WD/a+qXBcNvyQIg+gr0CEK3B9ny8QKzTx78IwKXBWvEHQfynR77qlnHBoIzDQDQpwUAPypXBObbh
QIChD0CX4ozBBQkJQY6zmT/G2nvBIeqnQIrt/kAFPovB86LgQJxYF77fYIfBDPeQQDAo3kCsL4TB
ao+jQNy1okAfBZDBSfXmQODBoz9lfIPB0xAXQQRsZsCgeIrB0LCUQEr4AUCfIKPBXU/nQDEVBEH3
fpfBkAMBQTXEUMAaQo/B5pbdQDWdTsAey4bBt3PnQLhfF8B2c3nBRrKNQHsqgkBPdpfBsnGsQEVD
PUAiQpvBVkzJQLkA60ADA5LBgV/1QMVffb9mmH7BZUW6QI0NC0BZ/5HBCNiAQBu1u0BwCYvBN9QQ
QSHwB7839mDBNzbbQFBIs0CVzJzBHAz9QFfYREAbOY/BKUZ2QM5TmECXTaDBrOcMQVLkAz66gbHB
wz+vQDqqM8CsMKPBb/iOQP1GLUEQirbBOVyqQAZ6CEGm2LnBA6mcQDEfP0GHE6XB08LTQPwh60Cg
t6vB+LjFQOo1LEFo6JbBoxPjQC5xAkD20qzBL2ODQDsZG79FuZ/BaeL4QAvLDcBwXqzBWb0KQcR7
/j/Orm/BfUoWQaPWoj8esIPBPDaQQJk/B0GVdJDB5gS3QMWKC0H0EobB3Fm+QLfQxb7C84fBfczv
QDBYlL4TPY/BSHunQID90EDgjXzBYjhsQBaa7UASAoDBrBO1QGMWkUBuyYnBEEPOQDHIwD9+93rB
BSgjQYTdZsCm3ZDB8V0bQSoCNsCJdITBw2wWQZnuksCMq4bB2f6MQMrjJUB7cqrBotdtQHmV1j88
Yp/BXfcAQXaQ9UDA45rB4OnzQDTID0HUuZHBrfsBQfuDEcBxF5PBABX6QIGvgMB0TpXBA7PAQLi0
NMCIo4rBy3TXQFFRiMCkJoTB2FDKQFm0E8A0nm/BPoIAQVTsNsARR3DBdgdoQKNQZUD+25LBJCPI
QNVUWkDbS5/BYCylQNhFwj8SC4/B19FdQM8FqEDEmYbBzbtdQK2QyEB20pDBfSpbQBhfhECF7aTB

>  <OMEGA_E>  (58) 
1N0BP8xLCj+sFhU/ODwWP8otJj8QvCY/MDX+Pg==

>  <OMEGA_NBR>  (58) 
     13426

$$$$
50162063
     RDKit          3D

 89 92  0  0  1  0  0  0  0  0999 V2000
    5.4662   10.2432  -21.8898 C   0  0  0  0  0  0  0  0  0  0  0  0
    5.9401    8.9419  -22.1498 C   0  0  0  0  0  0  0  0  0  0  0  0
    5.6645   10.8255  -20.6219 C   0  0  0  0  0  0  0  0  0  0  0  0
    6.6179    8.2251  -21.1441 C   0  0  0  0  0  0  0  0  0  0  0  0
    6.3299   10.1047  -19.6111 C   0  0  0  0  0  0  0  0  0  0  0  0
    6.9189    0.0213  -16.8098 C   0  0  0  0  0  0  0  0  0  0  0  0
    8.4683    1.6370  -15.8341 C   0  0  0  0  0  0  0  0  0  0  0  0
    8.2554   -0.5890  -14.8631 C   0  0  0  0  0  0  0  0  0  0  0  0
    6.7093    1.0685  -21.3976 C   0  0  0  0  0  0  0  0  0  0  0  0
    4.8686   -0.3645  -20.6691 C   0  0  0  0  0  0  0  0  0  0  0  0
    6.9353   -1.3576  -21.4976 C   0  0  0  0  0  0  0  0  0  0  0  0
    7.5023    1.3090  -16.8122 C   0  0  0  0  0  0  0  0  0  0  0  0
    7.3138   -0.9355  -15.8528 C   0  0  0  0  0  0  0  0  0  0  0  0
    6.8100    8.8010  -19.8667 C   0  0  0  0  0  0  0  0  0  0  0  0
    8.8217    0.6999  -14.8427 C   0  0  0  0  0  0  0  0  0  0  0  0
    5.4052    0.9213  -20.8767 C   0  0  0  0  0  0  0  0  0  0  0  0
    7.4768   -0.0717  -21.6976 C   0  0  0  0  0  0  0  0  0  0  0  0
    5.6292   -1.5016  -20.9874 C   0  0  0  0  0  0  0  0  0  0  0  0
    7.0828    2.3061  -17.8147 C   0  0  0  0  0  0  0  0  0  0  0  0
    6.6832   -2.2668  -15.8187 C   0  0  0  0  0  0  0  0  0  0  0  0
    5.4042    7.8966  -17.3250 C   0  0  0  0  0  0  0  0  0  0  0  0
    5.9871    5.9985  -18.8398 C   0  0  0  0  0  0  0  0  0  0  0  0
    4.5100    6.9524  -16.5146 C   0  0  0  0  0  0  0  0  0  0  0  0
    5.0337    5.0925  -18.0235 C   0  0  2  0  0  0  0  0  0  0  0  0
    9.8559    1.0543  -13.7972 C   0  0  0  0  0  0  0  0  0  0  0  0
    3.8993   -3.3872  -17.6163 C   0  0  0  0  0  0  0  0  0  0  0  0
    9.7203   -3.7902  -17.0886 C   0  0  0  0  0  0  0  0  0  0  0  0
    4.5840    2.1350  -20.5163 C   0  0  0  0  0  0  0  0  0  0  0  0
    7.4664    8.0015  -18.7469 C   0  0  0  0  0  0  0  0  0  0  0  0
    4.8827   -4.5558  -17.8151 C   0  0  0  0  0  0  0  0  0  0  0  0
    8.7623   -3.8689  -18.2884 C   0  0  0  0  0  0  0  0  0  0  0  0
    6.0550   -4.4924  -16.8170 C   0  0  0  0  0  0  0  0  0  0  0  0
    7.5727   -2.9069  -18.1171 C   0  0  0  0  0  0  0  0  0  0  0  0
    4.3288    4.0568  -18.9137 C   0  0  2  0  0  0  0  0  0  0  0  0
    5.3158    3.0250  -19.4888 C   0  0  1  0  0  0  0  0  0  0  0  0
    6.4864    7.1356  -18.0229 N   0  0  0  0  0  0  0  0  0  0  0  0
    5.8282    2.1767  -18.3996 N   0  0  0  0  0  0  0  0  0  0  0  0
    6.7767   -3.1901  -16.8875 N   0  0  0  0  0  0  0  0  0  0  0  0
    3.9756    5.9083  -17.3982 N   0  0  0  0  0  0  0  0  0  0  0  0
    7.8204    3.2435  -18.1002 O   0  0  0  0  0  0  0  0  0  0  0  0
    6.0706   -2.5576  -14.7968 O   0  0  0  0  0  0  0  0  0  0  0  0
    3.6443    4.7296  -19.9749 O   0  0  0  0  0  0  0  0  0  0  0  0
    8.7328    0.0682  -22.1777 F   0  0  0  0  0  0  0  0  0  0  0  0
    5.1034   -2.7319  -20.8011 F   0  0  0  0  0  0  0  0  0  0  0  0
    4.9510   10.7946  -22.6624 H   0  0  0  0  0  0  0  0  0  0  0  0
    5.7836    8.4940  -23.1201 H   0  0  0  0  0  0  0  0  0  0  0  0
    5.3059   11.8250  -20.4250 H   0  0  0  0  0  0  0  0  0  0  0  0
    6.9920    7.2329  -21.3492 H   0  0  0  0  0  0  0  0  0  0  0  0
    6.4736   10.5502  -18.6378 H   0  0  0  0  0  0  0  0  0  0  0  0
    6.1679   -0.2304  -17.5440 H   0  0  0  0  0  0  0  0  0  0  0  0
    8.9376    2.6096  -15.8465 H   0  0  0  0  0  0  0  0  0  0  0  0
    8.5438   -1.3150  -14.1173 H   0  0  0  0  0  0  0  0  0  0  0  0
    7.1168    2.0545  -21.5654 H   0  0  0  0  0  0  0  0  0  0  0  0
    3.8730   -0.4759  -20.2655 H   0  0  0  0  0  0  0  0  0  0  0  0
    7.5214   -2.2330  -21.7354 H   0  0  0  0  0  0  0  0  0  0  0  0
    4.7911    8.4198  -18.0736 H   0  0  0  0  0  0  0  0  0  0  0  0
    5.8607    8.6319  -16.6461 H   0  0  0  0  0  0  0  0  0  0  0  0
    6.8443    5.3999  -19.1818 H   0  0  0  0  0  0  0  0  0  0  0  0
    5.4455    6.3946  -19.7114 H   0  0  0  0  0  0  0  0  0  0  0  0
    5.1003    6.4868  -15.7117 H   0  0  0  0  0  0  0  0  0  0  0  0
    3.6781    7.5221  -16.0749 H   0  0  0  0  0  0  0  0  0  0  0  0
    5.6126    4.5687  -17.2486 H   0  0  0  0  0  0  0  0  0  0  0  0
    9.3559    1.4852  -12.9173 H   0  0  0  0  0  0  0  0  0  0  0  0
   10.4028    0.1472  -13.5004 H   0  0  0  0  0  0  0  0  0  0  0  0
   10.5616    1.7881  -14.2138 H   0  0  0  0  0  0  0  0  0  0  0  0
    3.0799   -3.4688  -18.3457 H   0  0  0  0  0  0  0  0  0  0  0  0
    3.4877   -3.4239  -16.5969 H   0  0  0  0  0  0  0  0  0  0  0  0
    4.4280   -2.4340  -17.7642 H   0  0  0  0  0  0  0  0  0  0  0  0
   10.5574   -4.4874  -17.2408 H   0  0  0  0  0  0  0  0  0  0  0  0
   10.1090   -2.7653  -16.9966 H   0  0  0  0  0  0  0  0  0  0  0  0
    9.1800   -4.0613  -16.1697 H   0  0  0  0  0  0  0  0  0  0  0  0
    4.3939    2.7218  -21.4271 H   0  0  0  0  0  0  0  0  0  0  0  0
    3.6268    1.8048  -20.0865 H   0  0  0  0  0  0  0  0  0  0  0  0
    8.2509    7.3634  -19.1798 H   0  0  0  0  0  0  0  0  0  0  0  0
    7.9182    8.7021  -18.0292 H   0  0  0  0  0  0  0  0  0  0  0  0
    4.3433   -5.5036  -17.6712 H   0  0  0  0  0  0  0  0  0  0  0  0
    5.2837   -4.5137  -18.8385 H   0  0  0  0  0  0  0  0  0  0  0  0
    9.3109   -3.6013  -19.2035 H   0  0  0  0  0  0  0  0  0  0  0  0
    8.3818   -4.8973  -18.3765 H   0  0  0  0  0  0  0  0  0  0  0  0
    5.6622   -4.6264  -15.7983 H   0  0  0  0  0  0  0  0  0  0  0  0
    6.7618   -5.3033  -17.0470 H   0  0  0  0  0  0  0  0  0  0  0  0
    7.9576   -1.8781  -18.0582 H   0  0  0  0  0  0  0  0  0  0  0  0
    6.9139   -3.0023  -18.9928 H   0  0  0  0  0  0  0  0  0  0  0  0
    3.5982    3.5173  -18.2931 H   0  0  0  0  0  0  0  0  0  0  0  0
    6.1447    3.5499  -19.9863 H   0  0  0  0  0  0  0  0  0  0  0  0
    5.2292    1.4539  -18.0550 H   0  0  0  0  0  0  0  0  0  0  0  0
    3.3839    5.3072  -16.8611 H   0  0  0  0  0  0  0  0  0  0  0  0
    3.4396    6.3448  -18.1209 H   0  0  0  0  0  0  0  0  0  0  0  0
    3.2080    4.0906  -20.5262 H   0  0  0  0  0  0  0  0  0  0  0  0
  1  2  2  0
  1  3  1  0
  2  4  1  0
  3  5  2  0
  4 14  2  0
  5 14  1  0
  6 12  2  0
  6 13  1  0
  7 12  1  0
  7 15  2  0
  8 13  2  0
  8 15  1  0
  9 16  2  0
  9 17  1  0
 10 16  1  0
 10 18  2  0
 11 17  2  0
 11 18  1  0
 12 19  1  0
 13 20  1  0
 14 29  1  0
 15 25  1  0
 16 28  1  0
 17 43  1  0
 18 44  1  0
 19 37  1  0
 19 40  2  0
 20 38  1  0
 20 41  2  0
 21 23  1  0
 21 36  1  0
 22 24  1  0
 22 36  1  0
 23 39  1  0
 24 34  1  0
 24 39  1  0
 26 30  1  0
 27 31  1  0
 28 35  1  0
 29 36  1  0
 30 32  1  0
 31 33  1  0
 32 38  1  0
 33 38  1  0
 34 35  1  0
 34 42  1  0
 35 37  1  0
  1 45  1  0
  2 46  1  0
  3 47  1  0
  4 48  1  0
  5 49  1  0
  6 50  1  0
  7 51  1  0
  8 52  1  0
  9 53  1  0
 10 54  1  0
 11 55  1  0
 21 56  1  0
 21 57  1  0
 22 58  1  0
 22 59  1  0
 23 60  1  0
 23 61  1  0
 24 62  1  1
 25 63  1  0
 25 64  1  0
 25 65  1  0
 26 66  1  0
 26 67  1  0
 26 68  1  0
 27 69  1  0
 27 70  1  0
 27 71  1  0
 28 72  1  0
 28 73  1  0
 29 74  1  0
 29 75  1  0
 30 76  1  0
 30 77  1  0
 31 78  1  0
 31 79  1  0
 32 80  1  0
 32 81  1  0
 33 82  1  0
 33 83  1  0
 34 84  1  1
 35 85  1  6
 37 86  1  0
 39 87  1  0
 39 88  1  0
 42 89  1  0
M  CHG  1  39   1
M  END
>  <OMEGA_C>  (59) 
SOuuQFTkI0FTHq/BFxW+QOoRD0HZMrHBOEO1QBE1LUGV+aTBG8bTQOGZA0EtJ6nB0Y7KQOusIUGi
45zB0GfdQPBwrjySeobBSH4HQZ2I0T9XWH3BLxYEQRvIFr8Xz23BXrLWQLvEiD9ILqvBTcubQCCj
ur5VWqXBy+3dQN7Erb8p+6vB/xLwQD6Opz9ef4bBxQrqQAR7b7/spH3BkevZQObQDEEG757BfyUN
QWotMz+Xe23BPvesQG7aaz94A6fBukHvQBTlkr2+lK3BYiK0QPszwL9I5qfB+KXiQPOXE0CMhI7B
ytzVQAwUEcB4GX3BCu+sQMWw/ECVmYrBNZa/QFrzv0D1t5bBh1GQQAl63kD4HYTBRhShQLj1okAa
MJDB8rEdQcHzhj93wVzBUI55QN7HWMBH7ozBg4YbQUeScsCEtYjBS7CSQMKjCEB8IaTBF+3uQFEG
AEGi+ZXBWT+cQMbIkcA/hY7BQTIMQcycd8CuTpLBpsLBQBfCj8BGiYbB4VPyQJIKOsDq75DBuoWK
QGHRgUAwT5fBVhuqQHqZQUAg6ZvBsJDPQCJX5EDQLpDBVIC6QPNOC0BYMpPBpNrYQFkqTMCUGYfB
dnB+QCcRvUCVL4vBwUD6QDaWT0AczZDBcELCQIevI8DRv2zB2jxpQLdYl0CozJ/BfLkLQbi/iz3s
a7HB706jQAPXLsCmaKbBjm6eQKO2LEGtTLXBPxO5QHPnB0Hd9bjBmMmpQCEzPUFoZqPBg77fQNNz
50Ajy6rBvCfPQHnNKEFKGpXBgV/FQMvya74rWozBZAAPQRsEJ0Asi33BU7MIQY9SqL+K4GHBlLzj
QP58A0DlhazB4N93QFOu8762H6LBMa/wQAvpDsAq4q3BqVCZQIS3BkGqlpDB7Iq7QE4cCkFAK4XB
JQTbQJjLrEBIdJnBJ0GuQFqgzEAKsZ3BCDajQCyUz0AnY3vBXmVrQGK18EBumYDBOZqzQG4ykkAJ
/YnBzrEVQWccvj9MrU7BBnImQajBFj7AAVjBdPwoQUzh5D+xa2PB7hxFQCMBXsDmw5LBUjZfQIkg
W8B/xoTBarKNQKnGG8AlHY7BSesoQbCYj8Aq7YnBqL4hQSH6MMAc+YfBKOESQcr1gcBzW4HBHJuM
QMYyLkC1aqvBNB5oQEwE5z8XsaDBrgMEQU+h60BVcJnBSmL9QLg7C0HAO5DBjfyKQEYdsMCpXo3B
zhOpQFZwkMBOtZbBifkUQfF7ZsC/oJnBCRwGQbK2nMAWA5PBWDC1QKkLlMAIxnzBrGDYQOe0qcBW
YIjB7qT+QCVm8L86d5DBeT7dQIAlQMBK8ZfBbEhmQHEbYUBQWJLBD6HEQAUyY0D745/BflWnQP4X
uj+ocJDBE5JYQDfUqUCf44bBLiJcQHsIy0CH95DBc1BNQDvmgkCRNaTB3latQGioJEFM9K7BHeKz
QMfULUEeyaTBEW68QBPcD0FcH7HBLErJQFAsIkHLwpzBnCnSQGxBBEFgIqnB+OvcQGz+ajydfobB
SlkHQcK80D9Wi33Bt7kDQWzyFb9EtG3B2efWQDZnhz8/ZavBulucQPcAvr54SqXB0FneQLs9r7+z
96vBiN3vQOw2pj/wl4bBc1bpQI75b78RiX3BjJfYQARWDUG15Z7B/EMNQZHEMD+K123BhVitQLkB
aj86HafB5nnvQFuZrL1ov63BNLi0QN5Kwb85x6fB0QLjQBtcEkBcuo7BVXXVQHadEcDWDn3Ba+is
QABn/EBkiorBpBzAQEz4v0DovZbBBTaRQCSk3UCg/YPBGNOhQIqhokBfOZDB6v4cQcuXiT+jgFzB
Rnt6QPM3V8BizYzB8YMbQa8ucsC+ZYjBUhuTQFtrCEA1QqTBOVPuQASCAEFIDpbBQgScQLSNkcDJ
dY7B5Y4MQYDMdsDOJJLBhwHCQCYRkMAinIbBbavyQFATOsBq3pDB9giLQIitgUBlX5fBxICqQN1t
QUCrCZzBCa7PQEit5EAFOZDB6bW6QF4hC0A0UpPBbP7YQLWkTMDPFIfB3wmAQDpavEBrE4vBbEj7
QMPMTED3M5HBcgjCQNgJJcCItmzB8sJpQDdSl0DVzJ/BPcALQXLxVz1vtLHB9hCkQHhSL8DaIKbB
SsGcQBKSLUERFrXBrXqoQDjPPUHcJKPBiFW3QOHQCEGZ6LjBUQTOQEQvKUH785TBFfTdQFa+6EBU
1arBBdzEQNNIdL5rW4zBIqIOQcQLJ0BFn33BD/YHQSIepr/8a2HB9tDjQOe7AkDU3KzBqT95QA0A
9r6W+6HBTCLxQIO6D8Bw0K3BkrSYQGhmBkGgd5DBmFa7QDsXCkHGJYXB+8fbQEYYrUC1cpnBr7au
QOpizEDRu53BCcakQH65zkCyZHvB8UZtQF9k70AATYDBjJi0QFylkUASHIrBK0wUQRljwT9U4k7B
wLwlQXynOD79KlfBmWUoQREV6D8z2WLBxlVFQHHCW8Cki5LBWvxgQIHhWMAvmoTBbpeOQJbQGsCz
Eo7BIg0pQdoaj8DfjonBKY8hQcBzMMCngIfBFaMSQVVIgsCqJ4HBiiCNQC/lLUB/jqvBm9loQH3u
5j/l1KDBfcIDQQgO7UCDpJnBlsX8QGu1C0H6TpDBzFCKQLGSr8C3OI3BDWqoQDyKkMA8sZbBq5IV
QXykZMBdWpnBl6YGQbRgnMBhAZPBdPC1QC/zlMAT3nzBw4nYQDTZqcCopojBh5j+QN7m779sY5DB
AdrdQIvDQMBW6pfBPY1nQOuoYEALZJLBjRDFQCYCY0DiAKDBJEOnQGI/uz/7fZDBqdlaQEXaqEDp
w4bBihJdQNliykDcx5DBXaVNQOzugkBCNaTBhJ6rQCMqJUFs8q7BuN+6QJZtEEECMrHBxCOyQNgz
LkGUv6TB3MTQQOi/BEEMQqnBgcrHQKV+IkHwyJzBSUHgQIjMB7zawIXBtP4JQVTW0D92jH7B8t0G
QZKrB7+Rz2zBndfXQO7gij+BjqvBxQqeQKC1vL4jX6XBTFbgQPNTq7/3HqzB1XPzQK7Poj+MlobB
zW3tQGNaZ7+gQHvBtU/XQDS7DUE/AZ/BKZ0QQXCPOz8tgm7BK3quQIJubD9eNKfBAtrwQMTSP73s
7a3BEuC2QAewv79K4qfBkvzkQAr6D0CdvY7BJO7VQAT0CcDEn3fBwQ6sQA7b/EBQtIrBKEHAQEoE
wEBXs5bB+fSQQK0G3kDcBoTBbnaiQPuBokD9EJDBT8YgQWyclT957l3B4Zx/QPNXjcB4FZLBhJga
QQafZMB+65bBHSCUQBFCCEAzKaTBI3ntQGfoAEHvOpbBUBqbQOp2XMBGnYvBtAAFQVXwScACPJLB
KGy7QKD4hsBcmoTBOHkEQRiAY8D0ZIbBdPaLQD7qgEAJGJfBkpCrQLwSQEAaz5vBozLPQBRc5UAV
UJDBSFG8QHJ2CECsL5PB1KzeQLsyVMDhpoHBOk6AQJ4EvEAG+orBB2j8QNaeS0A6SZHB/oe3QDY+
CMCkPmvBlIdqQBo8lkBhf5/Bc2YMQUOJ2T3p47HBduimQMwJL8AEOKbBr+2aQJghLkGECrXB7se1
QGN8CUEbAbnBvYemQEkdPkF2CaPBbpbcQLvJ6UCNAqvBJ4vMQF1pKUH69JTBT43HQO/tmb4bU4vB
TWoRQQ6tJkAPr3/BZM4LQeJdm7+sYWDBrkPkQGrOBEDID63Bc8t8QJl++742CqLBfXrzQOs/DcAB
/K3B/YiXQBFFBkHQrpDBxR26QG6aCkEIaYXBqj3cQHB4rUAqWJnBoaGuQGe7y0CRu53BB9OkQLzU
z0BoYHvBRjhsQPyI70CjY4DBRom1QIgWkkD66YnBeW8YQXzZ0j9wdFDBIqcpQdIalT7zHljBewEs
QYRW8T9GJ2XBYvJRQDKSdsD2B5fBP5mUQJCyoMDpR5fBF1RcQEJ/osDUmozBdkAbQRG8UsDAbJ/B
rIknQU0GRMCtkJLBVYkcQfMnlcB3I5bBEAeOQLnTLkD7XKvBcwJrQOIn5T9HxaDBVUcDQa7v7UCR
5JnBUh78QNsdDEGyhJDByqKsQFIuMsA6HpHBljOGQLbHNcAlcYbBgAMDQZ4+BMDg+pLBUAbwQDiI
asCqjZbBal6rQPGFksCXpXrBtCbIQH9iosAOHYnBQFoIQbb4k8DCsoXBR3YQQTSlPcCcBYLBWhpq
QKzxXkBcCJLBpwzGQAcxYkAZvJ/BUyapQNvitD8FXpDBdyVcQAl4qEBClIbBfgFdQOxpyUAauJDB
F5tOQPWjgUBG3aPB

>  <OMEGA_E>  (59) 
QAniPMDxvDzYdZ4+

>  <OMEGA_NBR>  (59) 
     17833

$$$$
50147908
     RDKit          3D

 74 78  0  0  1  0  0  0  0  0999 V2000
    5.1343   10.4854  -21.8949 C   0  0  0  0  0  0  0  0  0  0  0  0
    5.5102   11.0936  -20.6806 C   0  0  0  0  0  0  0  0  0  0  0  0
    5.4588    9.1362  -22.1383 C   0  0  0  0  0  0  0  0  0  0  0  0
    6.2084   10.3535  -19.7081 C   0  0  0  0  0  0  0  0  0  0  0  0
    6.1659    8.3970  -21.1708 C   0  0  0  0  0  0  0  0  0  0  0  0
    6.6152    1.0000  -21.4450 C   0  0  0  0  0  0  0  0  0  0  0  0
    5.0017   -0.4639  -20.3380 C   0  0  0  0  0  0  0  0  0  0  0  0
    7.0364   -1.3976  -21.3063 C   0  0  0  0  0  0  0  0  0  0  0  0
    6.5497    9.0071  -19.9535 C   0  0  0  0  0  0  0  0  0  0  0  0
    5.3951    0.8231  -20.7581 C   0  0  0  0  0  0  0  0  0  0  0  0
    7.4347   -0.1098  -21.7179 C   0  0  0  0  0  0  0  0  0  0  0  0
    5.8230   -1.5729  -20.6105 C   0  0  0  0  0  0  0  0  0  0  0  0
    8.5769   -0.0947  -15.1955 C   0  0  0  0  0  0  0  0  0  0  0  0
    6.0933    6.0135  -18.7124 C   0  0  0  0  0  0  0  0  0  0  0  0
    7.0137    2.2589  -17.7107 C   0  0  0  0  0  0  0  0  0  0  0  0
    8.5865    1.2873  -15.8678 C   0  0  0  0  0  0  0  0  0  0  0  0
    8.5548   -2.7765  -18.0163 C   0  0  0  0  0  0  0  0  0  0  0  0
    8.8807   -3.9395  -17.0888 C   0  0  0  0  0  0  0  0  0  0  0  0
    5.2835    7.9303  -17.3348 C   0  0  0  0  0  0  0  0  0  0  0  0
    6.9366   -0.0887  -16.8811 C   0  0  0  0  0  0  0  0  0  0  0  0
    4.5443    6.8958  -16.4822 C   0  0  0  0  0  0  0  0  0  0  0  0
    5.0674    5.0706  -18.0200 C   0  0  2  0  0  0  0  0  0  0  0  0
    7.2003    1.3580  -16.4899 C   0  0  2  0  0  0  0  0  0  0  0  0
    7.5477   -3.1822  -16.9181 C   0  0  0  0  0  0  0  0  0  0  0  0
    4.5423    2.0201  -20.4121 C   0  0  0  0  0  0  0  0  0  0  0  0
    7.2593    8.2128  -18.8760 C   0  0  0  0  0  0  0  0  0  0  0  0
    7.3725   -2.3202  -15.6362 C   0  0  0  0  0  0  0  0  0  0  0  0
    4.3665    4.0886  -18.9797 C   0  0  2  0  0  0  0  0  0  0  0  0
    5.3057    2.9620  -19.4609 C   0  0  1  0  0  0  0  0  0  0  0  0
    6.3011    7.3070  -18.2118 N   0  0  0  0  0  0  0  0  0  0  0  0
    7.6191   -0.8817  -15.8589 N   0  0  0  0  0  0  0  0  0  0  0  0
    5.7564    2.1980  -18.2972 N   0  0  0  0  0  0  0  0  0  0  0  0
    4.0059    5.8641  -17.3738 N   0  0  0  0  0  0  0  0  0  0  0  0
    9.2813   -0.4281  -14.2503 O   0  0  0  0  0  0  0  0  0  0  0  0
    6.8288    5.5788  -19.5916 O   0  0  0  0  0  0  0  0  0  0  0  0
    7.8864    3.0327  -18.0928 O   0  0  0  0  0  0  0  0  0  0  0  0
    3.8225    4.8100  -20.0836 O   0  0  0  0  0  0  0  0  0  0  0  0
    8.6057    0.0627  -22.3712 F   0  0  0  0  0  0  0  0  0  0  0  0
    5.4579   -2.8017  -20.1812 F   0  0  0  0  0  0  0  0  0  0  0  0
    4.5971   11.0540  -22.6395 H   0  0  0  0  0  0  0  0  0  0  0  0
    5.2623   12.1284  -20.4961 H   0  0  0  0  0  0  0  0  0  0  0  0
    5.1653    8.6691  -23.0668 H   0  0  0  0  0  0  0  0  0  0  0  0
    6.4833   10.8174  -18.7724 H   0  0  0  0  0  0  0  0  0  0  0  0
    6.4156    7.3631  -21.3582 H   0  0  0  0  0  0  0  0  0  0  0  0
    6.9194    1.9870  -21.7608 H   0  0  0  0  0  0  0  0  0  0  0  0
    4.0707   -0.5982  -19.8074 H   0  0  0  0  0  0  0  0  0  0  0  0
    7.6614   -2.2510  -21.5243 H   0  0  0  0  0  0  0  0  0  0  0  0
    8.7322    2.0885  -15.1283 H   0  0  0  0  0  0  0  0  0  0  0  0
    9.3711    1.3505  -16.6362 H   0  0  0  0  0  0  0  0  0  0  0  0
    9.1115   -1.8318  -17.9287 H   0  0  0  0  0  0  0  0  0  0  0  0
    8.3200   -2.9670  -19.0740 H   0  0  0  0  0  0  0  0  0  0  0  0
    8.8813   -4.9682  -17.4782 H   0  0  0  0  0  0  0  0  0  0  0  0
    9.6728   -3.8331  -16.3329 H   0  0  0  0  0  0  0  0  0  0  0  0
    4.5518    8.4604  -17.9622 H   0  0  0  0  0  0  0  0  0  0  0  0
    5.7826    8.6482  -16.6674 H   0  0  0  0  0  0  0  0  0  0  0  0
    5.8572   -0.3002  -16.8792 H   0  0  0  0  0  0  0  0  0  0  0  0
    7.3503   -0.3023  -17.8777 H   0  0  0  0  0  0  0  0  0  0  0  0
    5.2412    6.4397  -15.7637 H   0  0  0  0  0  0  0  0  0  0  0  0
    3.7220    7.3823  -15.9370 H   0  0  0  0  0  0  0  0  0  0  0  0
    5.5999    4.4867  -17.2548 H   0  0  0  0  0  0  0  0  0  0  0  0
    6.4772    1.6552  -15.7160 H   0  0  0  0  0  0  0  0  0  0  0  0
    6.6471   -3.7106  -17.2642 H   0  0  0  0  0  0  0  0  0  0  0  0
    4.2879    2.5634  -21.3342 H   0  0  0  0  0  0  0  0  0  0  0  0
    3.6191    1.6785  -19.9212 H   0  0  0  0  0  0  0  0  0  0  0  0
    8.0671    7.6205  -19.3307 H   0  0  0  0  0  0  0  0  0  0  0  0
    7.6846    8.9035  -18.1331 H   0  0  0  0  0  0  0  0  0  0  0  0
    6.3427   -2.4449  -15.2701 H   0  0  0  0  0  0  0  0  0  0  0  0
    8.0788   -2.6812  -14.8740 H   0  0  0  0  0  0  0  0  0  0  0  0
    3.5437    3.6156  -18.4236 H   0  0  0  0  0  0  0  0  0  0  0  0
    6.1638    3.4017  -19.9904 H   0  0  0  0  0  0  0  0  0  0  0  0
    5.0953    1.5716  -17.8844 H   0  0  0  0  0  0  0  0  0  0  0  0
    3.4251    5.2494  -16.8401 H   0  0  0  0  0  0  0  0  0  0  0  0
    3.4585    6.3069  -18.0839 H   0  0  0  0  0  0  0  0  0  0  0  0
    3.3904    4.2055  -20.6755 H   0  0  0  0  0  0  0  0  0  0  0  0
  1  2  2  0
  1  3  1  0
  2  4  1  0
  3  5  2  0
  4  9  2  0
  5  9  1  0
  6 10  2  0
  6 11  1  0
  7 10  1  0
  7 12  2  0
  8 11  2  0
  8 12  1  0
  9 26  1  0
 10 25  1  0
 11 38  1  0
 12 39  1  0
 13 16  1  0
 13 31  1  0
 13 34  2  0
 14 22  1  0
 14 30  1  0
 14 35  2  0
 15 23  1  0
 15 32  1  0
 15 36  2  0
 16 23  1  0
 17 18  1  0
 17 24  1  0
 18 24  1  0
 19 21  1  0
 19 30  1  0
 20 23  1  0
 20 31  1  0
 21 33  1  0
 22 28  1  0
 22 33  1  0
 24 27  1  0
 25 29  1  0
 26 30  1  0
 27 31  1  0
 28 29  1  0
 28 37  1  0
 29 32  1  0
  1 40  1  0
  2 41  1  0
  3 42  1  0
  4 43  1  0
  5 44  1  0
  6 45  1  0
  7 46  1  0
  8 47  1  0
 16 48  1  0
 16 49  1  0
 17 50  1  0
 17 51  1  0
 18 52  1  0
 18 53  1  0
 19 54  1  0
 19 55  1  0
 20 56  1  0
 20 57  1  0
 21 58  1  0
 21 59  1  0
 22 60  1  1
 23 61  1  1
 24 62  1  0
 25 63  1  0
 25 64  1  0
 26 65  1  0
 26 66  1  0
 27 67  1  0
 27 68  1  0
 28 69  1  1
 29 70  1  6
 32 71  1  0
 33 72  1  0
 33 73  1  0
 37 74  1  0
M  CHG  1  33   1
M  END
>  <OMEGA_C>  (60) 
kUykQFHEJ0HBKK/BglOwQFZ/MUHucaXBkK6uQPItEkFWG7HB56rGQBGoJUFJqp3BOU/FQBxaBkHH
XanBD7DTQAAAgD9Vj6vBIg6gQB6F7b4ntKLBNyrhQOHjsr9ic6rB3JbRQPQcEEHRoJ/BeaSsQPC1
Uj+REKbBVuntQPLP4L1Xvq3BqFW6QJZTyb9I4qTBATsJQbb+wb3cIHPBevzCQLluwEAVs5XB9G/g
QFiREECQr43BcGIJQUTGpD+14n3Bh+AIQbaxMcByIZDBXhcOQVEgfMDOtYjBWRKpQL7E/UDArYrB
0fjdQM6ftb2KDIfBCmuRQG6q3EB524PBhSiiQC9CokDsKJDB/2jmQGzUrT8764PB+obxQOapS8BY
WIfBnVqRQE9JAUAGTKPBSUzoQIdnA0EjApfBxOvrQF1+FMCvLXrBObqLQJXVgkBb1pfBpcipQM+R
PUDhr5vBrKLJQD/T6UCvsZHBB9DzQFO5Yb/rvX3BzDS4QEOsDECeYJLBHTCAQIGmu0CR/YrBB4AU
QaQz274NAWTBP4XaQPCFskCTu5zBJ138QGUYQkANvpDBIaR0QDrrmUAsq6DB17AJQVZggD0t+LLB
f6euQIBPM8Awc6HBrxuTQEzdMEHIHbXB5WSoQAgOQkHr96PB00mlQJq0CkHPiLjB9XbPQAcULUHV
LZbBjEzNQIee60CS3arBm2vdQABW/j8WFq7BHEOCQLckGb97dZ7Bbir1QLEPEMCtMazB97YLQRiq
BUC4DXLBF/AVQQjdrD8IF4XBvcgRQTV46r8Bbo/B4R4FQfPiPcB6l5jBxxkOQdz7nsBJ04vBo8Ma
QeBQdcDPqYLBcKiRQMddB0Giso/BKwu5QAJfCkHeVoXBxm27QGyymb6MCIfByTXrQLbFmr6YBY/B
TbinQJ0RzkAQOHzB2zVuQOs77EAZ/n7BszKzQMOSj0DXCYrBbUXPQOLe0z/adHvBTLXUQJx6bcAV
HYrBhTaJQDEOJEBXrKrBQZ9nQLXZ1j+jXp/BwhIBQUDb80BVpZrBl+j1QLB0DkGHEJHBqPfKQCF5
HMB4UnTBukIBQaSYK8Df+23BvctiQFFlZ0BvY5PBxD3FQGu1WUBv7J/BXAyjQJApyT8tE4/BETVb
QBD7p0ByuIbBz1ddQHzSyUDWq5DBwvtYQB2ThkBWZ6XBpuapQIBjJ0HdWa7Bfvy3QPeNEkFm1bDB
UVmxQCH7L0HAGKTBo6TNQANUBkGVEqnBT+HGQO3CI0ExUpzB4pHSQD1QeT8h+6vByBKcQJKb+r5G
RaTBjZ3dQLtGuL9yp6vBjXHVQAz6DkE6zZ7B6XWqQNijTT/g86bBWCXsQKqHFr4zTK7B36C1QE7y
zb+SnabB1eIKQdRLAj//527BRg/DQNpQvkBkpJXBuZ/dQL/UEkCN4Y3Br4oFQTvH6T8aF3rBetnw
QOCfQMBRkI7BCw0FQYWKgsCDcojB8v2qQEml+kCeEYrBNoLsQBT65Dwdg4bBXBCSQIpq2UDGk4PB
RLmhQFQfoECqSJDBZSrkQOWZvD/eu4PBupX0QLSWO8CXToLBn6OPQMNjAEDbAaTBeuvqQFi2AUEw
MZbBD0EJQbDR8r8H6XnBPNOKQC59gUAiHJjBZkyoQGCsOkB9OZzBFzfLQLit5kCaLpHB818AQSXQ
CL+W03nB3O62QJCWB0DvGpPB3TqAQMmyuUB9/YrByvkXQXiezD4Ra2DB+pLZQPQjsUBB95zBP3j4
QN2DRkCP+ZDBEEVzQPqTmUCuyqDBQ14JQaBomjwTAbPBevOnQHsWNsAw5qPByWGZQJ7HMEEpULTB
ciyyQNL2C0Hur7jByYemQCLzP0EWNKLB3k3YQIGq7EBH96rBPUTMQKZOKkFtcJTBwZjdQMFv+z/K
C67ByNt6QMXLHr9VaqDBMyHxQBxDE8Bqfa3BMroBQX4wJ0DZYW7Bo+ESQfYiCkBfIoLBnugAQVX0
EcDZmpPBNwbSQIP0UMBESpLBbWP9QK1Co8ACy4fBOpcWQZbCg8CXG4nBt0yUQNN9BkED/o7BjnO7
QBcyCEFYgYTBfVnOQJnP/L4DS4jBAAsBQV4WQ71IcI3B6KinQDaHyUAOwHvBYfhvQMQ26UAtXH7B
RnWyQKC7jEBLP4rBkUbHQLBhxT8LeX3B0ZrXQNl0TMDIjnvBtt6HQGSaJECrTKvB8cFjQGVl1T88
K6DBLVcCQYk58EB4yZnBT3j4QEFkDEGCEpDBkhUMQeI8DcD4QmnBAogYQd8j8b/GUoHB3rlgQGOj
ZEC3t5PBpczDQMUhV0DraKDB25WjQDVwsj8tdZDB9hBaQPb9pUBx54bBsH5eQPn5yECul5DBiwhX
QJPYhkBLoKXBUeagQNRqJUGM9K/B1aCwQJOsEEGl9rHBYKuoQIBRL0ENBKbBbj/IQIbZBUFdC6rB
ICzAQFqAJEEIFZ7BHGTWQDgqhz/NTKvBZwafQOms1L4IFaTBkyThQFXTrb/kMavBmWDQQLLSD0FP
GKDBL+GtQEpAYT/VgabBoB/wQPCDfb2Qjq3BzJO4QMpBxL93dqbBWhQHQZI6VL7Z3XLBY6jDQEdQ
wUAOyZXBteDgQMadEEBieI3BsyMIQQp7mj9vqXzBhpYLQcwOiMA6BIvBB2YAQd6DVMDXApPB/y+p
QMN7/kCn1IrBDofeQBz96L13tofBVhmSQFFT3UBF64PBlWWjQCTYokD2IpDBdFXlQOXFpz//9YPB
R3UIQamvMcARSYjBSAqTQMUUBUArmqPBl9/nQEgKBEHASZfB7EPvQO7tGMDbo3/BBv+MQPAig0AB
tJfBDmCrQJdzP0DMvZvBJ//JQDHH6kDH0JHByzXuQHxAbr/zu33BNXq5QFBiDEAEmZLBMDSBQF/i
u0Dm9YrBarkSQXL6Ir/Iq2TBfhrbQEmps0AQ3pzB9G78QA1yRUCYyI/BPmN0QGQOmkC4YqDB7acL
QRwT4z1k7LHBjkKqQEmHMcCaG6TBt96OQI68LUFfCrbBYJGqQHkUCUE2k7nBwpScQBg3P0GGfKTB
RCrUQH/W60DJkavBy9DFQEQLLEETcJbBl5rhQLIcA0AlO63BDg6AQEmUDL9qZqDBhcH0QN/vDcD1
Aq3BmMcJQZLe/D/mLXDBQ3cVQQK+pT8uCYTBSlQCQamqoMBRwYbB57IbQdZflMC0xIzBv3wIQVZT
QsAWfZrBRDzeQP3oWsCzeZTBoHqRQFpyB0Hb4I/B0Nm4QMXzCkFWjoXB22W8QFbSnb6mM4nBxujw
QAkdoL79C4/BZq+oQKM2z0BwVHzB409vQDix7ED9H3/Bg9W0QDJ/kEBwBYrBFaHMQGuqxz8OCXzB
c9gWQec3CcARm4jBcYWLQLdiKUBd56rB+0xqQKCX3j/t1Z/BiDIBQZeU9UDQw5rBT6X0QBumD0Ha
fpHBh5zPQCuBMMDmS4LBdeb3QORdNcAoIXDBDdBmQPTOZkCmHZPB6+jGQNewXEDc05/B04SkQDWr
wz9fuY/BBwdeQNURqEB2oIbB/a9eQHyiyUCeo5DB1q5YQLqGhkCCEaXBRMahQDq7JUGHZrDBDVup
QH68L0FEeqbBIR+xQM3eEEECS7LBZVbAQKfqJEE9c57BakLIQH8MBkE/SKrBCkjYQLbYiD/hd6rB
PE+fQJmv1L7BRqTB65nhQISMrL+wYKvBokLQQEIkEEEtW6DBhjWvQAy3Yj/k/qXBCJ3xQEhkQr3p
Ca3BMF64QLLgw7+MDqfBhCQIQUjpBb94J3jBeAfDQKAywkAzy5XBb7jeQI+tDkDsWYzB3DwHQTAr
fT+kJ3zBRlCvQMx0XMDnxonBECbMQA1KlMCU3IbBVy+oQDUFAEHPIYvBkErfQBLMYr7Mw4nBFqaQ
QINa30DaK4TBy6yiQIIZpEB6DZDBjQ3kQNCgjz9U/oPBFFnXQIPgTsAi2ILBvhmUQPQEBUC4FKPB
N2PnQLhrBEFod5fB8SL/QH9TI8A5rofB8sGMQFKrg0B+e5fBZXKrQPWMP0D7CpvB4T7JQI7k60AQ
+JHBKn3/QPjLjr8xSoXB1om3QI1ZDUCTo5HBZCiAQGR0vUCsIIvB9tcOQdPair8+FGjBEYPaQGsq
tEDm0pzBlzv7QFnqQUBpfo7BNH11QI+smUCFa6DB0aIMQXriBD7/HbHBnq6oQMi3McD2qqXByi6Q
QFoPLkHrj7bBFYadQIq2P0GICKXBpCOrQC8vCUGo4rnBNszFQNeHLEGv0JbBYObTQJ8R7EAsuKvB
LzrkQHQ+BEDc6avBm+B/QL9ODr9z1KDBJPL0QHMtDcD0aq3BSx0HQTvFxj9eC23BVrkUQVCzqT9X
DIPBU4euQM9hRMBLC5LBgkaPQMC2VsACNIbBS7nAQCC6rMBoNYHBHPrfQKePo8CwDI3BrMGQQGUi
CEH/S5DB27O3QAHXC0Ex5IXB9hS/QK7HIb/DaojBD6TkQHAnvL2NZpLBmd+mQGKf0UD5i3zBvulr
QMIG70BQ9n/BT+2zQMhqkkCzyInBgi3KQCVfmz8zJXzBBZPRQMStQsDKmHTBV/eMQM6/KUCUX6rB
OA9sQLMQ3T/geJ/BOe8AQQQR9kCL3prBhC30QLQVEEFGtJHBSAkOQUzpQMCfTITBluL+QBRPLMCN
aJDBLXllQO0jaUDn6ZLBLd3HQO60W0CP3J7BG0ahQLi7yz86so7BfGNbQAjxqUDZx4bBFVFdQC/P
ykAa75DBx1RaQOCshUBQB6XBJDCmQPTbJUGG26/BFJW0QLbiEEGb5rHB3rutQJ9hL0Gb0KXB7s3K
QAd7BUGq7anBqLnDQK32I0F30Z3BKGrTQIcTkD+C1avBKB6iQM99975dzaPBNTvkQIpLoL+KLqzB
wcTSQM0UD0Hw4J/BfgCtQKY8WT/OUKbB9BvvQIQCnz2Vrq7BT7e9QJ4YxL+MxqbB+oMIQXjsAL2g
6HHBwcTCQICzv0DVqZXBPHTgQKYgEkAojY3BMGoJQVcOqj9uXH3B0B/OQBwTjsAVgIXB+/CuQNHW
VcAQDInBmc2pQIlf/UB+qorB7XXcQPDor7ydZIbBeAaSQEqq3ECiwIPBu+KhQOXdoUCOAJDBmWXm
QLhCtj8ok4PBQwPeQAXXP8CJp4bBjzuQQFLe/T8O3aLBPAjpQBDCAkFtDJfB+uHoQADlDsBAa3jB
7feKQNlQgkBkkJfBtNuoQFODPECzc5vBBhzKQDH56ECoq5HBBizyQK4HUL8tenzBEh64QH6lDEDB
K5LBwUqAQA2ju0DWzYrBoMgTQWNBvb7gzmLBb7HZQFeqsUD5zZzB/2H8QNCnQkDg15DBA55yQPxI
mUCTYaDB+RoKQbc7sz5oyrPBfHqzQADFM8AiY6TBoluVQJOkLkF//rXBupKuQOSOCUF6lLnBU6Oi
QCxyP0EDQaTBC8XVQKnJ6kB9favB8hjJQIAzK0GiFpbBloTbQBU7CUBG3q3BBrKEQEfGMr/Dm5/B
Ym75QMq9A8AZaa7BHEoMQeZvCUCH93HBI+QVQXh3qz8D44TBkgLLQE15nMAoBHvBao3YQE+hpsC/
PYvB7BGjQGhwVMBoVJHBFIeVQGMgQMC9mIPB4W2SQNwqB0F5so/BTAW6QH40CkHoY4XBEsC5QB/W
Tr4vKYbBkc/oQLq4iL5hZY7BVlioQJoAzkD/CXzBXPVvQP+W7EBYvn7B6wSzQKRCj0DS4YnB5cfP
QBWI4T+Ry3rBH3LyQKMLMsAGnI3BDy+FQHEOIkDr+KnBhe5oQBakyT8OjZ7BDokBQbZD8kCNf5rB
pVT2QH4SDkFLL5HB03bNQD5nE8CNcG3ByYsCQfqrLMDO+XDBnqBhQPKgZkDoBZPBxurDQISUWEBi
2p/BCnejQByxxz//zY7B+l5bQAE3qEBAeIbBwGtdQB/TyUA/eJDB+FhWQN/nhUDdDKXB

>  <OMEGA_E>  (60) 
wGkOPw4LDz9MdRA/0sYaP5SHBT8=

>  <OMEGA_NBR>  (60) 
     23918

$$$$
50147896
     RDKit          3D

 82 85  0  0  1  0  0  0  0  0999 V2000
    5.0395   10.3237  -22.0081 C   0  0  0  0  0  0  0  0  0  0  0  0
    5.2989   10.9476  -20.7716 C   0  0  0  0  0  0  0  0  0  0  0  0
    5.5266    9.0256  -22.2598 C   0  0  0  0  0  0  0  0  0  0  0  0
    6.0437   10.2743  -19.7856 C   0  0  0  0  0  0  0  0  0  0  0  0
    6.2761    8.3522  -21.2761 C   0  0  0  0  0  0  0  0  0  0  0  0
    6.7089    1.0444  -21.3747 C   0  0  0  0  0  0  0  0  0  0  0  0
    4.9624   -0.4023  -20.4645 C   0  0  0  0  0  0  0  0  0  0  0  0
    7.0349   -1.3708  -21.3108 C   0  0  0  0  0  0  0  0  0  0  0  0
    6.5437    8.9791  -20.0370 C   0  0  0  0  0  0  0  0  0  0  0  0
    5.4344    0.8849  -20.7898 C   0  0  0  0  0  0  0  0  0  0  0  0
    7.5112   -0.0822  -21.6272 C   0  0  0  0  0  0  0  0  0  0  0  0
    5.7595   -1.5292  -20.7311 C   0  0  0  0  0  0  0  0  0  0  0  0
    8.0987   -0.7974  -15.4524 C   0  0  0  0  0  0  0  0  0  0  0  0
    6.1402    6.0343  -18.7285 C   0  0  0  0  0  0  0  0  0  0  0  0
    6.9138    2.0625  -17.6570 C   0  0  0  0  0  0  0  0  0  0  0  0
    5.3282    7.9603  -17.3687 C   0  0  0  0  0  0  0  0  0  0  0  0
    6.5523   -0.3362  -17.1494 C   0  0  0  0  0  0  0  0  0  0  0  0
    4.6019    6.9342  -16.4968 C   0  0  0  0  0  0  0  0  0  0  0  0
    8.3735    0.6296  -16.0065 C   0  0  1  0  0  0  0  0  0  0  0  0
    5.1220    5.0956  -18.0166 C   0  0  2  0  0  0  0  0  0  0  0  0
    7.0026    0.9903  -16.5684 C   0  0  1  0  0  0  0  0  0  0  0  0
   10.1787    1.3568  -14.2921 C   0  0  0  0  0  0  0  0  0  0  0  0
    9.7821   -3.4488  -17.1810 C   0  0  0  0  0  0  0  0  0  0  0  0
    4.6007    2.0964  -20.4544 C   0  0  0  0  0  0  0  0  0  0  0  0
    7.2807    8.2414  -18.9381 C   0  0  0  0  0  0  0  0  0  0  0  0
    8.8313    1.6848  -14.9603 C   0  0  0  0  0  0  0  0  0  0  0  0
    8.5381   -4.2281  -17.6337 C   0  0  0  0  0  0  0  0  0  0  0  0
    7.2847   -3.3379  -17.7512 C   0  0  0  0  0  0  0  0  0  0  0  0
    6.7737   -2.7829  -16.3883 C   0  0  0  0  0  0  0  0  0  0  0  0
    4.4044    4.1162  -18.9600 C   0  0  2  0  0  0  0  0  0  0  0  0
    5.3328    2.9797  -19.4262 C   0  0  1  0  0  0  0  0  0  0  0  0
    6.3458    7.3338  -18.2437 N   0  0  0  0  0  0  0  0  0  0  0  0
    7.0549   -1.3443  -16.2177 N   0  0  0  0  0  0  0  0  0  0  0  0
    5.6696    2.1667  -18.2617 N   0  0  0  0  0  0  0  0  0  0  0  0
    4.0631    5.8898  -17.3696 N   0  0  0  0  0  0  0  0  0  0  0  0
    8.6290   -1.3412  -14.4914 O   0  0  0  0  0  0  0  0  0  0  0  0
    6.8638    5.5968  -19.6163 O   0  0  0  0  0  0  0  0  0  0  0  0
    7.8468    2.8129  -17.9264 O   0  0  0  0  0  0  0  0  0  0  0  0
    3.8527    4.8342  -20.0621 O   0  0  0  0  0  0  0  0  0  0  0  0
    8.7410    0.0753  -22.1661 F   0  0  0  0  0  0  0  0  0  0  0  0
    5.3032   -2.7621  -20.4181 F   0  0  0  0  0  0  0  0  0  0  0  0
    4.4668   10.8409  -22.7637 H   0  0  0  0  0  0  0  0  0  0  0  0
    4.9258   11.9429  -20.5804 H   0  0  0  0  0  0  0  0  0  0  0  0
    5.3251    8.5474  -23.2070 H   0  0  0  0  0  0  0  0  0  0  0  0
    6.2331   10.7499  -18.8346 H   0  0  0  0  0  0  0  0  0  0  0  0
    6.6468    7.3562  -21.4680 H   0  0  0  0  0  0  0  0  0  0  0  0
    7.0677    2.0311  -21.6281 H   0  0  0  0  0  0  0  0  0  0  0  0
    3.9897   -0.5229  -20.0111 H   0  0  0  0  0  0  0  0  0  0  0  0
    7.6474   -2.2371  -21.5125 H   0  0  0  0  0  0  0  0  0  0  0  0
    4.5886    8.4759  -17.9989 H   0  0  0  0  0  0  0  0  0  0  0  0
    5.8258    8.6914  -16.7146 H   0  0  0  0  0  0  0  0  0  0  0  0
    5.4549   -0.3791  -17.2113 H   0  0  0  0  0  0  0  0  0  0  0  0
    6.9821   -0.4860  -18.1508 H   0  0  0  0  0  0  0  0  0  0  0  0
    5.3069    6.4912  -15.7779 H   0  0  0  0  0  0  0  0  0  0  0  0
    3.7813    7.4235  -15.9517 H   0  0  0  0  0  0  0  0  0  0  0  0
    9.1109    0.5734  -16.8208 H   0  0  0  0  0  0  0  0  0  0  0  0
    5.6615    4.5153  -17.2536 H   0  0  0  0  0  0  0  0  0  0  0  0
    6.3354    1.2665  -15.7386 H   0  0  0  0  0  0  0  0  0  0  0  0
   10.4318    2.1462  -13.5691 H   0  0  0  0  0  0  0  0  0  0  0  0
   10.1035    0.3917  -13.7697 H   0  0  0  0  0  0  0  0  0  0  0  0
   10.9640    1.2978  -15.0602 H   0  0  0  0  0  0  0  0  0  0  0  0
   10.6406   -4.1333  -17.1157 H   0  0  0  0  0  0  0  0  0  0  0  0
   10.0016   -2.6539  -17.9090 H   0  0  0  0  0  0  0  0  0  0  0  0
    9.5947   -3.0006  -16.1941 H   0  0  0  0  0  0  0  0  0  0  0  0
    4.4208    2.6784  -21.3704 H   0  0  0  0  0  0  0  0  0  0  0  0
    3.6386    1.7697  -20.0328 H   0  0  0  0  0  0  0  0  0  0  0  0
    8.1027    7.6563  -19.3764 H   0  0  0  0  0  0  0  0  0  0  0  0
    7.6896    8.9669  -18.2195 H   0  0  0  0  0  0  0  0  0  0  0  0
    8.9234    2.6571  -15.4665 H   0  0  0  0  0  0  0  0  0  0  0  0
    8.0628    1.7510  -14.1761 H   0  0  0  0  0  0  0  0  0  0  0  0
    8.7434   -4.6773  -18.6166 H   0  0  0  0  0  0  0  0  0  0  0  0
    8.3365   -5.0240  -16.9017 H   0  0  0  0  0  0  0  0  0  0  0  0
    7.5253   -2.4857  -18.4037 H   0  0  0  0  0  0  0  0  0  0  0  0
    6.4792   -3.9326  -18.2067 H   0  0  0  0  0  0  0  0  0  0  0  0
    5.6862   -2.9381  -16.3307 H   0  0  0  0  0  0  0  0  0  0  0  0
    7.2667   -3.3367  -15.5757 H   0  0  0  0  0  0  0  0  0  0  0  0
    3.5830    3.6556  -18.3915 H   0  0  0  0  0  0  0  0  0  0  0  0
    6.2393    3.4049  -19.8818 H   0  0  0  0  0  0  0  0  0  0  0  0
    4.9281    1.6303  -17.8588 H   0  0  0  0  0  0  0  0  0  0  0  0
    3.4916    5.2779  -16.8228 H   0  0  0  0  0  0  0  0  0  0  0  0
    3.5058    6.3207  -18.0794 H   0  0  0  0  0  0  0  0  0  0  0  0
    3.4093    4.2289  -20.6449 H   0  0  0  0  0  0  0  0  0  0  0  0
  1  2  2  0
  1  3  1  0
  2  4  1  0
  3  5  2  0
  4  9  2  0
  5  9  1  0
  6 10  2  0
  6 11  1  0
  7 10  1  0
  7 12  2  0
  8 11  2  0
  8 12  1  0
  9 25  1  0
 10 24  1  0
 11 40  1  0
 12 41  1  0
 13 19  1  0
 13 33  1  0
 13 36  2  0
 14 20  1  0
 14 32  1  0
 14 37  2  0
 15 21  1  0
 15 34  1  0
 15 38  2  0
 16 18  1  0
 16 32  1  0
 17 21  1  0
 17 33  1  0
 18 35  1  0
 19 21  1  0
 19 26  1  0
 20 30  1  0
 20 35  1  0
 22 26  1  0
 23 27  1  0
 24 31  1  0
 25 32  1  0
 27 28  1  0
 28 29  1  0
 29 33  1  0
 30 31  1  0
 30 39  1  0
 31 34  1  0
  1 42  1  0
  2 43  1  0
  3 44  1  0
  4 45  1  0
  5 46  1  0
  6 47  1  0
  7 48  1  0
  8 49  1  0
 16 50  1  0
 16 51  1  0
 17 52  1  0
 17 53  1  0
 18 54  1  0
 18 55  1  0
 19 56  1  6
 20 57  1  1
 21 58  1  1
 22 59  1  0
 22 60  1  0
 22 61  1  0
 23 62  1  0
 23 63  1  0
 23 64  1  0
 24 65  1  0
 24 66  1  0
 25 67  1  0
 25 68  1  0
 26 69  1  0
 26 70  1  0
 27 71  1  0
 27 72  1  0
 28 73  1  0
 28 74  1  0
 29 75  1  0
 29 76  1  0
 30 77  1  1
 31 78  1  6
 34 79  1  0
 35 80  1  0
 35 81  1  0
 39 82  1  0
M  CHG  1  35   1
M  END
>  <OMEGA_C>  (61) 
QUOhQPQtJUGiELDBQJCpQFopL0EqLKbBqNmwQANpEEEmFLLBZGbBQF5jJEHgSJ7BmNXIQKeiBUFi
NarBrK/WQDmvhT9Y/6rBQMyeQPnzzb5it6PBQB7hQPR1r79yfKrBtGXRQHiqD0GwS6DBs+atQNyL
Yj+WUabBlFvwQDxoqL1qBK3Bw024QN68w7822aXBWpQBQYYiTL8yPXfBnnzEQK0YwUDq05XBMj7d
QGD/A0COQY3Bw4CqQLS6/kAI84rBZazRQOkbrL4SMonBn0KTQP/k3UCC+YPBuvkFQXQqIT9aDYDB
NeejQBEPo0AOIpDBEhXgQCqEfT8ojITBDdwiQT+srT+OrGTBS4McQaK4XMC8conBlziTQHYrBkCo
oqPBsfvoQNLcA0FGgZfBFk0NQR2o1z9yXW/BH5wIQWhMh8DmEY3BiBzpQL+gVcBeAo7BN8LYQD4b
MsBKG4PBxvCMQPO3g0AMrpfBr6aqQJuzPkDgaJvBxxDLQG6u6kAw85HBGcLhQDQRrL/IvYHBhG21
QDirCkD0F5LBigSCQJ55vEDc9IrBlhAKQYitq7+U3GfBPaTbQNEYs0A87pzBXRn7QPUGNEBeaY/B
W5J2QL6xmkBIf6DBA9sLQWRJmj0sVLHB+rOpQJ3FMMBMWKPBnu+OQIR0LUEIHLbBiqCdQFAWP0Gx
pKTBl2eqQPfBCEHkp7nBiHXHQHX/K0FKrZbB6bLUQMZl60B+vqvBjiriQAn9AUBEBq3BIld/QEPe
Bb+4FqDBvrf0QBwtD8CtGazBLtaSQC2dB0HF/Y/BOG26QPEPC0Fmt4XBVo6uQEwbwr69sInBmW3f
QIXX+L7rNJHButGpQD24z0BycnzBrAByQH6N7UANOn/BHsYRQdLHEj8JkYbB1Sq1QO98kEB4B4rB
VbvKQE8boj9w0XvBx+gmQd9bCUAMG1nBzachQX2PyD68UFzBbmwvQdccpj959nDB4z8qQVZEhMAC
7YjBpQYgQf3YKcCYRY/BAIQZQdQJQMB7jYHBaXeNQD1qK0CM9qrBcN9oQG2F4j8jQ6DBjqQBQa8A
9UDaApvBcxH2QHZ4D0F+wZHBDMYOQYoNKkDddnfBagEBQR0i4D8f0WLB2OQLQUqslcDf7pTBM2IF
QbXEoMDCNofBJs/wQLkVH8DNOpPB3FXPQEOwe8BIp5HBsvW1QGsKPMA2pYLB/ojoQL+LVcAzNnnB
g1BlQFT1aUC0IZPBrajHQCLpWUDWDZ/BrbKdQBSt0D/E3o7BGHZfQKPkqEAUlYbBq19gQO9CykCn
opDByDJaQIdTh0DOKKXBnoKdQMfbJUGAZbDB1n6tQIwkEUGaWrLBb3WlQJLzL0Fwg6bB157FQOKN
BkG+cqrBDm+9QHxcJUHVlp7BHQPZQJARjT8K5qrBr06iQD1kxr6jm6PBxVblQIHopr9qZ6rBnPzN
QGu7EEGckKDB/22wQHZJaT8+MabBOYvzQEBOg7sY7qzBNrC8QN5Iv79+wqXBUXsDQXAhMb+dX3XB
O2zDQAjxwkBC8JXBk5HgQOhzAkCcmY3BnhaoQIguAEGUL4vB2+fYQLkuz76xX4nBAQWSQBI830Dr
EITBzJwHQSIpND+TSn/BnPajQAkypECXFJDBwebjQB4geD/m2YTBG4IjQaJyyj+nK2TBVt4ZQaRT
ZMCtHInBKA6VQA2cBkClbKPBqTLmQOM0BUGKypfBro4NQemS5z9l227BNeMFQftBWcCZMZDBEbfg
QOaHZsC3J4rBYNjaQJxGL8Ap83/BR66NQKzKg0DVepfB0zOsQG7tP0BLOJvBLQXJQOvZ7EAaK5LB
XSbpQKSJq7+nSYHBMPK3QEC7C0BJ8pHBrYOBQKPzvECR6IrBgpAKQW6qkb/simTB4LHaQBNJtUAF
D53BE2j+QNoGMkCF7o/BPwp2QLb5mUDJTqDBxmINQeL9PD7COrHByBivQBJNL8CtSKPB+SWLQCcC
LkEZerbB0T6nQJRjCUFf6rnByCWZQLDRP0EJBaXB9L3RQIhL7UBc76vBMyzDQJYJLUGL+5bBtK3j
QCQ5BkAn8KzBdkiDQE9JCL9T+5/BFJ35QPDmCcAaB6zBcNKPQAvyB0EIPpDBTHa3QHk/DEF5D4bB
Fx22QPb+A79DX4rBzdroQLzEEL/GHJHBwCepQCAC0kBHonzBC+puQOxa7kD5Zn/BBiQUQQzCIT+u
zIXBMvq1QAt5kkBW9InBn7TMQGwOmz81C33B/rkmQaVOGUBfxljBZmMjQWTIHj9SnlvByhAwQZ6G
yD/9f3DBMVYoQez2WcDW843BmGsZQVd3NcBwjILBwR0aQd+6ksBOxoXBOaqOQKXJK0B1uarBrDht
QO+w4D+N/p/BDGQAQU0r+ECBUpvB7fTyQG35EEHYE5LBQeUNQSbGMUCEMXfB3TcBQd9p6j/YT2LB
cAoGQesYGMA1hpPBmLwGQakLhMATwJbBA37GQLRBV8DbtI/BvqDeQN8dlcC0zIfBS7C4QDTzLsB3
snvBPl/tQJh+TMCI43LBD/pnQEETaUDt05LBY8zIQCtjXEAE657BN0mgQI3q1j+cYI7B09tfQOkX
qUD1bobBMT1eQP/tyUAPmJDBrXJaQGQNhkB+5aTB

>  <OMEGA_E>  (61) 
AtoSP5C5ED8=

>  <OMEGA_NBR>  (61) 
     26815

$$$$
50147894
     RDKit          3D

 90 93  0  0  1  0  0  0  0  0999 V2000
    6.2978   10.8969  -20.0904 C   0  0  0  0  0  0  0  0  0  0  0  0
    8.9592   10.4504  -17.4849 C   0  0  0  0  0  0  0  0  0  0  0  0
    9.2279    9.0728  -17.5899 C   0  0  0  0  0  0  0  0  0  0  0  0
    7.9802   11.0461  -18.3062 C   0  0  0  0  0  0  0  0  0  0  0  0
    8.4972    8.2843  -18.4937 C   0  0  0  0  0  0  0  0  0  0  0  0
    6.8861    0.0649  -16.6383 C   0  0  0  0  0  0  0  0  0  0  0  0
    8.5346    1.6339  -15.7634 C   0  0  0  0  0  0  0  0  0  0  0  0
    8.1791   -0.5110  -14.6534 C   0  0  0  0  0  0  0  0  0  0  0  0
    6.7810    1.1393  -21.4602 C   0  0  0  0  0  0  0  0  0  0  0  0
    5.1193   -0.4267  -20.5883 C   0  0  0  0  0  0  0  0  0  0  0  0
    7.2101   -1.2595  -21.5278 C   0  0  0  0  0  0  0  0  0  0  0  0
    7.2427   10.2608  -19.2167 C   0  0  0  0  0  0  0  0  0  0  0  0
    7.5400    1.3119  -16.7166 C   0  0  0  0  0  0  0  0  0  0  0  0
    7.2071   -0.8401  -15.6130 C   0  0  0  0  0  0  0  0  0  0  0  0
    7.4773    8.8616  -19.2836 C   0  0  0  0  0  0  0  0  0  0  0  0
    8.8371    0.7310  -14.7202 C   0  0  0  0  0  0  0  0  0  0  0  0
    5.5276    0.8949  -20.8554 C   0  0  0  0  0  0  0  0  0  0  0  0
    7.6241    0.0615  -21.7876 C   0  0  0  0  0  0  0  0  0  0  0  0
    5.9564   -1.5017  -20.9337 C   0  0  0  0  0  0  0  0  0  0  0  0
    7.1408    2.2730  -17.7620 C   0  0  0  0  0  0  0  0  0  0  0  0
    6.4658   -2.0938  -15.5081 C   0  0  0  0  0  0  0  0  0  0  0  0
    5.1660    7.9772  -17.8060 C   0  0  0  0  0  0  0  0  0  0  0  0
    6.1854    5.8457  -18.6520 C   0  0  0  0  0  0  0  0  0  0  0  0
    4.5977    7.0609  -16.7067 C   0  0  0  0  0  0  0  0  0  0  0  0
    5.0899    4.9924  -17.9426 C   0  0  2  0  0  0  0  0  0  0  0  0
    9.8974    1.0714  -13.6979 C   0  0  0  0  0  0  0  0  0  0  0  0
    3.3759   -4.7937  -17.4786 C   0  0  0  0  0  0  0  0  0  0  0  0
    9.9516   -4.0489  -17.8513 C   0  0  0  0  0  0  0  0  0  0  0  0
    4.6367    2.0454  -20.4522 C   0  0  0  0  0  0  0  0  0  0  0  0
    6.5051    7.9358  -19.9956 C   0  0  0  0  0  0  0  0  0  0  0  0
    4.4530   -3.7193  -17.4474 C   0  0  0  0  0  0  0  0  0  0  0  0
    8.8978   -3.7193  -16.7992 C   0  0  0  0  0  0  0  0  0  0  0  0
    5.6126   -4.1787  -16.5633 C   0  0  0  0  0  0  0  0  0  0  0  0
    7.6729   -3.0898  -17.4720 C   0  0  0  0  0  0  0  0  0  0  0  0
    4.3791    4.0074  -18.8841 C   0  0  2  0  0  0  0  0  0  0  0  0
    5.3598    2.9544  -19.4430 C   0  0  1  0  0  0  0  0  0  0  0  0
    5.5485   11.3898  -20.8356 N   0  0  0  0  0  0  0  0  0  0  0  0
    5.6734    7.1873  -18.9956 N   0  0  0  0  0  0  0  0  0  0  0  0
    5.8804    2.1334  -18.3392 N   0  0  0  0  0  0  0  0  0  0  0  0
    6.5739   -3.0795  -16.4976 N   0  0  0  0  0  0  0  0  0  0  0  0
    4.0480    5.8424  -17.3137 N   0  0  0  0  0  0  0  0  0  0  0  0
    7.8924    3.1861  -18.0873 O   0  0  0  0  0  0  0  0  0  0  0  0
    5.6690   -2.2110  -14.5835 O   0  0  0  0  0  0  0  0  0  0  0  0
    3.7493    4.7276  -19.9435 O   0  0  0  0  0  0  0  0  0  0  0  0
    8.8304    0.2939  -22.3521 F   0  0  0  0  0  0  0  0  0  0  0  0
    5.5554   -2.7686  -20.6993 F   0  0  0  0  0  0  0  0  0  0  0  0
    9.5044   11.0528  -16.7734 H   0  0  0  0  0  0  0  0  0  0  0  0
    9.9946    8.6228  -16.9765 H   0  0  0  0  0  0  0  0  0  0  0  0
    7.7942   12.1078  -18.2379 H   0  0  0  0  0  0  0  0  0  0  0  0
    8.7159    7.2306  -18.5856 H   0  0  0  0  0  0  0  0  0  0  0  0
    6.1353   -0.1955  -17.3697 H   0  0  0  0  0  0  0  0  0  0  0  0
    9.0639    2.5727  -15.8335 H   0  0  0  0  0  0  0  0  0  0  0  0
    8.4207   -1.2098  -13.8662 H   0  0  0  0  0  0  0  0  0  0  0  0
    7.0914    2.1520  -21.6708 H   0  0  0  0  0  0  0  0  0  0  0  0
    4.1648   -0.6135  -20.1189 H   0  0  0  0  0  0  0  0  0  0  0  0
    7.8545   -2.0873  -21.7845 H   0  0  0  0  0  0  0  0  0  0  0  0
    4.3728    8.6598  -18.1449 H   0  0  0  0  0  0  0  0  0  0  0  0
    5.9982    8.5616  -17.3864 H   0  0  0  0  0  0  0  0  0  0  0  0
    7.0495    5.9521  -17.9797 H   0  0  0  0  0  0  0  0  0  0  0  0
    6.4988    5.3338  -19.5738 H   0  0  0  0  0  0  0  0  0  0  0  0
    5.4006    6.7899  -16.0053 H   0  0  0  0  0  0  0  0  0  0  0  0
    3.8008    7.5911  -16.1647 H   0  0  0  0  0  0  0  0  0  0  0  0
    5.5847    4.4066  -17.1539 H   0  0  0  0  0  0  0  0  0  0  0  0
    9.4326    1.5867  -12.8444 H   0  0  0  0  0  0  0  0  0  0  0  0
   10.3805    0.1468  -13.3490 H   0  0  0  0  0  0  0  0  0  0  0  0
   10.6512    1.7284  -14.1564 H   0  0  0  0  0  0  0  0  0  0  0  0
    2.5431   -4.4604  -18.1153 H   0  0  0  0  0  0  0  0  0  0  0  0
    3.7983   -5.7245  -17.8850 H   0  0  0  0  0  0  0  0  0  0  0  0
    3.0077   -4.9732  -16.4577 H   0  0  0  0  0  0  0  0  0  0  0  0
   10.8284   -4.5002  -17.3641 H   0  0  0  0  0  0  0  0  0  0  0  0
    9.5322   -4.7576  -18.5806 H   0  0  0  0  0  0  0  0  0  0  0  0
   10.2540   -3.1264  -18.3686 H   0  0  0  0  0  0  0  0  0  0  0  0
    4.3748    2.6316  -21.3454 H   0  0  0  0  0  0  0  0  0  0  0  0
    3.7195    1.6497  -19.9914 H   0  0  0  0  0  0  0  0  0  0  0  0
    5.8451    8.5311  -20.6437 H   0  0  0  0  0  0  0  0  0  0  0  0
    7.0700    7.2177  -20.6082 H   0  0  0  0  0  0  0  0  0  0  0  0
    4.8205   -3.5400  -18.4686 H   0  0  0  0  0  0  0  0  0  0  0  0
    4.0298   -2.7887  -17.0414 H   0  0  0  0  0  0  0  0  0  0  0  0
    8.5966   -4.6423  -16.2821 H   0  0  0  0  0  0  0  0  0  0  0  0
    9.3185   -3.0112  -16.0701 H   0  0  0  0  0  0  0  0  0  0  0  0
    5.2447   -4.4173  -15.5544 H   0  0  0  0  0  0  0  0  0  0  0  0
    6.0887   -5.0690  -17.0000 H   0  0  0  0  0  0  0  0  0  0  0  0
    7.9056   -2.0606  -17.7828 H   0  0  0  0  0  0  0  0  0  0  0  0
    7.3851   -3.6826  -18.3528 H   0  0  0  0  0  0  0  0  0  0  0  0
    3.6128    3.4762  -18.3005 H   0  0  0  0  0  0  0  0  0  0  0  0
    6.1878    3.4697  -19.9518 H   0  0  0  0  0  0  0  0  0  0  0  0
    5.2830    1.4193  -17.9744 H   0  0  0  0  0  0  0  0  0  0  0  0
    3.5883    5.3106  -16.6024 H   0  0  0  0  0  0  0  0  0  0  0  0
    3.3847    6.1056  -18.0142 H   0  0  0  0  0  0  0  0  0  0  0  0
    3.3104    4.1175  -20.5247 H   0  0  0  0  0  0  0  0  0  0  0  0
  1 12  1  0
  1 37  3  0
  2  3  2  0
  2  4  1  0
  3  5  1  0
  4 12  2  0
  5 15  2  0
  6 13  2  0
  6 14  1  0
  7 13  1  0
  7 16  2  0
  8 14  2  0
  8 16  1  0
  9 17  2  0
  9 18  1  0
 10 17  1  0
 10 19  2  0
 11 18  2  0
 11 19  1  0
 12 15  1  0
 13 20  1  0
 14 21  1  0
 15 30  1  0
 16 26  1  0
 17 29  1  0
 18 45  1  0
 19 46  1  0
 20 39  1  0
 20 42  2  0
 21 40  1  0
 21 43  2  0
 22 24  1  0
 22 38  1  0
 23 25  1  0
 23 38  1  0
 24 41  1  0
 25 35  1  0
 25 41  1  0
 27 31  1  0
 28 32  1  0
 29 36  1  0
 30 38  1  0
 31 33  1  0
 32 34  1  0
 33 40  1  0
 34 40  1  0
 35 36  1  0
 35 44  1  0
 36 39  1  0
  2 47  1  0
  3 48  1  0
  4 49  1  0
  5 50  1  0
  6 51  1  0
  7 52  1  0
  8 53  1  0
  9 54  1  0
 10 55  1  0
 11 56  1  0
 22 57  1  0
 22 58  1  0
 23 59  1  0
 23 60  1  0
 24 61  1  0
 24 62  1  0
 25 63  1  1
 26 64  1  0
 26 65  1  0
 26 66  1  0
 27 67  1  0
 27 68  1  0
 27 69  1  0
 28 70  1  0
 28 71  1  0
 28 72  1  0
 29 73  1  0
 29 74  1  0
 30 75  1  0
 30 76  1  0
 31 77  1  0
 31 78  1  0
 32 79  1  0
 32 80  1  0
 33 81  1  0
 33 82  1  0
 34 83  1  0
 34 84  1  0
 35 85  1  1
 36 86  1  6
 39 87  1  0
 41 88  1  0
 41 89  1  0
 44 90  1  0
M  CHG  1  41   1
M  END
>  <OMEGA_C>  (62) 
1IfJQI9ZLkEMuaDB61gPQb40J0Es4YvBpKUTQQMqEUELuIzBpF3/QNu8MEERc5LBX/QHQVuMBEEU
85PBE1vcQBzjhD0mG4XBl40IQSEl0T+8NnzBit0CQbnRAr9sdGrBv/3YQAjTkT9xrqvBktGjQCR1
2r7atKTBHrnmQBI3ob8JOazBR8TnQCQsJEHNu5nBb0fxQNztpz+ou4XB0aDmQLYQV7+yznnBukXv
QCLJDUHfRJrB0WQNQfIgOz/JhWvBzOGwQBwZZT/w16bBsvjzQPDxez0QTa7BwZq+QFc3wL88eKfB
WIHkQAl5EUClGI7BhefOQIEBBsACIXjBQFClQA5F/0Coco7B7e7FQCAQu0BeN5XBwyCTQCrz4UBe
p4XBhOCiQMrBn0Bdio/B8lseQYAkiT+BKlvBvw5YQNplmcAj1IvBkzkfQWqQgcCKz47Bnl+UQGbo
AkARnqPBjynQQMbx/UAV95/BVn+OQMMIbsBglIvBcl0OQYkJbsC/ZIbBvpqzQEK4hcCLgYTBVIj1
QGe/RcCtxovBhCGMQLw8gEC9EpfB5IOrQC4UPUA9i5vB7oyxQIE8NkE1r6bBg4y1QFr+5UDq9pfB
Kiy8QDiKCECYtpLBAV3SQMgWRcAb+4PBWomBQLz0ukBbgorB7I78QDPpS0CxspDBG2i1QPeADcAK
VmnB9fRvQHhIl0BjjJ/BJkkNQfFzlj4A0bLBesWxQJYwMcAcmKXBLxIYQRXYMEH5L4bB++kfQS73
CUHxz4fB7Gn5QHG5QUEi55HBKXQLQWth50BLr5TBxFTEQBUrSL4S9YrBzgURQTenJED+VX3BO7sG
QTHbmr8G3F3BH+3iQE26CUDIXa3B+kWFQNkPHb+D86DBc1j7QPeVBcCbRq7BIe6LQHyOCkGtKJHB
HvG/QD38CEFrF4vBzJXhQKV3vkCD1o/BdvbPQBauqkAml5zB69GsQD9H2UDoCoDBB0BzQPPp8kBD
UYHBz7WyQDEDjUAWO4nBGuwWQdsZyz+qgk3BiBYmQR1VFj5YlVXBR2sqQZI73T/JgGLBy8IiQJS7
jsAr7JDBCxdzQBkvt8B7FI/BX31AQIckn8BoqYPBD0EtQf4BkMCW6YrB8oMYQRY+mMArpZTBlRAk
QVsXSMDu8pLBXf6LQLxsKEBSw6rBDA1uQFUp0z997p/Bdgu7QIV/CEFlJqXBLz3iQAv35kCV3aTB
SUGaQCGPYsDLv5PBc/SAQP15MsC4VIjBzosJQQaOlMDOQYLBchgVQTq3QMCRj4DBstSnQLFajcD5
3njBzNbCQIY1osD0/4fB/fr8QC/hA8A1Q47B4VLsQOava8CC0pLBfjhnQGZ6XkBkZ5LBpQLGQI4P
XkBFnZ/B9Q2pQD+rtT+Iy4/BNadlQEXwqUC10YTBPp9YQB5hw0AMHZDBMd5TQMjCg0CBMqTB

>  <OMEGA_E>  (62) 
zhglPw==

>  <OMEGA_NBR>  (62) 
     28602

$$$$
50147910
     RDKit          3D

 89 93  0  0  1  0  0  0  0  0999 V2000
    8.0479   -5.0107  -17.3421 C   0  0  0  0  0  0  0  0  0  0  0  0
    5.1733   10.3936  -21.8805 C   0  0  0  0  0  0  0  0  0  0  0  0
    9.1947   -4.2038  -17.4816 C   0  0  0  0  0  0  0  0  0  0  0  0
    6.7638   -4.4290  -17.3767 C   0  0  0  0  0  0  0  0  0  0  0  0
    5.6259    9.0896  -22.1647 C   0  0  0  0  0  0  0  0  0  0  0  0
    5.4227   10.9679  -20.6181 C   0  0  0  0  0  0  0  0  0  0  0  0
    9.0592   -2.8150  -17.6557 C   0  0  0  0  0  0  0  0  0  0  0  0
    6.6260   -3.0376  -17.5518 C   0  0  0  0  0  0  0  0  0  0  0  0
    6.3349    8.3621  -21.1894 C   0  0  0  0  0  0  0  0  0  0  0  0
    6.1273   10.2403  -19.6404 C   0  0  0  0  0  0  0  0  0  0  0  0
    6.6149    1.1564  -21.5333 C   0  0  0  0  0  0  0  0  0  0  0  0
    5.0733   -0.4743  -20.5672 C   0  0  0  0  0  0  0  0  0  0  0  0
    7.1824   -1.2137  -21.5521 C   0  0  0  0  0  0  0  0  0  0  0  0
    7.7767   -2.2265  -17.6912 C   0  0  0  0  0  0  0  0  0  0  0  0
    6.5987    8.9411  -19.9271 C   0  0  0  0  0  0  0  0  0  0  0  0
    5.3961    0.8631  -20.8809 C   0  0  0  0  0  0  0  0  0  0  0  0
    7.5081    0.1212  -21.8611 C   0  0  0  0  0  0  0  0  0  0  0  0
    5.9654   -1.5113  -20.9067 C   0  0  0  0  0  0  0  0  0  0  0  0
    7.9661   -0.4483  -15.2532 C   0  0  0  0  0  0  0  0  0  0  0  0
    6.1164    5.9568  -18.6977 C   0  0  0  0  0  0  0  0  0  0  0  0
    6.8983    2.1174  -17.8153 C   0  0  0  0  0  0  0  0  0  0  0  0
    5.3526    7.8697  -17.2859 C   0  0  0  0  0  0  0  0  0  0  0  0
    8.3763    1.7571  -15.8208 C   0  0  0  0  0  0  0  0  0  0  0  0
    4.6193    6.8337  -16.4330 C   0  0  0  0  0  0  0  0  0  0  0  0
    7.0765   -0.1141  -16.4774 C   0  0  1  0  0  0  0  0  0  0  0  0
    5.0723    5.0194  -18.0122 C   0  0  2  0  0  0  0  0  0  0  0  0
    7.0684    1.4276  -16.4687 C   0  0  2  0  0  0  0  0  0  0  0  0
   13.2593    1.0635  -13.8167 C   0  0  0  0  0  0  0  0  0  0  0  0
    7.6543   -0.7170  -17.7851 C   0  0  0  0  0  0  0  0  0  0  0  0
    4.4708    1.9907  -20.4624 C   0  0  0  0  0  0  0  0  0  0  0  0
    7.3092    8.1490  -18.8482 C   0  0  0  0  0  0  0  0  0  0  0  0
   11.8566    1.0977  -13.2033 C   0  0  0  0  0  0  0  0  0  0  0  0
   10.8265    0.9075  -14.3075 C   0  0  0  0  0  0  0  0  0  0  0  0
    9.4273    0.8958  -13.6965 C   0  0  0  0  0  0  0  0  0  0  0  0
    4.3196    4.0722  -18.9818 C   0  0  2  0  0  0  0  0  0  0  0  0
    5.2103    2.9176  -19.4839 C   0  0  1  0  0  0  0  0  0  0  0  0
    6.3496    7.2438  -18.1832 N   0  0  0  0  0  0  0  0  0  0  0  0
    8.4547    0.7676  -14.7631 N   0  0  0  0  0  0  0  0  0  0  0  0
    5.6238    2.1193  -18.3351 N   0  0  0  0  0  0  0  0  0  0  0  0
    4.0430    5.8256  -17.3290 N   0  0  0  0  0  0  0  0  0  0  0  0
    8.1647   -1.5575  -14.7693 O   0  0  0  0  0  0  0  0  0  0  0  0
    6.8413    5.5188  -19.5839 O   0  0  0  0  0  0  0  0  0  0  0  0
    7.7980    2.7927  -18.3092 O   0  0  0  0  0  0  0  0  0  0  0  0
    3.8076    4.8282  -20.0750 O   0  0  0  0  0  0  0  0  0  0  0  0
    8.6807    0.4110  -22.4684 F   0  0  0  0  0  0  0  0  0  0  0  0
    5.6700   -2.7895  -20.5826 F   0  0  0  0  0  0  0  0  0  0  0  0
    8.1527   -6.0773  -17.2085 H   0  0  0  0  0  0  0  0  0  0  0  0
    4.6349   10.9534  -22.6310 H   0  0  0  0  0  0  0  0  0  0  0  0
   10.1771   -4.6517  -17.4547 H   0  0  0  0  0  0  0  0  0  0  0  0
    5.8864   -5.0495  -17.2691 H   0  0  0  0  0  0  0  0  0  0  0  0
    5.4290    8.6482  -23.1305 H   0  0  0  0  0  0  0  0  0  0  0  0
    5.0732   11.9663  -20.4005 H   0  0  0  0  0  0  0  0  0  0  0  0
    9.9385   -2.1971  -17.7624 H   0  0  0  0  0  0  0  0  0  0  0  0
    5.6431   -2.5910  -17.5796 H   0  0  0  0  0  0  0  0  0  0  0  0
    6.6773    7.3609  -21.4060 H   0  0  0  0  0  0  0  0  0  0  0  0
    6.3076   10.6770  -18.6692 H   0  0  0  0  0  0  0  0  0  0  0  0
    6.8610    2.1784  -21.7807 H   0  0  0  0  0  0  0  0  0  0  0  0
    4.1436   -0.7031  -20.0675 H   0  0  0  0  0  0  0  0  0  0  0  0
    7.8655   -2.0095  -21.8098 H   0  0  0  0  0  0  0  0  0  0  0  0
    4.6161    8.4121  -17.8969 H   0  0  0  0  0  0  0  0  0  0  0  0
    5.8686    8.5769  -16.6200 H   0  0  0  0  0  0  0  0  0  0  0  0
    9.2104    1.6495  -16.5298 H   0  0  0  0  0  0  0  0  0  0  0  0
    8.3722    2.7782  -15.4117 H   0  0  0  0  0  0  0  0  0  0  0  0
    5.3264    6.3547  -15.7398 H   0  0  0  0  0  0  0  0  0  0  0  0
    3.8184    7.3233  -15.8596 H   0  0  0  0  0  0  0  0  0  0  0  0
    6.0576   -0.4942  -16.3116 H   0  0  0  0  0  0  0  0  0  0  0  0
    5.6012    4.4034  -17.2700 H   0  0  0  0  0  0  0  0  0  0  0  0
    6.2555    1.7599  -15.8062 H   0  0  0  0  0  0  0  0  0  0  0  0
   14.0100    1.2004  -13.0244 H   0  0  0  0  0  0  0  0  0  0  0  0
   13.4199    0.0936  -14.3102 H   0  0  0  0  0  0  0  0  0  0  0  0
   13.3556    1.8718  -14.5566 H   0  0  0  0  0  0  0  0  0  0  0  0
    8.6505   -0.2877  -17.9676 H   0  0  0  0  0  0  0  0  0  0  0  0
    6.9868   -0.4633  -18.6218 H   0  0  0  0  0  0  0  0  0  0  0  0
    4.1641    2.5632  -21.3502 H   0  0  0  0  0  0  0  0  0  0  0  0
    3.5805    1.5722  -19.9704 H   0  0  0  0  0  0  0  0  0  0  0  0
    8.1174    7.5564  -19.3017 H   0  0  0  0  0  0  0  0  0  0  0  0
    7.7340    8.8410  -18.1061 H   0  0  0  0  0  0  0  0  0  0  0  0
   11.7578    0.2893  -12.4639 H   0  0  0  0  0  0  0  0  0  0  0  0
   11.6935    2.0675  -12.7103 H   0  0  0  0  0  0  0  0  0  0  0  0
   10.9052    1.7336  -15.0295 H   0  0  0  0  0  0  0  0  0  0  0  0
   11.0110   -0.0474  -14.8213 H   0  0  0  0  0  0  0  0  0  0  0  0
    9.3325    0.0455  -13.0052 H   0  0  0  0  0  0  0  0  0  0  0  0
    9.2547    1.8343  -13.1493 H   0  0  0  0  0  0  0  0  0  0  0  0
    3.4806    3.6280  -18.4263 H   0  0  0  0  0  0  0  0  0  0  0  0
    6.0924    3.3399  -19.9875 H   0  0  0  0  0  0  0  0  0  0  0  0
    4.9384    1.5371  -17.8978 H   0  0  0  0  0  0  0  0  0  0  0  0
    3.4617    5.2143  -16.7919 H   0  0  0  0  0  0  0  0  0  0  0  0
    3.4892    6.2902  -18.0200 H   0  0  0  0  0  0  0  0  0  0  0  0
    3.3457    4.2507  -20.6713 H   0  0  0  0  0  0  0  0  0  0  0  0
  1  3  2  0
  1  4  1  0
  2  5  2  0
  2  6  1  0
  3  7  1  0
  4  8  2  0
  5  9  1  0
  6 10  2  0
  7 14  2  0
  8 14  1  0
  9 15  2  0
 10 15  1  0
 11 16  2  0
 11 17  1  0
 12 16  1  0
 12 18  2  0
 13 17  2  0
 13 18  1  0
 14 29  1  0
 15 31  1  0
 16 30  1  0
 17 45  1  0
 18 46  1  0
 19 25  1  0
 19 38  1  0
 19 41  2  0
 20 26  1  0
 20 37  1  0
 20 42  2  0
 21 27  1  0
 21 39  1  0
 21 43  2  0
 22 24  1  0
 22 37  1  0
 23 27  1  0
 23 38  1  0
 24 40  1  0
 25 27  1  0
 25 29  1  0
 26 35  1  0
 26 40  1  0
 28 32  1  0
 30 36  1  0
 31 37  1  0
 32 33  1  0
 33 34  1  0
 34 38  1  0
 35 36  1  0
 35 44  1  0
 36 39  1  0
  1 47  1  0
  2 48  1  0
  3 49  1  0
  4 50  1  0
  5 51  1  0
  6 52  1  0
  7 53  1  0
  8 54  1  0
  9 55  1  0
 10 56  1  0
 11 57  1  0
 12 58  1  0
 13 59  1  0
 22 60  1  0
 22 61  1  0
 23 62  1  0
 23 63  1  0
 24 64  1  0
 24 65  1  0
 25 66  1  1
 26 67  1  1
 27 68  1  1
 28 69  1  0
 28 70  1  0
 28 71  1  0
 29 72  1  0
 29 73  1  0
 30 74  1  0
 30 75  1  0
 31 76  1  0
 31 77  1  0
 32 78  1  0
 32 79  1  0
 33 80  1  0
 33 81  1  0
 34 82  1  0
 34 83  1  0
 35 84  1  1
 36 85  1  6
 39 86  1  0
 40 87  1  0
 40 88  1  0
 44 89  1  0
M  CHG  1  40   1
M  END
>  <OMEGA_C>  (63) 
SMQAQcRXoMC2vIrBuYulQGJMJkFaC6/Bex0TQWKFhsA42ovB33DYQAe6jcCKA4vBFge0QCJvEUFI
UbHBAIetQGR8L0HG8aTBTPIQQXwoNMDIPo3BgwjUQKxoQsAiaozBN7fKQPXKBUHUg6nBPBPEQFrY
I0GGH53Baa3TQGoDlD80RKzByliiQGLb8r6uiaTBatblQKJZm7+waqzBntr4QLN+DsCMh43ByCjT
QMUOD0Gwap/BfqysQCr1XD8mDKfBj0LwQDlK+D2S467BuuS+QHZxwb/oQKfBWur+QDaJ5b4vDXTB
TrnDQCievkDmlJXBOb/cQM6DB0C0hY7BJkirQHvU+0CcSYrBKwUGQT3q4D8lIn3BRdGTQE6t2kDO
doPBiHLiQOWd6b2+0YPBclCiQDufoEDmGJDBrzDiQLi8tj/Mv4PB9SVUQZAgiD9UEV3B6+/0QA2M
N7/YR47BHxGPQIzQ/j8As6PBJuXpQHZiAkEeyZbBg7Q9QQSDjD+wQFPBiTktQVNTaD9k62TBKtYW
QRRWZT/7JFvBkTqKQD1PgkDO2pfB67qmQKi5OkAa35vBTjDLQOrM50Amd5HBWUYHQRqARD+RNWzB
+fWzQPCiB0AyrpLBDGCBQP9qukDgoYrBxaICQZFcx7/uTmzBMuzaQMWZsEDkq5zBSIn5QDC7MkBG
eZLBL7BzQPiAmkCmmaDBKOQKQVBt0j40v7PB63C1QNqHMsAyqaTBhHECQQt5wsD9qonB1VCUQBZB
L0FFDLXBVdUiQW3alMA7o4vBeF28QEOVocAPJ4rB9rmtQBZfCkE/C7nB5VeiQBZ2P0E+NKPBFgQf
QXKdDMB9GY7BiZS0QEzSJcAJo4zBCqzVQKuM60BqP6vBx9fJQArVKkGGWpXB7ozbQHZrC0DvPq7B
wJiEQMz9M782iqDBPLL7QCGcAMB1eq7BvbaTQBiYBkHwLI/Bicu7QBc7CUGz9YTB0l0TQa8j0z8F
PYTBgPQFQYHOMUBllnbBtnGqQGNZy0AO1nvBamB0QHBY6kDxwH3BNNjBQIYD/b4ofoLB+DyzQELo
jEANKYrBPy3IQKdD4T9l5nzBzyhgQfimmT8kZFDB9rdWQTO/vz299mTBi7BVQZyW7z/H52jBWGgK
QcBLk76rvY/BpZPfQDMz7b5m+ZTBi0CFQAsLJEBIzarBpCZlQG48yT9ow5/BxOABQbbN8UDMaZrB
CX33QL10DUFC2ZDBEyA8QacflD46bEfBqBg7QUlRBEBFXUvB1nsuQYLn3T/peHDBBi0wQeo+Qr0y
JG3BCVIVQYRyOj00FVDBJBMUQTrL6j+MY1LBfsFeQN4xaED2aJPBA/XCQE3AVUBw5p/BJQeeQCW/
xD+hLo/B0YxdQNvbpkDBVYbBv09fQJJJyUAEKZDB+x9WQKcFiEDXXqXB

>  <OMEGA_E>  (63) 
jGQmPw==

>  <OMEGA_NBR>  (63) 
     30379

$$$$
50147916
     RDKit          3D

 77 81  0  0  1  0  0  0  0  0999 V2000
    6.9979   -4.3308  -18.5535 C   0  0  0  0  0  0  0  0  0  0  0  0
    5.2703   10.3939  -21.8643 C   0  0  0  0  0  0  0  0  0  0  0  0
    5.9061   -4.0768  -17.6992 C   0  0  0  0  0  0  0  0  0  0  0  0
    8.2934   -3.9068  -18.1947 C   0  0  0  0  0  0  0  0  0  0  0  0
    5.4942   10.9692  -20.5976 C   0  0  0  0  0  0  0  0  0  0  0  0
    5.7233    9.0878  -22.1366 C   0  0  0  0  0  0  0  0  0  0  0  0
    6.1028   -3.3599  -16.5045 C   0  0  0  0  0  0  0  0  0  0  0  0
    8.4939   -3.1969  -16.9952 C   0  0  0  0  0  0  0  0  0  0  0  0
    6.1712   10.2398  -19.6027 C   0  0  0  0  0  0  0  0  0  0  0  0
    6.4048    8.3581  -21.1437 C   0  0  0  0  0  0  0  0  0  0  0  0
    6.6647    1.0105  -21.3984 C   0  0  0  0  0  0  0  0  0  0  0  0
    4.8608   -0.4408  -20.6171 C   0  0  0  0  0  0  0  0  0  0  0  0
    6.9544   -1.4101  -21.4073 C   0  0  0  0  0  0  0  0  0  0  0  0
    7.3927   -2.8983  -16.1607 C   0  0  0  0  0  0  0  0  0  0  0  0
    6.6394    8.9372  -19.8748 C   0  0  0  0  0  0  0  0  0  0  0  0
    5.3655    0.8494  -20.8656 C   0  0  0  0  0  0  0  0  0  0  0  0
    7.4630   -0.1188  -21.6540 C   0  0  0  0  0  0  0  0  0  0  0  0
    5.6501   -1.5685  -20.8964 C   0  0  0  0  0  0  0  0  0  0  0  0
    8.6630    0.3614  -14.9586 C   0  0  0  0  0  0  0  0  0  0  0  0
    6.1042    5.9684  -18.6791 C   0  0  0  0  0  0  0  0  0  0  0  0
    7.0016    2.2575  -17.7772 C   0  0  0  0  0  0  0  0  0  0  0  0
    8.5708    1.6246  -15.8184 C   0  0  0  0  0  0  0  0  0  0  0  0
    5.3007    7.8679  -17.2804 C   0  0  0  0  0  0  0  0  0  0  0  0
    7.1007   -0.0148  -16.6818 C   0  0  0  0  0  0  0  0  0  0  0  0
    4.5283    6.8325  -16.4603 C   0  0  0  0  0  0  0  0  0  0  0  0
    5.0570    5.0244  -18.0165 C   0  0  2  0  0  0  0  0  0  0  0  0
    7.2049    1.4844  -16.4750 C   0  0  2  0  0  0  0  0  0  0  0  0
    4.5288    2.0534  -20.5078 C   0  0  0  0  0  0  0  0  0  0  0  0
    7.5628   -1.9471  -14.9934 C   0  0  0  0  0  0  0  0  0  0  0  0
    7.3132    8.1460  -18.7727 C   0  0  0  0  0  0  0  0  0  0  0  0
    4.3522    4.0637  -18.9948 C   0  0  2  0  0  0  0  0  0  0  0  0
    5.2870    2.9494  -19.5139 C   0  0  1  0  0  0  0  0  0  0  0  0
    7.7702   -0.5775  -15.4973 N   0  0  0  0  0  0  0  0  0  0  0  0
    6.3302    7.2433  -18.1417 N   0  0  0  0  0  0  0  0  0  0  0  0
    5.7541    2.1408  -18.3781 N   0  0  0  0  0  0  0  0  0  0  0  0
    3.9943    5.8219  -17.3773 N   0  0  0  0  0  0  0  0  0  0  0  0
    9.3946    0.2197  -13.9865 O   0  0  0  0  0  0  0  0  0  0  0  0
    6.8401    5.5481  -19.5645 O   0  0  0  0  0  0  0  0  0  0  0  0
    7.8337    3.0714  -18.1646 O   0  0  0  0  0  0  0  0  0  0  0  0
    3.7980    4.8155  -20.0736 O   0  0  0  0  0  0  0  0  0  0  0  0
    8.7186    0.0375  -22.1305 F   0  0  0  0  0  0  0  0  0  0  0  0
    5.1525   -2.8032  -20.6698 F   0  0  0  0  0  0  0  0  0  0  0  0
    6.8414   -4.8521  -19.4863 H   0  0  0  0  0  0  0  0  0  0  0  0
    4.7508   10.9547  -22.6272 H   0  0  0  0  0  0  0  0  0  0  0  0
    4.9203   -4.4318  -17.9610 H   0  0  0  0  0  0  0  0  0  0  0  0
    9.1317   -4.1263  -18.8393 H   0  0  0  0  0  0  0  0  0  0  0  0
    5.1461   11.9703  -20.3903 H   0  0  0  0  0  0  0  0  0  0  0  0
    5.5479    8.6464  -23.1066 H   0  0  0  0  0  0  0  0  0  0  0  0
    5.2668   -3.1623  -15.8500 H   0  0  0  0  0  0  0  0  0  0  0  0
    9.4874   -2.8811  -16.7133 H   0  0  0  0  0  0  0  0  0  0  0  0
    6.3327   10.6781  -18.6289 H   0  0  0  0  0  0  0  0  0  0  0  0
    6.7485    7.3556  -21.3512 H   0  0  0  0  0  0  0  0  0  0  0  0
    7.0439    1.9996  -21.6089 H   0  0  0  0  0  0  0  0  0  0  0  0
    3.8673   -0.5636  -20.2119 H   0  0  0  0  0  0  0  0  0  0  0  0
    7.5641   -2.2783  -21.6097 H   0  0  0  0  0  0  0  0  0  0  0  0
    8.6211    2.5313  -15.1976 H   0  0  0  0  0  0  0  0  0  0  0  0
    9.3720    1.6509  -16.5716 H   0  0  0  0  0  0  0  0  0  0  0  0
    4.5912    8.4165  -17.9172 H   0  0  0  0  0  0  0  0  0  0  0  0
    5.7934    8.5697  -16.5914 H   0  0  0  0  0  0  0  0  0  0  0  0
    6.0486   -0.3326  -16.7258 H   0  0  0  0  0  0  0  0  0  0  0  0
    7.6149   -0.3201  -17.6051 H   0  0  0  0  0  0  0  0  0  0  0  0
    5.2027    6.3557  -15.7337 H   0  0  0  0  0  0  0  0  0  0  0  0
    3.7015    7.3234  -15.9260 H   0  0  0  0  0  0  0  0  0  0  0  0
    5.5710    4.4247  -17.2509 H   0  0  0  0  0  0  0  0  0  0  0  0
    6.4335    1.7974  -15.7560 H   0  0  0  0  0  0  0  0  0  0  0  0
    4.3089    2.6273  -21.4200 H   0  0  0  0  0  0  0  0  0  0  0  0
    3.5867    1.7181  -20.0495 H   0  0  0  0  0  0  0  0  0  0  0  0
    6.6600   -1.9732  -14.3654 H   0  0  0  0  0  0  0  0  0  0  0  0
    8.4341   -2.2531  -14.3958 H   0  0  0  0  0  0  0  0  0  0  0  0
    8.1357    7.5523  -19.1981 H   0  0  0  0  0  0  0  0  0  0  0  0
    7.7133    8.8379  -18.0169 H   0  0  0  0  0  0  0  0  0  0  0  0
    3.5341    3.5759  -18.4445 H   0  0  0  0  0  0  0  0  0  0  0  0
    6.1444    3.4102  -20.0262 H   0  0  0  0  0  0  0  0  0  0  0  0
    5.1264    1.4548  -18.0102 H   0  0  0  0  0  0  0  0  0  0  0  0
    3.3961    5.2066  -16.8639 H   0  0  0  0  0  0  0  0  0  0  0  0
    3.4658    6.2826  -18.0903 H   0  0  0  0  0  0  0  0  0  0  0  0
    3.3625    4.2273  -20.6793 H   0  0  0  0  0  0  0  0  0  0  0  0
  1  3  2  0
  1  4  1  0
  2  5  2  0
  2  6  1  0
  3  7  1  0
  4  8  2  0
  5  9  1  0
  6 10  2  0
  7 14  2  0
  8 14  1  0
  9 15  2  0
 10 15  1  0
 11 16  2  0
 11 17  1  0
 12 16  1  0
 12 18  2  0
 13 17  2  0
 13 18  1  0
 14 29  1  0
 15 30  1  0
 16 28  1  0
 17 41  1  0
 18 42  1  0
 19 22  1  0
 19 33  1  0
 19 37  2  0
 20 26  1  0
 20 34  1  0
 20 38  2  0
 21 27  1  0
 21 35  1  0
 21 39  2  0
 22 27  1  0
 23 25  1  0
 23 34  1  0
 24 27  1  0
 24 33  1  0
 25 36  1  0
 26 31  1  0
 26 36  1  0
 28 32  1  0
 29 33  1  0
 30 34  1  0
 31 32  1  0
 31 40  1  0
 32 35  1  0
  1 43  1  0
  2 44  1  0
  3 45  1  0
  4 46  1  0
  5 47  1  0
  6 48  1  0
  7 49  1  0
  8 50  1  0
  9 51  1  0
 10 52  1  0
 11 53  1  0
 12 54  1  0
 13 55  1  0
 22 56  1  0
 22 57  1  0
 23 58  1  0
 23 59  1  0
 24 60  1  0
 24 61  1  0
 25 62  1  0
 25 63  1  0
 26 64  1  1
 27 65  1  1
 28 66  1  0
 28 67  1  0
 29 68  1  0
 29 69  1  0
 30 70  1  0
 30 71  1  0
 31 72  1  1
 32 73  1  6
 35 74  1  0
 36 75  1  0
 36 76  1  0
 40 77  1  0
M  CHG  1  36   1
M  END
>  <OMEGA_C>  (64) 
Ju/fQPyVisCTbZTB/KWoQIpNJkEK6q7B9f68QEh1gsDol43B5LEEQUQJesCxjpHBotCvQN2BL0Hm
x6TBXCW3QH9nEUG9F7HBMErDQB4IV8BRCYTB9uYHQc6aTMA29ofBv3rFQEjWI0E/0pzB3vPMQOa6
BUFBJqnB9UTVQKVZgT/aL6vBCYybQHG24b7k76TBKYreQOh+tL8ZQqvBHZHsQGB+OcAlSYHBF3bU
QNL+DkGI/57B9rGrQN5xWT/Z7KbBfdDuQJBk871dO63Bvs20QPjEyL/gK6fBf5sKQUAJuT5NVm/B
WFXDQDr9vkDVbpXBVQ3gQCB6EEC0N47B6SEJQSHyzz8OGH3BuJ+pQJfF+0A8PorBVTnjQBwxcrxr
dIXBD+iQQNSj2kDFroPBjNKhQCjIoEDUIZDBqI7mQDkAvj/fzIPB+OuQQBpqA0D9D6TBJwLyQCI6
+b/z5G/B5QXqQBJWAkFsLpbBM0WLQIoJgkBR9ZfBwC6pQFPCPECMHJzBY6X4QLvWE78M9XfBGJHK
QBfJ50AeIpHB0iG4QHsCCUBxBpPBPKN/QMRMukC8BIvBWVAWQYYCYT6VyF/BHuLaQF6KsUAYhJzB
3q36QACSREAVUZHBHhJzQOMYmkC7lqDBlH8LQVdpGT0yC7HB8OCkQNdnM8CuW6XB8+zaQHZEm8D8
45vBpQaYQJtGL0GGBLXBP3OdQKPRjcAbsI/BkBsSQVEKhMDRtpbBIa2kQHiGP0FHH6PBnYixQMNX
CkFB2rjBromoQDVjSsB7mX3BlMwXQUhkOMDKtIXBbaXKQJbZKkH6B5XBG/TXQKxg60Axz6rBwmfh
QI/z/z/x3qzB5IF3QPJKEL8FsqHBugzyQIXPEcCb4KzBHPAJQcsAIkB+KXPB1fMVQdFQ0z+TkoTB
FOuSQNapBkGDVo/BjGO5QIIdCUEqu4TB6Y3BQGVHqr58zoXBMK3zQEnlo75I14zBb3ymQDNiy0Bs
vXvBL+ZsQOZY6kD00H7Bj0WyQIKXjUDjAYrBh9/NQLYP5j+KGHzBQuKJQCgmKEBAXKvBq4xlQCHr
2z9PZaDByR7VQOGS/L/G2GXBF/IGQcMyEMAzVWbBxSsCQRes8UC7lZnBMtP2QCNoDUGTIpDBKy5i
QMrbZEBsjpPB4J7EQCNBWkClNaDBjwukQC82uj/oFJDBqllZQNycpkA76YbBns9dQBILyUD2uJDB
mzJXQE9Gh0Amb6XBNdKVQNWnhcBXFYrBawekQKXFJkEVd7DBpIy4QEFYlcC+G5DBghidQKXiUsBU
f4HBTh6zQE3fEUH3YbLBhvOqQGiIMEGGc6bBk0jiQLiJhsASC47BpuXGQMhoN8AxXn7BQV/JQGXF
BkEST6rB+QbBQKBtJUHNW57B92DXQGrGjT/GwKrBhbOfQFVCxL6c86PBWd3iQH/Cpr/1oqrBBjHp
QBUwUMAT54XBKsDQQGieEEG6S6DBfXquQKS3aj9XOKbBnKzxQABxk7qK36zBG9e5QK39vr+EMqbB
+NEJQYuUvr6Hn3TB64XCQDlxwkATxpXBpLrcQFckCUBNWIzBeVMEQTjniz8gO3nB6xWnQDtKAEGX
SovBLtXxQI9Qir46H4vBOZ6PQGAB4EBcSYTByhWiQHJNpED3B5DBdobkQNT+dT8MuYTB6VWTQAva
BkCZV6PBi9sJQXMlIsCjOYXBNRjnQH+YBEFGYZfBKheMQCfkg0C6d5fBMVKqQG7LPkBx8ZrB4QYG
QVf9ir+8xIPB+m7IQEhW7EDcBJLBM3y1QCuVCUC/npHBydZ+QPLEvUDHLovBL5UQQVqAUb8PqmPB
2AjaQElatEDpypzBIzT5QLFjPEDuhY7BWNp1QLMwmkDVeqDBLqYMQZwCPz5Z8bDBararQJowL8A9
9qPBgiprQGVKj8BbDozBwSSTQPVQL0EmrbbBpCSzQAPCrMB1UZbBl5aCQBC9PMBwY3nBEZ6tQGhe
CkELC7rBdlCfQKuJQEF2/KTBzOf8QLB0ksB0rZLBvNnMQEl1D8CmlXDBR87UQGF07UCMxKvBbfHF
QHbYLEEFp5bB2XXiQJavBkA6l6zBs12AQKofB7/afqDBzvX2QLf3CcArU6zBqdP9QHshzj9SrGrB
sBcSQShv0D/LCYDBJK6PQKw3CEHViJDB5VC2QAxFDEHPFobB8HPVQF9hVb8+uo3Bo1sCQbNY0Txn
KZLBmdKlQEua0kCFrHzBBYxpQCOt70A8KIDBVzezQIyqkkDRu4nBeZfGQIg3PT8ycoDB4FyNQGwq
LUB9kqrBu1xpQPcH4T/iCaDBTwsTQcj4OsD0x3zBFe4SQS2zLMBMpozB/sQAQTU/9kDsvZrBSNnz
QFcXEEFeh5HBKC9jQCqhakAD95LBcGXHQIJcWkDbgp7BkteeQJh/xD+c1I7BV+9ZQNxYqkCwzobB
BOhbQOXXykD5CJHB/X9aQPhohkAOIaXB3+2VQJFeh8CLG4vBFt2kQDZoJkFpNbDBbE65QBAdlMD8
VJHBOOabQISJWMD2PILB8AWsQIY0MEH1NqbBCcKzQJZ4EUHCHbLBKVPiQCC1g8AUGY/BiQrFQLgT
OsDtg3/B0SHCQFEaJUEhIZ7BqgDKQOZcBkHJC6rBEszWQKZAiD98xarBccidQOF4xr5hIKTB2TXg
QEJqrb+c0qrBePbnQAXOTcCshobBfZTRQH09EEH5C6DBbLatQI7DZj8mRqbB8ivwQGzggb238qzB
JPO2QCPXwb9LcqbBJwwKQUeno76icXTBR8HCQHnkwUB8sJXBN4vdQMbjDED8VIzB0IQFQQzukz/a
f3nBcUunQKvT/0BVK4vBgZzvQBo7Xb6srIrBTzGPQLBG30A6SoTBmh+iQNnDo0COCpDBUU3lQF2H
hj87bITBbE6TQJnDBkBAaKPBmAMJQUD/HsAmMIXB5rrnQNUxBEFpHJfBNmWMQD+Fg0Bui5fB+NCq
QK+3PkBPHJvBbrsEQbIphr8JaoPB3NvIQLaO60AE05HBKcS2QBDzCUD10ZHBYIx+QLQlvUAEQovB
TXARQeaXQr/UtWPBW1naQLHts0C/tJzBHzL5QL5gQkCNUo7BHAp2QDr/mUBYgaDB8PwLQdBdwz0a
/LDBf36nQLnrL8BAaaTBLGtsQD9oksAZJY3BMPGTQPbzLkHBabbBXPW0QKF+qsA705fB++aAQHhg
RsCSsHrB0omgQMI9QEF+wqTBQh2uQIbyCUHow7nBCV79QOsmjcCd7pPB2f7JQHWeE8BUX3HBr0jH
QHCQLEGMcZbBm0jVQKmT7ECifqvBc7fiQO9yA0B9iazBcpV8QPiBAr8ztKDBAZrzQII7DsBBjKzB
WC4BQdxy2z8J+WrBvV0TQfpJ0T+jmIDBi0iQQHb+B0F3dpDBHGy2QAbFC0HV4IXBxvzRQBiMPb+7
6IzB1PIAQSwQ5Dy475HBru6kQCC50UCIgnzB/kxoQGAL70ACRIDBWwKzQAUKkkDYt4nBZufHQJ3m
Yj8CiH/BzWKNQAHJLEAAqqrBezJpQEj74j+gBqDBgbARQZZLOcDJi3zBU8ASQT/+JsA9c4zB9R4B
QRhx9UBAcJrBJlv0QOSpD0G+OpHBaANkQAAvaUDnEpPB+4PHQNnGWkB5zp7BC/ugQJYIwD9VM4/B
WUxZQI+oqUCE8obBsxVcQAtPykAuJJHBGP5aQOpEhkA+MqXBrdCTQNvChsCl54rBizSlQG1oJkFO
KLDBu0qZQOFiUcC8ooLBhLS3QLr5lsBUZZDBxiGsQAw7MEG5KKbBtEe0QGx/EUEdC7LBHH7CQHfM
M8DwEoDBXNjgQBD5hsCwIo7B2iTCQJwqJUH0Cp7B1XvKQEVxBkEU86nBFlfXQEpviD+llKrBGi6e
QMJ4xb4HAaTBGuXgQLotrb++g6rBDwXmQPDiTcBITIbB58jRQO5UEEHc8J/B5RyuQIk5Zz84KqbB
JtPwQFBjfb3PrKzBNoW3QMqfwb8pNKbBOd0JQSYkqr4aw3TB/JvCQFErwkAYqpXBg87dQGsEDUAP
bozBvW4FQc6gkj/csXnBWiynQPn4/0C2FovBX/XvQKQUV75Y64rBQfKOQIdZ30DoQYTB8+6hQBID
pEBkDJDBPVzlQHIghj8dloTBpY2TQErnBkBwY6PBJTwIQZ73H8B1QoXBlcPnQB1NBEF1+ZbBNEeM
QHamg0BlipfB7NaqQGFNP0C/GpvBvoMEQaggh78umIPBxMbIQPe+60D+vZHBlr62QL0TC0CDx5HB
oBx+QJ1cvUBaRYvBQDYRQRexR790D2TBO2/aQFswtEAXoZzB/C/6QAsmQEAnuo7BFjJ1QC7dmUA7
f6DB31YMQfDZxj1drrDBoimoQFzRL8ABGaTBiiVoQGRrkcBlC43B1FKUQIDqLkGzYbbBlLp7QAUE
OsDsh3zBDKezQP+0r8BfWJbBXYugQGVBQEFeuaTBGM6uQPnzCUHlsbnBrg3HQFA1CcAGu3LBS1X8
QFkwk8DEY5LBWRLHQJCiLEF3WZbBhPLVQOjK7EAUY6vBeUjjQG2FA0DRWKzBtRh9QDDvAb+xqaDB
Bmf0QJwZDsDOKazBvAIBQX6E2T8zJWvBRFkTQdEh0D9Hn4DBlD6QQLUgCEGZYZDB6Ei2QLrJC0G1
w4XBx3LSQDvYOb84XY3B4HMBQRqEKz2DDpLBW5mkQLaq0UBDcXzBgsRnQDEY70BlPIDBf8myQOFS
kkChtonBcNXHQGQ5YD+y/n/Bp72NQCSRLEAGrqrBWZlpQDNP4z/qB6DBphkRQYsbOsCHynzBsZ4R
QetgKcBOnIzBQjABQYmv9UAcQ5rBjDj0QCrGD0GEEpHBYhlkQNgraUAcCpPBeYLHQAGRW0BIyp7B
+6+gQLWbxD/3BI/BSrBYQIDVqUC0/obBAthbQICkykDLJ5HBs09aQLr4hUC6KKXBrS2WQGpCiMCL
6orBKQqlQKYXJkFhSrDBwoabQOsWWcACJILBWvC5QNQQlcB7/pDBLmS0QKQ6EUGHKrLBfRWsQGcD
MEGLUqbBsXPEQNzROcDYK3/BCMLiQJ5ZhMCyrI7BFd7KQPVKBkFDFKrBS13CQBcRJUHeNp7B3AzX
QIaoiT9FBKvBKfqeQJThxb6dBKTBGzfgQM4mrL/ReqvBls7nQDASTsB0MIbBPh3SQOU+EEFKFaDB
RIiuQELqZz85OKbBMObvQIBdT72gn63B1sS3QBJTwb+MqqbBF/MJQTxmnb4o8nPB1IDCQDZFwkD+
tZXBzNrdQOyiDEDaTIzBiV4FQf0WlT8jK3nBrRinQHglAEECPovBOabvQCRUY77Sd4rBjv6OQFTe
30BXUoTBtwSiQN0mpEDXApDBU0HlQAy4hj+XUoTBbeeTQNG6BkCsTqPB8eYIQTwcH8Bgw4TBqfDn
QNZEBEGLE5fBK3CMQM6Gg0BdcpfBACKrQGsJP0DpBJvBM5kEQVIlhr97GYPBkMrIQMLf60DC05HB
qPi2QIpjCkDEuZHBHTt+QOeQvUC8P4vB3DARQTkjPb+OFmPBrQXaQE5GtEDHvJzBr9r5QDsdQUCy
Z47BxP90QMqkmUCEZKDB/WALQUjo4z0uMrLB1auoQMnfL8CCkqTBi0xtQNG3k8A//ozBktqTQEh9
LkEbgLbBPTiAQF6aRsBJwHrB3Am2QL28q8AdcZfBXeuuQB6hCUHczbnBKmGgQOgFQEGp56TBSejI
QFpWEsD0KXHBVxv+QOfzjcA6YZPB/5TWQJuU7EAAg6vBxGrHQF2eLEHki5bBQvLiQN5XBECQrqzB
nwuAQEhxA7/xTKDBXzPzQEZ2DcDVhq3Bn+QAQcwX3T+zuGrB4D8TQR5+0j/4ZYDB4B2QQNsdCEH8
lZDBiRi2QEAaDEEY/IXBYg3SQLsRP7+YuYzBlxcBQVbWTTzItZHBEbqkQE920kB1h3zBwdtnQCm0
70DRUoDBngOzQAuykkDcqInBI7THQP8RZT/7a3/BNsmNQD6+LED2jarBV5tqQGfe4T/P6p/BvGcR
Qf0AOcDYinvBP9ESQUyJJ8AF9YvBz0IBQel49UBtU5rBrGr0QCvHD0HLMZHBZLFkQG7SaEAh6JLB
XtDHQBdoW0DRr57BTAGhQO0ewj8DDY/BSxVZQCIfqkCD6YbBS65bQEOVykACJZHBUiVaQC6thUCZ
CaXBkqMLQcoLf8AmbJXB4rSgQI0tJkH236/BcHLqQEp+eMCUkJTB4LoYQSB/a8DZl4zBtAKwQIVj
EUGZ+LHBFtOoQOvnL0H16KXBYrfXQP6dWsDLCovBTXMPQaBPTcDhE4PBiJ/HQHBcBkGnHqrBIkjA
QMrgJEGaCp7BKgHXQLkMij+baKvBoPGdQHITxr7Q/aTBGqrfQD25q79uN6zBQCvyQL44QsCAaILB
iCDQQPwqEEELJqDBnA6uQL74Zz9j1qbBuvXvQLBZOr14/a3ByHu2QMkYwb8czKfBjp4HQX6wsL0E
jXDBAonDQISLwUBp55XBEhjiQBf0DED5zY3BZywJQc/cnz9i53zBhA6pQDOy/kBP8orBggrdQCpv
7L1M/oXB9TaSQMeJ3UB8+4PBRsijQPzaokBBI5DBIJPmQADeqz9lv4PB4oeTQO19BkCSwqPBsjng
QJwnC8DPM3PB8rHnQC4xBEFga5fBxmmNQBXGgkASmpfBVNurQALlPkAUuJvBBPrqQPFrRb+ANnjB
tNfJQMoK60CM8pHBfie6QHvcCUAFtZLBXHiBQPfLu0CC9YrBvKMTQRbb4r4EKWLBqJLaQJwZtEDr
F53BEhj9QImkQkB/NJDB7SR0QCqRmUCUP6DBF7MLQRik+D2BO7LBqAymQLWhL8DWX6bB58sSQfSP
icAK4JzBEryOQEWqLkGh6bXBKWrWQOo6hcDJPJvB1dopQbOsc8ChIY3BwaGpQJ3qCUG4mLnBnQmd
QAfVP0G9T6TBTFa1QMNcVsCCVorBdnAZQTmWPsA+i3jBLz/TQGjO7EDBtqvBjSrGQFNILEHqX5bB
qSDjQIudBEAx66zBcH19QJkfBL/ja6HBdbfyQPI0DcDzPa7B/eMLQUL2BUD683HBjAkWQVrYmz/Z
c4TBxjKRQIV3B0Ef/I/BmLO4QO4gC0EhtYXB6626QJy3jL4HaofBpV7vQPMc9b7d64zBje2oQPG1
z0DGbnzBBmhvQMfX7EDDRn/BqJG1QPvekECUBIrBqYLPQJRv2j+2invBxlWMQAQ8LECo96rBSO1q
QHsP4T9sGaDBeEe9QKTtEsCnYXLB8oLuQAd5HcBjyGPBngUBQYDd9UCZ+JrByLf0QI+vD0G8mpHB
ST1oQJ/YZUAb8JLB7XLHQFyxXECIt5/B5yulQDDivj+G0I/BU/1eQPfzp0Dvk4bBJddeQHxHyUDn
o5DBNl1YQH7thUA65aTBQxrJQAJ8i8DXcZHBkGGrQI8DJkGDi67BWhj1QKuHgcBtCZHBs0itQFoe
ecBTZonBVBGyQFAaL0E8XaTBHrO5QIUVEUFet7DBza8CQQZXUcDZjojBZne9QCE4R8Dz8IDB8QzH
QKpHI0HJWJzB7PHOQFlJBUFYuqjB+DLUQJCOfD8vIqvBgzSaQDAj7r5/C6XB3ALdQBW5t7/keqvB
mobpQMZCM8AMe4DBTfHVQNdrDkEuhp7BVJaqQFplUz/U4qbBiIXtQJlvE76JUK3BDUyzQFXxy7+Z
YafBuTwMQW5wAT/Kcm/BVwHDQLoNvkAFOZXBGTvfQLxXEkDFJ47BgOYIQU8x4z9yn3zBYqapQMWt
+kD68InBerLnQKgd9DwmnYXBxQWQQPyj2UCHkYPBdNugQIcYoECDGJDBV+nmQIU1wz+4v4PBndSP
QO3VAUD3+KPBJt/5QMlB7b+M2m/B4b7qQFyUAUErqZXBw3OKQOjGgUCZDZjBizOoQDaoO0BzGZzB
ZnH/QPawAL/DunjBHa7KQOaA5kDVxZDBQlu3QLLXCEB18JLBiNB9QLfcuUC0DYvBUgAYQRoz0D7M
2V/BhonaQEiosEDmUJzBVqf5QJDXRUDqfpHBErBzQH4vmkAbw6DBP+AKQYCqMTyeGbHBPU2jQO4D
NcD1n6XB67W8QJOZnsAk8ZfBKkObQDAaL0GksLTBxSgFQQn4jMAjOpfBCJ2LQB4+hMCRuInBLhWn
QJYmP0G/tqLB52C0QG4YCkFfgbjBbokTQdk9QsBuO4jBGiSoQI8fMMA5knXBv8LLQIEvKkHIg5TB
G+rZQL576kBnZKrB1YfgQB71/D+ss6zBxbZ0QNaIFr9a1qHBQ1TwQMt3E8AsN63BODEIQUl0KkDN
RHLBZrwVQVJf8z8zP4TBLYaTQGxqBkGKEI/BNXG5QLpPCEFYToTBRgPHQHJIwb6Z2YXBH0T4QHdF
V74GI43B5QClQCjRyUBpbXvB/hNrQFWR6UD/tX7BRMCwQG2QjEBl8onBFA3NQGXh4T+XMHzBBXKI
QBlaJkAfRKvBNbtjQIdz2D9AOqDBcbHiQHpi6L87n2LBv2gMQT7+DcDu1WnB54kCQVj270AG/ZjB
YGb3QAyHDEEuio/Ba2VfQIP4ZEDNzJPBnpzDQKqtWEDoQqDBf6GjQG3vuD8o9I/BjnVWQBxJpkCg
EofBSSFdQGsVyUB1yJDBigFYQDGhh0AzsKXB/CDlQIJNhsD7N5XBXq2nQK8LJkEsKq/BHvAGQVq+
cMDL35HBK4/BQFZFgsDdW47B4Me2QAE6EUHLRbHB32euQNJmL0H/C6XBUmUJQdpzScAp04fB21XG
QCqmXMBkWITBx8jMQJzKBUEHR6nBaDjEQAn1I0G+B53BC2fVQBy1hT85M6vBI0+cQIiK3L5u8qTB
UdjeQF7Pr7/nzqvBp6ruQOlvPMDkOYHB0djTQPUzD0FxJJ/BiCCsQGy2XT/fzqbB7eXuQFJsmb3c
lK3BenW1QEQ0xr+qiafBId0KQWX4mT63dW/BIVDDQHqFv0BCaZXBpBHgQPtwDkANF47BsBgJQd7p
yT/J4XzBk/6oQIOM/ECmZYrB5ZPjQMiThb2nd4XB9l+QQFaP20BXxYPBdfahQJJFoUBHD5DByZLm
QLCYtz8cvoPB+hmRQPq8A0CC1KPBcbjxQPSp/788qG/BKYnpQAq9AkGoRpbBXH6LQFhcgkDE2JfB
OFWpQLUJPUAQ45vBEUX4QNeoH7+ntXfBbDjKQLSF6EDjMZHBBNe3QD0xCUBZxJLB3ml/QMyoukB8
AYvBB/kWQXDpFD6BQWDB//baQEj3sUBGdpzBzQX7QIbKQUCcNpHBQCl0QBQ6mkDbjaDBJ10LQbQF
yT0lk7HBOaOlQNiGMsBA9aXBziLhQLIhlMDbEp3B8+yWQJrXLkFmT7XBBaUUQXWLecDrBJfBX7ei
QP53jsBqyZDBS3uxQP8KCkGnBLnB/tCiQLpcP0GZcaPB3QoZQW5LNcA3KYXBRTKrQHqoVsDUGH7B
m0fYQPuh60AB46rBEgLJQJ0SK0GOP5XBbFnhQM2NAkDHuazBUrp5QPDzEL+4h6HB7T/yQCUED8CT
uK3BK7QJQb5OHkBUsXLBnewVQeZP0D/qc4TB1kKSQPHaBkFAkY/B6X24QNOuCUEH7oTBqQDCQNnX
xr42BIbB0cD0QAZ4u77/wozBRO+lQNTNzEAvv3vBK2FrQAFK60CXLn/BcXqyQFxHjkBi6InB8cjN
QLM63j/Z9XvBpaeJQIS7KED/FKvBYVpmQFYH2z8aH6DBBfHTQM+bAsB3TGbB1m0GQTZREsDjcWXB
MgACQXeP8kAmo5nB8yb2QHzuDUEIQ5DBvkhiQM//ZUBXdJPBKvrEQLUHWkBO9J/BqyyjQIjivT+/
so/BvqFZQFDxpkCn1YbBgjFdQJPsyEDDv5DB5VtYQP1Ph0AsYqXBL2bSQGPii8BEK5PBdMSoQA8N
JkFxrK7ByiazQA9ngMAmkYvBYFn9QJCUfsCFvJHBKj23QPAlEUHx2LDBnv6vQFVGL0H+i6TBVMu+
QIzaT8CWkoLB1YwEQYzvTcAZtojBxx3NQMZ/BUEC6ajBtKzFQDudI0EolpzBarjUQA/KgD9DH6vB
Aw+bQBkg6r4mBaXBysTdQP32tL8Dp6vBtLvpQOYANsA1IYHBxKrUQD7GDkFww57Bnz+rQMc/Vj+X
0abB9iDuQDQF873oZq3B/yS0QNtKyr+Qg6fBYrAKQXJH4T7E6m7BDkzDQJebvkDOTZXB0uTfQGSr
EUC5LY7BUfYIQaMC2T/ZvHzBK5CpQEhC+0DRE4rB5dzjQLxR0zypT4XBLH+QQGog2kD3mIPBKY2h
QOZ1oEDdFZDBjHnmQIdVwz+frYPBMl6QQOJGAkBu4KPBjyD1QMrG87/VC3DBTSfqQCAYAkHA8ZXB
NQyLQGf+gUB++5fBPtaoQIxkPECUEJzB4A/7QN9qCb/6NXjBxJjKQLJI50Di8ZDBpOa3QGqmCUA3
65LBcAZ/QFbsuUCk+4rBqSMWQWbWoz6eIF/B3PTaQEQpsUCKXZzBGO76QGTFQ0D/jZHBteBzQIMz
mkC+qaDB/R4LQRzuPD2cPLHBQSCkQKppNMDN7qXB323JQKVinsAXHZrBzh2YQMUDL0GMxrTB9VWS
QBlcisB9o4zBSZ8KQVdKiMANj5fBGo2xQNMQCkFambjBreOkQAxNP0Hg5KLBhtamQJ4BPsBbhHnB
UQMVQcP0OsAtlofBTyXYQBHt6kAdkqrBHtjKQKahKkErzJTBI+LgQI3U/z9yqKzB0sF2QOAqFr/N
uaHBNCDxQNvWEcCSe63Bl28JQSTCJkDB3XLBINoVQXDW3T9nWoTBIBOTQFuEBkFKL4/Bjku5QMDC
CEGVgoTB41nCQIkcn76SVoXBwkjzQPQfiL6o3ozBJNSlQOW4ykAZgXvBpOxrQCTj6UAku37Btsux
QIQPjUDB94nB3WvNQHCJ6j+VAXzBSKyIQPCdJkD7KavBRSRlQJXT2D9PEqDB/CXbQKFO9L+qK2TB
m3oJQayvD8AAdWjBMEICQbM28UDLVZnBIuD2QCgkDUF04I/BAxZhQOEnZUAHqZPBJDHEQPNtWUBs
P6DBnN2jQFMnvD/O4I/B0Y9YQIgwpkBV6obBN2tdQGPGyECUsJDBFBZYQO6Ah0C9i6XB

>  <OMEGA_E>  (64) 
zFIGPySjID/Avxw/arMcP0A4Gz94Vw0/EN8GP4yaBj8QEwY/

>  <OMEGA_NBR>  (64) 
     41352

$$$$
50162155
     RDKit          3D

 91 95  0  0  1  0  0  0  0  0999 V2000
    5.6917   10.4881  -22.4997 C   0  0  0  0  0  0  0  0  0  0  0  0
    6.3418    9.3713  -23.0559 C   0  0  0  0  0  0  0  0  0  0  0  0
    5.7482   10.7167  -21.1111 C   0  0  0  0  0  0  0  0  0  0  0  0
    7.0582    8.4928  -22.2246 C   0  0  0  0  0  0  0  0  0  0  0  0
    6.4674    9.8388  -20.2765 C   0  0  0  0  0  0  0  0  0  0  0  0
    6.9138    0.0871  -16.7136 C   0  0  0  0  0  0  0  0  0  0  0  0
    8.1344   -0.4693  -14.6775 C   0  0  0  0  0  0  0  0  0  0  0  0
    8.4077    1.7277  -15.6982 C   0  0  0  0  0  0  0  0  0  0  0  0
    6.9195    1.3386  -21.4958 C   0  0  0  0  0  0  0  0  0  0  0  0
    5.1961   -0.2607  -20.8295 C   0  0  0  0  0  0  0  0  0  0  0  0
    7.3035   -1.0556  -21.7627 C   0  0  0  0  0  0  0  0  0  0  0  0
    7.2469   -0.8378  -15.7061 C   0  0  0  0  0  0  0  0  0  0  0  0
    7.4938    1.3734  -16.7152 C   0  0  0  0  0  0  0  0  0  0  0  0
    7.1358    8.7178  -20.8316 C   0  0  0  0  0  0  0  0  0  0  0  0
    8.7077    0.8161  -14.6665 C   0  0  0  0  0  0  0  0  0  0  0  0
    5.6399    1.0690  -20.9613 C   0  0  0  0  0  0  0  0  0  0  0  0
    7.7529    0.2748  -21.8895 C   0  0  0  0  0  0  0  0  0  0  0  0
    6.0214   -1.3201  -21.2395 C   0  0  0  0  0  0  0  0  0  0  0  0
    6.6656   -2.1835  -15.7191 C   0  0  0  0  0  0  0  0  0  0  0  0
    7.1252    2.3391  -17.7610 C   0  0  0  0  0  0  0  0  0  0  0  0
    7.7554   -4.0373  -18.8052 C   0  0  0  0  0  0  0  0  0  0  0  0
    7.2164   -5.1009  -17.8550 C   0  0  0  0  0  0  0  0  0  0  0  0
    7.6470   -2.7206  -18.0217 C   0  0  0  0  0  0  0  0  0  0  0  0
    5.4534    7.8813  -17.1699 C   0  0  0  0  0  0  0  0  0  0  0  0
    6.0394    5.9585  -18.6815 C   0  0  0  0  0  0  0  0  0  0  0  0
    4.4460    6.9660  -16.4536 C   0  0  0  0  0  0  0  0  0  0  0  0
    6.2187   -4.3455  -16.9781 C   0  0  2  0  0  0  0  0  0  0  0  0
    5.0069    5.0825  -17.9399 C   0  0  2  0  0  0  0  0  0  0  0  0
    9.6989    1.1901  -13.5885 C   0  0  0  0  0  0  0  0  0  0  0  0
    2.6724   -3.1874  -17.3519 C   0  0  0  0  0  0  0  0  0  0  0  0
    4.7301    2.1964  -20.5388 C   0  0  0  0  0  0  0  0  0  0  0  0
    8.1232    7.8527  -20.0565 C   0  0  0  0  0  0  0  0  0  0  0  0
    4.8335   -4.2151  -17.6414 C   0  0  0  0  0  0  0  0  0  0  0  0
    4.3545    4.0634  -18.8862 C   0  0  2  0  0  0  0  0  0  0  0  0
    5.3892    3.0721  -19.4583 C   0  0  1  0  0  0  0  0  0  0  0  0
    6.8196   -3.0132  -16.8296 N   0  0  0  0  0  0  0  0  0  0  0  0
    6.5019    7.0465  -17.8099 N   0  0  0  0  0  0  0  0  0  0  0  0
    5.8835    2.2115  -18.3736 N   0  0  0  0  0  0  0  0  0  0  0  0
    3.9374    5.9355  -17.3787 N   0  0  0  0  0  0  0  0  0  0  0  0
    6.0837   -2.5889  -14.7190 O   0  0  0  0  0  0  0  0  0  0  0  0
    7.8962    3.2440  -18.0609 O   0  0  0  0  0  0  0  0  0  0  0  0
    9.0371    6.8054  -17.8296 O   0  0  0  0  0  0  0  0  0  0  0  0
    8.0523    9.1306  -17.6893 O   0  0  0  0  0  0  0  0  0  0  0  0
    3.7029    4.7607  -19.9498 O   0  0  0  0  0  0  0  0  0  0  0  0
    3.9880   -3.3899  -16.8157 O   0  0  0  0  0  0  0  0  0  0  0  0
    8.9779    0.5312  -22.4016 F   0  0  0  0  0  0  0  0  0  0  0  0
    5.5729   -2.5900  -21.1412 F   0  0  0  0  0  0  0  0  0  0  0  0
    8.0042    7.7670  -18.2337 S   0  0  0  0  0  0  0  0  0  0  0  0
    5.1492   11.1702  -23.1375 H   0  0  0  0  0  0  0  0  0  0  0  0
    6.2906    9.1894  -24.1192 H   0  0  0  0  0  0  0  0  0  0  0  0
    5.2384   11.5679  -20.6846 H   0  0  0  0  0  0  0  0  0  0  0  0
    7.5549    7.6360  -22.6554 H   0  0  0  0  0  0  0  0  0  0  0  0
    6.5099   10.0196  -19.2126 H   0  0  0  0  0  0  0  0  0  0  0  0
    6.2126   -0.1885  -17.4873 H   0  0  0  0  0  0  0  0  0  0  0  0
    8.3758   -1.1740  -13.8955 H   0  0  0  0  0  0  0  0  0  0  0  0
    8.8777    2.7000  -15.7114 H   0  0  0  0  0  0  0  0  0  0  0  0
    7.2575    2.3588  -21.6021 H   0  0  0  0  0  0  0  0  0  0  0  0
    4.2210   -0.4658  -20.4130 H   0  0  0  0  0  0  0  0  0  0  0  0
    7.9416   -1.8723  -22.0665 H   0  0  0  0  0  0  0  0  0  0  0  0
    8.8028   -4.2470  -19.0678 H   0  0  0  0  0  0  0  0  0  0  0  0
    7.1492   -3.9937  -19.7221 H   0  0  0  0  0  0  0  0  0  0  0  0
    6.7150   -5.9053  -18.4130 H   0  0  0  0  0  0  0  0  0  0  0  0
    8.0270   -5.5273  -17.2458 H   0  0  0  0  0  0  0  0  0  0  0  0
    8.6460   -2.3757  -17.7167 H   0  0  0  0  0  0  0  0  0  0  0  0
    7.1653   -1.9484  -18.6395 H   0  0  0  0  0  0  0  0  0  0  0  0
    4.9326    8.4713  -17.9385 H   0  0  0  0  0  0  0  0  0  0  0  0
    5.9182    8.5597  -16.4393 H   0  0  0  0  0  0  0  0  0  0  0  0
    6.8989    5.3375  -18.9745 H   0  0  0  0  0  0  0  0  0  0  0  0
    5.5731    6.3869  -19.5810 H   0  0  0  0  0  0  0  0  0  0  0  0
    4.9429    6.4760  -15.6034 H   0  0  0  0  0  0  0  0  0  0  0  0
    3.6038    7.5712  -16.0871 H   0  0  0  0  0  0  0  0  0  0  0  0
    6.1211   -4.8434  -16.0021 H   0  0  0  0  0  0  0  0  0  0  0  0
    5.5159    4.5423  -17.1282 H   0  0  0  0  0  0  0  0  0  0  0  0
   10.7137    0.9134  -13.9107 H   0  0  0  0  0  0  0  0  0  0  0  0
    9.6541    2.2745  -13.4095 H   0  0  0  0  0  0  0  0  0  0  0  0
    9.4503    0.6547  -12.6603 H   0  0  0  0  0  0  0  0  0  0  0  0
    2.0912   -2.5512  -16.6681 H   0  0  0  0  0  0  0  0  0  0  0  0
    2.7482   -2.6969  -18.3335 H   0  0  0  0  0  0  0  0  0  0  0  0
    2.1692   -4.1590  -17.4653 H   0  0  0  0  0  0  0  0  0  0  0  0
    4.5018    2.8203  -21.4155 H   0  0  0  0  0  0  0  0  0  0  0  0
    3.7976    1.7730  -20.1372 H   0  0  0  0  0  0  0  0  0  0  0  0
    8.0133    6.8251  -20.4333 H   0  0  0  0  0  0  0  0  0  0  0  0
    9.1307    8.2247  -20.2946 H   0  0  0  0  0  0  0  0  0  0  0  0
    4.9428   -3.7528  -18.6336 H   0  0  0  0  0  0  0  0  0  0  0  0
    4.3820   -5.2123  -17.7493 H   0  0  0  0  0  0  0  0  0  0  0  0
    3.6122    3.4890  -18.3126 H   0  0  0  0  0  0  0  0  0  0  0  0
    6.2214    3.6354  -19.9056 H   0  0  0  0  0  0  0  0  0  0  0  0
    5.2820    1.4800  -18.0526 H   0  0  0  0  0  0  0  0  0  0  0  0
    3.2927    5.3533  -16.8834 H   0  0  0  0  0  0  0  0  0  0  0  0
    3.4641    6.3904  -18.1330 H   0  0  0  0  0  0  0  0  0  0  0  0
    3.2976    4.1346  -20.5382 H   0  0  0  0  0  0  0  0  0  0  0  0
  1  2  2  0
  1  3  1  0
  2  4  1  0
  3  5  2  0
  4 14  2  0
  5 14  1  0
  6 12  2  0
  6 13  1  0
  7 12  1  0
  7 15  2  0
  8 13  2  0
  8 15  1  0
  9 16  2  0
  9 17  1  0
 10 16  1  0
 10 18  2  0
 11 17  2  0
 11 18  1  0
 12 19  1  0
 13 20  1  0
 14 32  1  0
 15 29  1  0
 16 31  1  0
 17 46  1  0
 18 47  1  0
 19 36  1  0
 19 40  2  0
 20 38  1  0
 20 41  2  0
 21 22  1  0
 21 23  1  0
 22 27  1  0
 23 36  1  0
 24 26  1  0
 24 37  1  0
 25 28  1  0
 25 37  1  0
 26 39  1  0
 27 33  1  0
 27 36  1  0
 28 34  1  0
 28 39  1  0
 30 45  1  0
 31 35  1  0
 32 48  1  0
 33 45  1  0
 34 35  1  0
 34 44  1  0
 35 38  1  0
 37 48  1  0
 42 48  2  0
 43 48  2  0
  1 49  1  0
  2 50  1  0
  3 51  1  0
  4 52  1  0
  5 53  1  0
  6 54  1  0
  7 55  1  0
  8 56  1  0
  9 57  1  0
 10 58  1  0
 11 59  1  0
 21 60  1  0
 21 61  1  0
 22 62  1  0
 22 63  1  0
 23 64  1  0
 23 65  1  0
 24 66  1  0
 24 67  1  0
 25 68  1  0
 25 69  1  0
 26 70  1  0
 26 71  1  0
 27 72  1  1
 28 73  1  1
 29 74  1  0
 29 75  1  0
 29 76  1  0
 30 77  1  0
 30 78  1  0
 30 79  1  0
 31 80  1  0
 31 81  1  0
 32 82  1  0
 32 83  1  0
 33 84  1  0
 33 85  1  0
 34 86  1  1
 35 87  1  6
 38 88  1  0
 39 89  1  0
 39 90  1  0
 44 91  1  0
M  CHG  1  39   1
M  END
>  <OMEGA_C>  (65) 
JCK2QGHPJ0FJ/7PB9u/KQPfwFUFrcrjBcvG3QIR3K0GA46jBmNzhQGLiB0Hsy7HBKvXOQKxrHUFA
NqLBCj7dQLJtsj1atYXBhSYCQUBD8L7s1mrBvYUGQXEl3T/TK3vBYmzdQEVWqz9d96vBcEamQDB6
hb7CoqbBBrbpQPMdh7/4Ga7BNubnQMV3Vr8CTHvB8MzvQGrLrz+luIXBhFjkQBN8C0EVp6bB7lIL
Qb3qUD8AqmrBOHq0QAnUiD/WsKfBCBj4QMS0jD6ZHa/BSK/AQHL3qL9+6qnBkkzVQG6+C8CegXvB
cAHkQF6zFUCZFo7B6iv4QKAxgcAjcZbBpuzmQGM6o8Dx1o7BVLT0QFoeLsCJLJDB7IGuQJAz/EDg
W4nBKkPBQOervkDQc5XB6EWOQGPp3kAToYPB2v/GQCUOi8Ay04fBSDigQAykokD7hI/B3C4bQR9U
mD9ealnBnwgrQDT+S8Ce0IrB4FyXQIeRDEB8T6TBxfgBQQJJ+0Cuc6DBPqyaQBjihsCuIY3BFliL
QBMHgkD3FpfBeHSsQO+cRECRqpvBNDraQH7YQMAUo4bB1A/QQIp84UDFeo7B3EW8QH+JDUAw/ZLB
P/57QNrvvUCCB4vBoK3CQLmvJcDtgGvBXK38QOOdT0DMfJDBI5gQQW/F2UATo47BN9YAQQ4XEkGz
g43B2ftsQPBXmEA6mZ/BNzt/QOb0WMB9hobBhaUPQVn9Bz+QNrPBYlWyQMDCJcBDIanBEBEAQY2L
+ECG3pHBL8akQEe5MkGbGbnBl0zJQK8HE0Ef9MDBP6GnQFAWOUEjeqXB6MHxQD9a9EBHPrXBFFHQ
QFJQIEFes5nBmc3GQNoIQb4E5ovBRQMGQYJElr/aU17BEQsOQSPMLEDHYXvBqj3oQDb2FkAV0azB
LRKHQB167r7ITaPBTyH+QIKm778hiLDBM9gMQbvnh8DLipjBSMbkQFuZf8Dqxp3BEuHWQGj4vMDj
TZPBp24AQeffsMB594nB7lUKQc8KGMC2u43B7knlQIFk+b+qHZXBHdidQEiKB0EEgo/BzmG9QIX0
CEG1g4PBbcPcQBHNqkDXy5fBr1ayQLxhzEDNpZzBEyyeQAQ7z0BTp3nBZKRmQANH8kBWsoDBCeDD
QPL8msBcBIDBbYKwQDVakUB2BonBJ2srQYXVaT8Qkl7BF3caQSyREUBhjVbBoTQXQb6YJz91kErB
h9UFQJZHI8BbWIXBluIvQHGZLMAKq5LB6NQKQD4WhcACuYvBZA6QQJN/NED5UqvBkgxzQOXw4j8I
GaHBeDYAQRJn2kBod6PBLxcSQVyYA0FIW6LBmyueQLotcMCREZXBhzmMQIzLpsCo/o3BfC1nQJZL
X0BAgJLBBRbHQKyqaECYPp/BMgapQGRxvT+ha5DBELtSQBlOq0AkEYfBcbNdQHt+zEBlEJHB0gtT
QEZOhEApTqTB

>  <OMEGA_E>  (65) 
AK5dPg==

>  <OMEGA_NBR>  (65) 
     40750

$$$$
