50162118
     RDKit          3D

 80 83  0  0  1  0  0  0  0  0999 V2000
    5.6534   10.8097  -20.7816 C   0  0  0  0  0  0  0  0  0  0  0  0
    5.7171   10.2967  -22.0915 C   0  0  0  0  0  0  0  0  0  0  0  0
    6.2865   10.1268  -19.7273 C   0  0  0  0  0  0  0  0  0  0  0  0
    6.8672    1.2908  -21.6390 C   0  0  0  0  0  0  0  0  0  0  0  0
    5.2827   -0.3110  -20.6933 C   0  0  0  0  0  0  0  0  0  0  0  0
    7.0471    8.4122  -21.2915 C   0  0  0  0  0  0  0  0  0  0  0  0
    7.3657   -1.0971  -21.6901 C   0  0  0  0  0  0  0  0  0  0  0  0
    6.3976    9.0864  -22.3460 C   0  0  0  0  0  0  0  0  0  0  0  0
    5.6384    1.0190  -21.0002 C   0  0  0  0  0  0  0  0  0  0  0  0
    7.7286    0.2328  -21.9854 C   0  0  0  0  0  0  0  0  0  0  0  0
    6.1452   -1.3675  -21.0388 C   0  0  0  0  0  0  0  0  0  0  0  0
    6.9956    8.9336  -19.9808 C   0  0  0  0  0  0  0  0  0  0  0  0
    8.4403    0.2848  -14.9175 C   0  0  0  0  0  0  0  0  0  0  0  0
    6.9321    2.3500  -17.6631 C   0  0  0  0  0  0  0  0  0  0  0  0
    8.1811    1.6788  -15.4938 C   0  0  0  0  0  0  0  0  0  0  0  0
    5.4361    7.8366  -17.2007 C   0  0  0  0  0  0  0  0  0  0  0  0
    7.3046    0.0353  -16.9375 C   0  0  0  0  0  0  0  0  0  0  0  0
    6.0357    5.9650  -18.7765 C   0  0  0  0  0  0  0  0  0  0  0  0
    4.4932    6.8787  -16.4664 C   0  0  0  0  0  0  0  0  0  0  0  0
    7.0340    1.4356  -16.4529 C   0  0  2  0  0  0  0  0  0  0  0  0
    5.0293    5.0649  -18.0224 C   0  0  2  0  0  0  0  0  0  0  0  0
    6.4844    8.5453  -23.7563 C   0  0  0  0  0  0  0  0  0  0  0  0
    5.6404   -4.4015  -17.0544 C   0  0  0  0  0  0  0  0  0  0  0  0
    4.7202    2.1546  -20.6062 C   0  0  0  0  0  0  0  0  0  0  0  0
    6.3461   -3.3203  -16.2261 C   0  0  0  0  0  0  0  0  0  0  0  0
    7.6802   -2.9310  -16.8888 C   0  0  0  0  0  0  0  0  0  0  0  0
    8.4965   -1.9893  -15.9710 C   0  0  0  0  0  0  0  0  0  0  0  0
    4.3558    4.0510  -18.9641 C   0  0  2  0  0  0  0  0  0  0  0  0
    5.3753    3.0411  -19.5280 C   0  0  1  0  0  0  0  0  0  0  0  0
    7.8741   -0.6680  -15.7883 N   0  0  0  0  0  0  0  0  0  0  0  0
    6.5023    7.0820  -17.9230 N   0  0  0  0  0  0  0  0  0  0  0  0
    5.7894    2.1868  -18.4217 N   0  0  0  0  0  0  0  0  0  0  0  0
    3.9671    5.8836  -17.4105 N   0  0  0  0  0  0  0  0  0  0  0  0
    9.1493    0.0617  -13.9437 O   0  0  0  0  0  0  0  0  0  0  0  0
    7.8232    3.1353  -17.9709 O   0  0  0  0  0  0  0  0  0  0  0  0
    8.1620    9.0247  -17.5960 O   0  0  0  0  0  0  0  0  0  0  0  0
    8.7617    7.1160  -19.1698 O   0  0  0  0  0  0  0  0  0  0  0  0
    3.6944    4.7415  -20.0230 O   0  0  0  0  0  0  0  0  0  0  0  0
    8.9057    0.4940  -22.5973 F   0  0  0  0  0  0  0  0  0  0  0  0
    5.8056   -2.6403  -20.7347 F   0  0  0  0  0  0  0  0  0  0  0  0
    7.7617    8.0343  -18.6048 S   0  0  0  0  0  0  0  0  0  0  0  0
    5.1185   11.7275  -20.5865 H   0  0  0  0  0  0  0  0  0  0  0  0
    5.2444   10.8302  -22.9028 H   0  0  0  0  0  0  0  0  0  0  0  0
    6.2298   10.5166  -18.7217 H   0  0  0  0  0  0  0  0  0  0  0  0
    7.1465    2.3100  -21.8619 H   0  0  0  0  0  0  0  0  0  0  0  0
    4.3482   -0.5183  -20.1931 H   0  0  0  0  0  0  0  0  0  0  0  0
    7.5845    7.4960  -21.4868 H   0  0  0  0  0  0  0  0  0  0  0  0
    8.0234   -1.9092  -21.9629 H   0  0  0  0  0  0  0  0  0  0  0  0
    7.8935    2.3874  -14.7032 H   0  0  0  0  0  0  0  0  0  0  0  0
    9.0667    2.0599  -16.0233 H   0  0  0  0  0  0  0  0  0  0  0  0
    4.8571    8.4265  -17.9265 H   0  0  0  0  0  0  0  0  0  0  0  0
    5.9046    8.5121  -16.4697 H   0  0  0  0  0  0  0  0  0  0  0  0
    6.3707   -0.4477  -17.2607 H   0  0  0  0  0  0  0  0  0  0  0  0
    8.0191    0.0485  -17.7738 H   0  0  0  0  0  0  0  0  0  0  0  0
    6.9023    5.3586  -19.0788 H   0  0  0  0  0  0  0  0  0  0  0  0
    5.5469    6.3776  -19.6714 H   0  0  0  0  0  0  0  0  0  0  0  0
    5.0442    6.3663  -15.6640 H   0  0  0  0  0  0  0  0  0  0  0  0
    3.6583    7.4482  -16.0321 H   0  0  0  0  0  0  0  0  0  0  0  0
    6.0836    1.4562  -15.8994 H   0  0  0  0  0  0  0  0  0  0  0  0
    5.5691    4.5143  -17.2379 H   0  0  0  0  0  0  0  0  0  0  0  0
    7.3729    8.9601  -24.2547 H   0  0  0  0  0  0  0  0  0  0  0  0
    6.5608    7.4484  -23.7240 H   0  0  0  0  0  0  0  0  0  0  0  0
    5.5822    8.8337  -24.3157 H   0  0  0  0  0  0  0  0  0  0  0  0
    4.6895   -4.6715  -16.5718 H   0  0  0  0  0  0  0  0  0  0  0  0
    5.4420   -4.0172  -18.0658 H   0  0  0  0  0  0  0  0  0  0  0  0
    6.2838   -5.2913  -17.1199 H   0  0  0  0  0  0  0  0  0  0  0  0
    4.5034    2.7673  -21.4937 H   0  0  0  0  0  0  0  0  0  0  0  0
    3.7822    1.7387  -20.2097 H   0  0  0  0  0  0  0  0  0  0  0  0
    5.6999   -2.4326  -16.1609 H   0  0  0  0  0  0  0  0  0  0  0  0
    6.5416   -3.7067  -15.2149 H   0  0  0  0  0  0  0  0  0  0  0  0
    8.2656   -3.8418  -17.0829 H   0  0  0  0  0  0  0  0  0  0  0  0
    7.4741   -2.4179  -17.8397 H   0  0  0  0  0  0  0  0  0  0  0  0
    8.5990   -2.4659  -14.9849 H   0  0  0  0  0  0  0  0  0  0  0  0
    9.4929   -1.8472  -16.4149 H   0  0  0  0  0  0  0  0  0  0  0  0
    3.6141    3.4883  -18.3783 H   0  0  0  0  0  0  0  0  0  0  0  0
    6.2348    3.5774  -19.9566 H   0  0  0  0  0  0  0  0  0  0  0  0
    5.1949    1.4162  -18.1922 H   0  0  0  0  0  0  0  0  0  0  0  0
    3.3386    5.2790  -16.9212 H   0  0  0  0  0  0  0  0  0  0  0  0
    3.4726    6.3613  -18.1366 H   0  0  0  0  0  0  0  0  0  0  0  0
    3.2802    4.1123  -20.6018 H   0  0  0  0  0  0  0  0  0  0  0  0
  1  2  2  0
  1  3  1  0
  2  8  1  0
  3 12  2  0
  4  9  2  0
  4 10  1  0
  5  9  1  0
  5 11  2  0
  6  8  2  0
  6 12  1  0
  7 10  2  0
  7 11  1  0
  8 22  1  0
  9 24  1  0
 10 39  1  0
 11 40  1  0
 12 41  1  0
 13 15  1  0
 13 30  1  0
 13 34  2  0
 14 20  1  0
 14 32  1  0
 14 35  2  0
 15 20  1  0
 16 19  1  0
 16 31  1  0
 17 20  1  0
 17 30  1  0
 18 21  1  0
 18 31  1  0
 19 33  1  0
 21 28  1  0
 21 33  1  0
 23 25  1  0
 24 29  1  0
 25 26  1  0
 26 27  1  0
 27 30  1  0
 28 29  1  0
 28 38  1  0
 29 32  1  0
 31 41  1  0
 36 41  2  0
 37 41  2  0
  1 42  1  0
  2 43  1  0
  3 44  1  0
  4 45  1  0
  5 46  1  0
  6 47  1  0
  7 48  1  0
 15 49  1  0
 15 50  1  0
 16 51  1  0
 16 52  1  0
 17 53  1  0
 17 54  1  0
 18 55  1  0
 18 56  1  0
 19 57  1  0
 19 58  1  0
 20 59  1  1
 21 60  1  1
 22 61  1  0
 22 62  1  0
 22 63  1  0
 23 64  1  0
 23 65  1  0
 23 66  1  0
 24 67  1  0
 24 68  1  0
 25 69  1  0
 25 70  1  0
 26 71  1  0
 26 72  1  0
 27 73  1  0
 27 74  1  0
 28 75  1  1
 29 76  1  6
 32 77  1  0
 33 78  1  0
 33 79  1  0
 38 80  1  0
M  CHG  1  33   1
M  END
>  <OMEGA_C>  (1) 
1Oi0QJv0LEG5QKbBUvK2QCm/JEFMu7DBWivJQGcHIkF80Z3BJMDbQIw6pT+iHK3BhgupQDA5n77e
i6XB+oHhQFaYBkHtVKrBL7TrQEltjL9Gha3BDbnMQOFhEUGoxLLBJW60QHFugj9kAKjBUFD3QD5b
bj4v4q/BGKXEQEELr7+OT6jB5tvfQCHwDkG42J/BgAsHQZnSkT5Frm7BwNPdQL1lFkAZTo3B2uUC
Qc7h1j925nfBV/StQKTF+kDvmonBZb/pQMLJED0OgIfBTyTBQAXhvkBeNpbBGsiPQPId3EAju4PB
UxbhQLfCtz+Hn4PBCvCgQKMTokDYLZDB9X/PQIi5CEHqDL7BS360QELZjMBwb4jBIQyXQIvlCUB2
2aTBphPLQIiAVMAaz4HBKsT1QNKUO8A8HIfByvEHQeeh/r83iX/BEGOLQNChgUCOtpfBiwKsQBqi
QkBxOZzBUvj7QJX/Kr8CnXzB1xLQQBSg4kBYYo/BB0O5QJr0C0CRX5PBK+V9QKNGvECjSIvBZGMS
QZTgfD1qGV/B4Vf6QI2pSEB0xI/Bs5cCQfxkEEGaxIzB0S8MQSO240CpW5nB/nBsQD26l0AlL6DB
0n0OQSTn/D43x7TBZ8e5QIX6KMCR4KXB3l/4QKSMAEGU1pTBI8ujQKejO0EhsaTBxdGnQFtILUH6
OLfBNlrHQBlEKEEHxpXB56/kQJfXE0AU5a7BeSSLQNquBL9si6HBVbTyQBbf70AG5avBtV8AQQFg
9L8ItK/BjZf8QK/LGEAcQGvBWxERQcPUA0DJL4DBgm2bQAjTBkFvaY/Bm/K8QH0xCEEHwoPBmdzL
QGI45b7jFYrBEE4AQaScRj3MMI7Bfd/cQOV5q0BkoZjB3H+xQFgVzEAMX53B/mmhQIy4y0Cfn3rB
ByJqQLZX7kCkQYDBA63CQPlkuj/GY37BsjWyQPN0kEAi54nBH+/rQHVcD0GkCcLBrfHRQINZ7kC9
yr3BhKGyQN1WDUGVhsLBZhCWQMt8lcAek4TBKyWuQBqNgMDRhpDB1RTJQKVSqcCY9YjBIByQQJIb
MUAI86vBQhByQH+O3j95raHBLWW2QDWwG8BsSYHB11TRQEs7bcBlcHPBDEAEQYPfdcDQqYjB1Cvv
QBy/GsDJt47BkZUJQd3RHcBHwm/B8+IXQZ9v7L+pUYPB401nQHRAX0C1BpPBnoPHQB30ZEArp5/B
gTymQL9FtT+NiZHBeqtVQIDtqECeXofBzz9eQPGPy0DPF5HBO+5RQNiXg0CN0KTBB9TSQEzMDkFV
GbPBM+O7QKLsIUF5ZbHBCSHmQK4yBEG9YarB9I7aQCSIpT/y+KzBh0OpQJMFoL5n46TBqw/LQEu5
H0E0TZ7BI0jrQLCBi7/7Oq3Bunu4QAODKkGN+6bB3eyzQC4igj+3j6fBnjr2QAh0dT7SyK/BctvE
QDiurr9wwafB/FbiQJnIDEFu9J/BWw4JQeKJgz7dxHHB8JTiQOs6HkDVJY7BBjkJQeKB0D9E1nzB
z32sQEL6+kBtkInBs+XgQHToTT4r6YbB1ym/QEitvkAt9ZXBpl6NQFQI3UAVt4PBpE3nQCBe0z++
+YPB3LGeQOBGokCW/I/BOB+fQDCnPkFF8aTBap3UQCJyjcACJ43BrzeWQFcvCUBecaTBAPvLQJna
hMALNIHBOIrKQDVEKcB+c33BEZn3QCaxAMBE+X3BHvmJQBDSgUCropfBUZGrQDqeRUBFSpzBuSr0
QODnDb9saHzBH4jOQPrA4UBzGI/BMtO7QM45E0CGXpPBajR5QGjJvECUNYvBmGwUQWgfhb2pqGLB
aMn+QMQ5TkAxZpHBsSUCQZ+oD0HSj4zBD0oMQYS630A7PpjBMZBoQGS8l0D0DaDBRKwNQQItAT9k
67TBTYm6QIXXKMAjN6XBN2D4QCpq/kCWaZTBuZ7VQElFCEF9EbvBveysQNUAKkEhDrjBiML3QHoe
60ClqqvBjuHiQCL0E0D9867BEe2LQK/CBb9ApKDBLXHHQGkEJkFWTpbBAy4AQRgH87+deK/BmI8K
QVJvHEA9GXHBM2UWQRv42T+BOYTBRLiaQLPrBkHehI/BJ3a7QHFUCEGUuoPBi5i+QCFu/7wRlYfB
lerwQKYk6rw/h47BAZnaQNfzqkClbJjBWq6vQHhXzECUFZ3BVUaeQA/bzEAOSHrBD0llQOza70Cc
c4DBUYfOQOdZ+j/zb3zBMpivQL20kECQo4nBpQx7QOR5OkEXWqPBDICsQLYSR0Hk+Z3Bp9ygQLYY
SUEuA6zBB2bVQFYqsMCMlo7BlQe7QBfefcBv/JHBlJTzQDi4fsC2aY/BDraNQJPlLUDnpKvBPR1y
QNkU3D8g3qDBWhCtQLw4k8CNBn7BWZ3lQMylk8Ac4XjBjku2QMlXCcCgt4TBe7C8QDD6H8A7cG3B
jUAFQUcCGcAAbnDBMsUDQSC/EcCOiYbB24hlQJ6lXUAxB5PBM2PFQEz5aUDBLaDBIBmpQLyTxz8O
vZDBzsJQQEWoqUBkQ4fBAdhZQMfQy0CXFZHBlyNPQId4g0CCvqTBGAKzQOCaLUHjaabBv/60QHUf
JUGL1rDBvXzHQAP1IkEo7J3BrkTaQH74nD8je6zBGgGpQL4+sb7G+qPBlPvfQFJEB0ESRqrB+MDp
QMQJlb/Sr6zBmg7LQD7MEUHVxLLBDBe0QLpgeT+Q0abB1xz1QFUoIT4XZK/B48fDQJoMtb9K8abB
0lTeQC7dD0Fe15/BvCIGQe0lBb5UZXHBm2TjQIgkEECk3Y3BWWIJQRJWlz+pxX3B9VGsQBGk/EB4
w4nBOYbYQNirv7xqSIbBvFvBQBELwEBDCJbBMEyOQFj43UA14IPB2tjmQDHPsj+xxoPBLdegQLyJ
o0B9CZDBh0HOQOMBCUF4BL7BG6vvQPO1k8D7TZHB3S+XQIaZB0AfvqPBVQj2QIADVsCcpYrBO6PO
QGS8RcBVdYPBGDzZQO69B8DvVnTBvg6MQCWZgkCFg5fBAQutQDzTQ0B3oZvB/LjrQBIJWb8lzHvB
FibPQNGs5EDfU4/BdfO6QEaKEUCvapLBe4l8QEW1vUBCZ4vBY8MPQQL57L7GLGHBnaEAQehTO0Cf
QJHBkpUBQbnNEUGMtIzBBM4LQdqU5kCnMZnBSGBvQGTil0BTP6DB1fQMQYh4zT4durTBTyy5QO5v
K8BWNKTBJhL3QCvKAUHWwpTB+8KhQBZJPEHn76TB+5ulQGBrLUFUXrfBxrjFQJBoKUFc65XBf+Pi
QDRHD0C4lK7BRP+LQLBmCb9yiZ/BAEvxQDk28UCNwKvBdSn+QCYu/r+tBK/BProNQZB4AEDm+HLB
CrwVQdOKiT+WGIXB9deZQIRtB0HrtY/BUqa6QIxtCUH484PBR2u1QDvsyb20DIbBYyDkQKy7qr5R
No7BWI3dQMS3rEBRIpjBw16yQM9UzEDRYJ3BBdSfQI0NzkCaunrBi2xmQNME8EBjhoDB4HzRQDZ4
6D+URnvBpbmxQJdpkkB5nInB66bqQFi6D0GF/MHBvQfRQJPy7kCesr3B+maxQKdsDUFgjMLBN/oF
Qb8JmcC7XpbBEkvrQHo7r8Cr7YvByi3TQMETkMB6ZJbBVP+OQORCLECL+KrBVJZzQKhl2z+JJKDB
YEsJQUV6XcBDloXBd3n6QNIqH8ASDZDBgey0QDLFKcC7WIjB3srDQJOIgcAwGIDBsZi7QLbd87+Z
fmvBtlXwQPIIJ8DPm2nBebFnQL0BYkC44ZLBvB7IQOgLZUD7a5/BsuGkQEUD2D/JBI/Beu9TQBlq
qkCIiIfBXqVdQN+azECGVpHBNs9VQIlNg0B41qTBiQCxQCaMMUGCj6TBhC2rQO8EKUH55K7BPS7J
QKo5JkFK75zBaaLbQMGnnz/SCa7BJqC1QDqclr4bOaLBW8rVQOHMCUHw+qnBdejzQEJJiL8VRKzB
BRy9QLj8FEEclrHBzN+5QJdPfT8CzqbBHWX4QDqcXj6n1bDB65zSQEXLqL8r7qTBoeTbQGdlEkFB
p5/BUWsGQT0VLr8xH3bBFaXcQFsj/j/Pe4zBWwIGQY9WSj8h5XzBoJutQAte/0DuForBaTrUQJ8S
1b6uDofBe/vAQLwLwkDeXJbBwOaPQGgJ4UBs7YPB91jfQDHrez/YMYPBnRahQOBBpUDuHZDBOoS3
QNjzC0FuvrzBKizPQH1vqcAga1DBf66aQHT2BUA/yaPBuyrTQGNEmcDKlWfBHSnbQBF1UcB4tGfB
UILhQD1/MMDKuX7BIBKMQLkSg0AndpfBWpqsQPSlP0BbuZrB8UToQBUDp7/shH7BUOjPQHro5kA0
xo/BCdm0QMy9CkAqMZHBGO59QEfiv0ABO4vBR+IUQbPRmb8Z3GvBgGv8QHGAJUCmrY/BZ7IDQfDO
EUFzXY3BMMEKQZQD6UD9DZvB0o10QEpCl0DCuKDBYRwMQW9C6j5W7LfBx2/OQGPjIsD6eaDB3H33
QPLlAkFSi5XBoeiiQB/GQEE+fqLBH/WYQKvSMUEsxbTBB23NQIC1LEEi/5TBXWzfQPHyDkDebbHB
4RGcQAyO+77jn5zBKQ7kQB8+9UC5D6zBHv4EQT0U7b9JY67B92gIQRZ/uT+5AW/BMGwSQQhSfj98
eITB+bGaQE2uCEEi/o/BCoi8QMDnCkHibYTBdlixQHwNEL+/LofBokrhQL/QF7//Go/BCdzcQPG0
rkDrtJjBFAWxQLhgzkAWk53BmO6hQFuY0UAY3HrBj0FqQJ1n80BKh4DBLv3IQAp6pD9WrXnBEc2y
QCaZlEAKwYnBabHRQL2dEUGj5sHBHRa4QBW99EAVY7zBq7KYQJROEUEKDMDBAnbJQDcrzMBce1DB
5/LsQEWCosDIsUfByEC0QAoumcC4gkjBi3WUQAnALUCY4KrBQSh5QKtt0T8lD6HB1BLuQJKXqcDZ
d2/BtmC1QFZDoMDJSHDBgH2/QNnPMMAMg2DBDAr4QMFkQ8CrRl7BBJT9QLD7T8B47YLBZufEQKNq
P8DYI4TBOplkQK01Z0C24ZLBl2LKQAkZXkA5d53BiNybQFLo2T+k243BrqZWQOvHrEDXGIfB8zRd
QJdOzkCUFZHBCPNaQLM9gkD0LqXBBunOQKaPDkEcy7PBqES3QIGCIUFqNbLBNE7jQHmWBEHZC6vB
d7jfQDKTuj+9g6zBHg2uQHRVYb6DmaXBZAvIQDBrIEG8K5/Bdp7xQK6/ab9spK3BlD+0QHONKkGJ
4qfBkn24QNuNkD+3kafB7Tn8QGEo3z7/jq/BFpfKQKCqnr/aoajB7fnfQFCiDUF+tKDB1EIGQQxp
2L6FKXXBnE3eQGVfD0A7mIzBizwEQd22iT/LM3rB1j6sQODj/UA/GIrBWLPnQFsySb5dxorB6wzB
QCt0v0BprpXBPsONQFdX4EAt84PBjkHiQMp3jD8hlITBHN2fQDICpEBqn4/B8CCaQCuAPkFx96XB
LqiVQKLrgcD7kobBiciZQGUnDkArRKTBI2y+QJkHXcAzw4HBy2ThQBAFVcBhcIrB78cDQTvoH8D4
VIbBNkWLQOAAg0BnH5fB8fCsQCD8RUAHSpvBPGX6QPF5kb+yJYPBMgLPQNmr5EDTWI/BUU24QKf4
DkAWS5LBcvR6QBYHv0D2LYvBk0QOQTxAZb+K9GTB8xj8QDDIP0AUro7BK8MBQXXNEUGGhY3BxxgM
Qbpr40D285jBS+JsQGximEC2xp/B4OYQQXDSPz+pTLTBO5XAQOUGIsAQrqbBu6b3QI/cAEEyHJXB
w2fRQPivB0EisrvB3XinQC8bKUGc47jBO271QDgk7EAWPqzBAtznQFp1H0Ay9q3B6CSQQL0U8b5G
w6HBHN3EQPQYJ0H2PZfBHrUDQfA22b/QA7DB9SIBQfis1D9MoWvBObMSQdisuj++EoHB9xiaQB6l
B0H1QJDBzJy6QCFzCkGXfITB4IzIQMZIEL/9oY3Bmjv9QNeHQ71IopHBHR7dQBqEq0Cqg5fBsJ6y
QCjjykB9Lp3BSQmfQGhE0UBwi3rBM5tlQIIm80CazYDBsrPEQEdUhT+Fo3/BnDSwQLD6kkAQGInB
p7lxQBIHOkFDKKTBz6enQGlqR0GgLJ/BVNaaQHiaSEGSK63B9wB6QD2ehMBnVIDBAuWJQBpgWsCe
DI3B+9WcQI7gocA9zInBA9SSQOHPNkCaPKvBk+Z3QNqO4T84YaHBEiO3QJwuHcAZEX3BCxTKQM9H
g8BXkHbBlKrsQCKvisAzoYzBl7zTQC55NcDKhpHBfs4KQahxQMAcun7B6NEPQdMlG8A1uYzB1N9m
QBvQYUA2fZLBvhTJQIe/aEDeTJ7B0UKiQGa+yD+3/o/BnVNSQNhjrEAjHofBS/tbQB8izUAtOpHB
iYNTQPrUg0BGZKTBkmu9QFUeFUGCobHBhACrQGH2KEHJ4q7BCdvVQBrICUG2DarBc/HbQIIuoT+M
+a3BqUa1QJ89lr5HZKLBbFHJQGMeJkE/9ZzBC4rzQFTsh797dKzBaUixQFGdMUE7kaTBofm5QC8z
fz/Bz6bBbYT4QGD7aD4H2bDBFebRQKAdqb/ZPKXBFgDcQGxREkHAtZ/BbRsGQSjLN78sMnbBv6/c
QPg1/T8kcYzBvxUGQZlSQT9bDn3B75ytQMN1/0BDHYrBBhfTQLSh1b4b5obBoebAQCsRwkAiXpbB
fNqPQKYz4UBG8YPBsFbfQBA6ej+/H4PBhQyhQHBUpUDqGZDBvD6cQCmLRkG0c6HBTQX+QAastMCw
45LBl8yaQJNTBkBAxaPBfhvpQN6MnsBrNYnB4bv2QCQ6XsDqhIjB9zTfQJJkMcAEcX7BEROMQAkV
g0BebZfB16usQNy4P0AJrprBeRTnQJ4Eqb9zUH7BuODPQEjr5kCmy4/B0uC0QNGVCkCnJ5HBhtZ9
QAr+v0AKO4vB/zIUQWLEoL+4o2vBuXv8QPIXJUDLnI/BL7oDQdfDEUFTao3B1b4KQbvP6EAQFJvB
8G50QBQ3l0DEsKDBfjsMQbb08D7X5LfBV5HMQBACJMCRL6HBaIP3QDLWAkE2lZXB4si4QNybDkHO
jLnB1wqYQOSRMUELsLTBBeXjQMge9UApJ6zBQgjgQNUEEECkQLHBFKubQFp0/L5P0JzBfHTNQPh7
LEER/pTBJsAEQUzh7L/qnq7BROgIQY7ftD97PG/BnGMSQVaQcD8GpYTBHbqaQCS7CEF1BZDBm5O8
QFfzCkHGdYTBfR2wQJWdCr+04IbBe4DfQNLDGr8E/47BXcDcQOO0rkBquJjBUOSwQBZizkAjk53B
iNihQD7O0UD03HrBFilqQPSe80CSj4DBNZHJQCjHpT/kYnnBWceyQJ6+lECzuonBJGd4QLJYQ0Hq
LZ7BodivQA+jTkFuXZvB3WqZQNzZUEHBjKjB9dDzQI5W1sAQMpPBzib0QE5XpMDFSJrBM4YQQaAj
s8DeG5LB1Z2UQGhTLkBh2KrBsFt5QAQH0j/0EKHBJBrGQFROoMCrBYrBvf/yQKYar8DE2IHBP7sM
Qc2YWsB1KIfBaLzuQNHmPcCeE5DBfaC8QAS8PMDMDYDBV3PqQB2kTMDVN2/BVq1kQFsxZ0Cr1pLB
+nfKQEU/XkDfZZ3BAdubQBa62T8l1I3BrIxWQA3srEDTFofBqyBdQMlezkCtF5HBCt1aQLspgkAt
JaXBe1K9QFMcFUFgnrHBRNyqQCnxKEEe367BfMnVQC/JCUEAC6rB0b/bQIMZoD/PCK7BK9G1QE+r
lb7VN6LBszHJQAkcJkHj8ZzB3x70QOS4h78LRKzBuCGxQEyYMUF9jaTBCAG6QBfSfT+ZzKbBSI34
QDpoYz481bDB6NbSQFhpqL/b7aTBM+zbQHdSEkERs5/BGIUGQUnZLL8xHnbB/bvcQFKa/j9qeYzB
HBcGQeGRSz9K5HzBL5qtQEpo/0CVGYrBt2DUQDMO074zC4fBYenAQAILwkCLXZbBANePQMEe4UAS
8IPBmX3fQN70fD8KL4PBhwmhQBBJpUBtHJDBUQucQDmCRkFDb6HBuo7PQNNiqcDybVDBdsGaQA/9
BUBxx6PBbInTQNkumcBel2fBDHPbQBxDUcBgs2fBdcPhQMY/MMC5uH7B7Q2MQPwPg0Bpc5fBY6Ks
QIu2P0AXt5rB0HnoQKF/pr/lgX7BPt/PQEvm5kCtyY/BDO20QDXWCkC/LpHBT9J9QKLwv0B8PIvB
d/8UQY8cmb+M3WvB83n8QFfXJUBNq4/BhLMDQSLIEUGlaI3BGLwKQW3e6EBvE5vBh3F0QG80l0Bb
tqDBeC8MQdV47T6R67fB5LXOQHS1IsC/eaDBhnn3QH/ZAkF/k5XBsrK4QM+ZDkHFibnB5N+XQC6K
MUHtq7TBTtvjQAEl9UDZJKzBf37fQBovD0CvbLHBrEecQJkm+77cnZzB6FDNQCl5LEF++pTBOh0F
Qf9l7L+0Y67BMn8IQUkguj95AW/B4H0SQZOofz9qeYTBv7eaQOa3CEGGAJDB1I+8QDvpCkFAcITB
Rn+xQNsyD79fKIfB42bhQFe1Fr+sGI/BvMXcQCmwrkCftpjBfO2wQAhezkA2k53BGtShQDCy0UBX
3HrBeyBqQOOF80BajYDBCSbJQCn3pD+BpXnB+L+yQOKplED5vYnBUwV4QEpKQ0FGKZ7B4qCvQJ6c
TkHzWJvB2y+ZQDbRUEEFiKjBf+fJQPggzMAFgVDBVFHtQH1rosAXs0fBVZu0QFsvmcAwhUjBvYCU
QNPELUCF3qrBqll5QCdJ0T+ODaHBe3nuQH50qcCheW/BfMO1QFw4oMC6S3DBDcG/QEy4MMCdgGDB
t1H4QOMdQ8DMRV7B3tf9QJWqT8AJ7oLBmCjFQGM2P8DIIoTB7Z9kQLUfZ0AP3pLBomTKQMxAXkD/
dJ3BJ/ebQE/u2T8f2Y3BAYNWQMHbrEDpGYfBiSJdQFZYzkCWGJHBZ+JaQAUpgkCVK6XB

>  <OMEGA_E>  (1) 
PBvvPnh58j7clOU+kCkwP/igCz+8/yQ/diE0Pw==

>  <OMEGA_NBR>  (1) 
     16870

$$$$
50210640
     RDKit          3D

 73 76  0  0  1  0  0  0  0  0999 V2000
    6.0880    9.7284  -23.1450 C   0  0  0  0  0  0  0  0  0  0  0  0
    7.4013    9.5815  -22.6561 C   0  0  0  0  0  0  0  0  0  0  0  0
    4.9895    9.5568  -22.2799 C   0  0  0  0  0  0  0  0  0  0  0  0
    7.6174    9.2606  -21.3028 C   0  0  0  0  0  0  0  0  0  0  0  0
    5.2025    9.2425  -20.9242 C   0  0  0  0  0  0  0  0  0  0  0  0
    6.9610    1.2824  -21.3323 C   0  0  0  0  0  0  0  0  0  0  0  0
    5.2145   -0.2510  -20.5752 C   0  0  0  0  0  0  0  0  0  0  0  0
    7.3061   -1.1289  -21.4673 C   0  0  0  0  0  0  0  0  0  0  0  0
    6.5222    9.0831  -20.4323 C   0  0  0  0  0  0  0  0  0  0  0  0
    5.6827    1.0626  -20.7814 C   0  0  0  0  0  0  0  0  0  0  0  0
    7.7734    0.1860  -21.6721 C   0  0  0  0  0  0  0  0  0  0  0  0
    6.0252   -1.3462  -20.9200 C   0  0  0  0  0  0  0  0  0  0  0  0
    8.0293   -0.5656  -15.1090 C   0  0  0  0  0  0  0  0  0  0  0  0
    7.2063    2.1574  -17.6271 C   0  0  0  0  0  0  0  0  0  0  0  0
    8.1144    0.9109  -15.5450 C   0  0  0  0  0  0  0  0  0  0  0  0
    6.0545    5.9223  -18.1721 C   0  0  0  0  0  0  0  0  0  0  0  0
    6.8657   -0.3380  -17.1229 C   0  0  0  0  0  0  0  0  0  0  0  0
    4.5624    7.0078  -16.5785 C   0  0  0  0  0  0  0  0  0  0  0  0
    7.8037    0.8598  -17.0357 C   0  0  1  0  0  0  0  0  0  0  0  0
    5.8315    7.2321  -17.4008 C   0  0  2  0  0  0  0  0  0  0  0  0
    4.9418    4.9913  -17.6666 C   0  0  2  0  0  0  0  0  0  0  0  0
    8.6519   -3.6141  -17.5719 C   0  0  0  0  0  0  0  0  0  0  0  0
    4.8214    2.2311  -20.3878 C   0  0  0  0  0  0  0  0  0  0  0  0
    6.7947    8.7883  -18.9733 C   0  0  0  0  0  0  0  0  0  0  0  0
    7.1440   -3.5089  -17.2651 C   0  0  0  0  0  0  0  0  0  0  0  0
    6.8766   -2.6618  -15.9978 C   0  0  0  0  0  0  0  0  0  0  0  0
    4.3844    4.0340  -18.7231 C   0  0  2  0  0  0  0  0  0  0  0  0
    5.4582    3.0630  -19.2462 C   0  0  1  0  0  0  0  0  0  0  0  0
    7.3916   -1.2838  -16.1358 N   0  0  0  0  0  0  0  0  0  0  0  0
    5.9172    2.1532  -18.1689 N   0  0  0  0  0  0  0  0  0  0  0  0
    3.8698    5.8936  -17.2276 N   0  0  0  0  0  0  0  0  0  0  0  0
    8.4510   -1.0141  -14.0494 O   0  0  0  0  0  0  0  0  0  0  0  0
    7.9281    3.1423  -17.7250 O   0  0  0  0  0  0  0  0  0  0  0  0
    3.8353    4.7916  -19.8080 O   0  0  0  0  0  0  0  0  0  0  0  0
    5.6050    8.3133  -18.3126 O   0  0  0  0  0  0  0  0  0  0  0  0
    9.0032    0.3964  -22.1918 F   0  0  0  0  0  0  0  0  0  0  0  0
    5.5756   -2.6048  -20.7176 F   0  0  0  0  0  0  0  0  0  0  0  0
    5.9234    9.9727  -24.1841 H   0  0  0  0  0  0  0  0  0  0  0  0
    8.2425    9.7153  -23.3201 H   0  0  0  0  0  0  0  0  0  0  0  0
    3.9833    9.6664  -22.6569 H   0  0  0  0  0  0  0  0  0  0  0  0
    8.6249    9.1500  -20.9299 H   0  0  0  0  0  0  0  0  0  0  0  0
    4.3602    9.1228  -20.2589 H   0  0  0  0  0  0  0  0  0  0  0  0
    7.3156    2.2898  -21.4931 H   0  0  0  0  0  0  0  0  0  0  0  0
    4.2342   -0.4157  -20.1530 H   0  0  0  0  0  0  0  0  0  0  0  0
    7.9303   -1.9702  -21.7299 H   0  0  0  0  0  0  0  0  0  0  0  0
    7.3731    1.5223  -15.0096 H   0  0  0  0  0  0  0  0  0  0  0  0
    9.1214    1.3161  -15.3669 H   0  0  0  0  0  0  0  0  0  0  0  0
    5.9624    6.0875  -19.2557 H   0  0  0  0  0  0  0  0  0  0  0  0
    7.0461    5.5021  -17.9483 H   0  0  0  0  0  0  0  0  0  0  0  0
    5.8357   -0.0451  -16.8714 H   0  0  0  0  0  0  0  0  0  0  0  0
    6.8863   -0.7761  -18.1317 H   0  0  0  0  0  0  0  0  0  0  0  0
    4.8174    6.7499  -15.5400 H   0  0  0  0  0  0  0  0  0  0  0  0
    3.9332    7.9101  -16.5883 H   0  0  0  0  0  0  0  0  0  0  0  0
    8.7293    0.6232  -17.5810 H   0  0  0  0  0  0  0  0  0  0  0  0
    6.6857    7.4317  -16.7370 H   0  0  0  0  0  0  0  0  0  0  0  0
    5.3186    4.4090  -16.8128 H   0  0  0  0  0  0  0  0  0  0  0  0
    8.8010   -4.2218  -18.4766 H   0  0  0  0  0  0  0  0  0  0  0  0
    9.0640   -2.6073  -17.7346 H   0  0  0  0  0  0  0  0  0  0  0  0
    9.1665   -4.0882  -16.7230 H   0  0  0  0  0  0  0  0  0  0  0  0
    4.6812    2.8802  -21.2647 H   0  0  0  0  0  0  0  0  0  0  0  0
    3.8445    1.8545  -20.0505 H   0  0  0  0  0  0  0  0  0  0  0  0
    7.5777    8.0191  -18.9017 H   0  0  0  0  0  0  0  0  0  0  0  0
    7.1383    9.7086  -18.4783 H   0  0  0  0  0  0  0  0  0  0  0  0
    6.6377   -3.0394  -18.1213 H   0  0  0  0  0  0  0  0  0  0  0  0
    6.7402   -4.5203  -17.1098 H   0  0  0  0  0  0  0  0  0  0  0  0
    5.7917   -2.6197  -15.8209 H   0  0  0  0  0  0  0  0  0  0  0  0
    7.3697   -3.1412  -15.1393 H   0  0  0  0  0  0  0  0  0  0  0  0
    3.5872    3.4375  -18.2555 H   0  0  0  0  0  0  0  0  0  0  0  0
    6.3072    3.6373  -19.6453 H   0  0  0  0  0  0  0  0  0  0  0  0
    5.2607    1.4921  -17.8056 H   0  0  0  0  0  0  0  0  0  0  0  0
    3.2629    5.4313  -16.5811 H   0  0  0  0  0  0  0  0  0  0  0  0
    3.3386    6.2169  -18.0107 H   0  0  0  0  0  0  0  0  0  0  0  0
    3.4888    4.1992  -20.4650 H   0  0  0  0  0  0  0  0  0  0  0  0
  1  2  2  0
  1  3  1  0
  2  4  1  0
  3  5  2  0
  4  9  2  0
  5  9  1  0
  6 10  2  0
  6 11  1  0
  7 10  1  0
  7 12  2  0
  8 11  2  0
  8 12  1  0
  9 24  1  0
 10 23  1  0
 11 36  1  0
 12 37  1  0
 13 15  1  0
 13 29  1  0
 13 32  2  0
 14 19  1  0
 14 30  1  0
 14 33  2  0
 15 19  1  0
 16 20  1  0
 16 21  1  0
 17 19  1  0
 17 29  1  0
 18 20  1  0
 18 31  1  0
 20 35  1  0
 21 27  1  0
 21 31  1  0
 22 25  1  0
 23 28  1  0
 24 35  1  0
 25 26  1  0
 26 29  1  0
 27 28  1  0
 27 34  1  0
 28 30  1  0
  1 38  1  0
  2 39  1  0
  3 40  1  0
  4 41  1  0
  5 42  1  0
  6 43  1  0
  7 44  1  0
  8 45  1  0
 15 46  1  0
 15 47  1  0
 16 48  1  0
 16 49  1  0
 17 50  1  0
 17 51  1  0
 18 52  1  0
 18 53  1  0
 19 54  1  6
 20 55  1  1
 21 56  1  1
 22 57  1  0
 22 58  1  0
 22 59  1  0
 23 60  1  0
 23 61  1  0
 24 62  1  0
 24 63  1  0
 25 64  1  0
 25 65  1  0
 26 66  1  0
 26 67  1  0
 27 68  1  1
 28 69  1  6
 30 70  1  0
 31 71  1  0
 31 72  1  0
 34 73  1  0
M  CHG  1  31   1
M  END
>  <OMEGA_C>  (2) 
RNHCQF+nG0EAKbnBHNfsQAFOGUG2P7XBsamfQJnoGEFPPbLBmcHzQIIrFEEKbKrBFnumQEjhE0G1
ZKfBa8DeQCgnpD+nqKrB59ymQDWIgL4ZmqTB0svpQMF/kL/0vKvBfrXQQHJUEUFYdaPBwNi1QNAC
iD9XQKbBe7/4QLxxPj50YK3Bt87AQF9PrL8vXKfBM3gAQejMEL+FvnHBUZrmQCwTCkBJBI3BhNQB
Qe4taT+BuHjBtb7BQKqDvUCBYJHBr7PbQHkKrb7D+4jBVv+RQEtA4EDRoITBCrj5QAIZXD8YSYjB
yJu6QGBt50DnNIvBGCOeQOq4n0AkVY3BQG4KQSROZ8Axk4zB2kiaQOfJDkA8GqPBDW7ZQBSdDEFg
yZfBlZvkQAOSYMDWHorB/QzcQGhbKsAc93/BWE2MQFoWgUDQyJXBdKmuQKwIREAl+JnB2YfsQOhT
pL8zFoHBhVm9QMvNCUACWpHBVqt3QP+XvEAZ0onBSjcHQS/Ogb9JymDBYrP9QP0aSUC+zI3BoHV1
QGpUmUDgdp7BwluzQBcDBUEcgJLB+AwQQf33yj7FiLHBQWuyQIK0JsCivaXB1Iy9QCWQH0H1eMHB
MuEDQeVxG0GFj7rBKu9+QIqpGkFeQbXBr/8JQWlmEkFscKfBBIeLQCz3EUEsEqLBlRnqQDKMEkD4
8avBRn6HQMrT1L5POaHB/sT9QBYw/L/q1q3Bh/DrQFvawj90J3DBOfERQVt1qD/t3nXBqcu+QGjM
wkDDC5rB+XnhQPIQsEAclo/Bvr26QPegOL2i+IbB0VzcQPKwRr+wDZHBNCiaQAf/10AIpHjBa7l7
QC0f/UDUtITBPKsLQS6MHz/ZpYzB4/DVQHbQ7UB55YXBvjGqQHkWjUCfgIbB9dAMQQEZh8AQ0JPB
JAYRQR3eJsBd4I3B2akSQWXSgsDGyIXBXcyVQM5VOEAZHqrB6wt2QPRe7T9cZ6DB7XzyQGtOAEGl
NpfBvGzkQGdWG0F405PBBGjUQD2FQsB9+JDBba/XQPalkMDl4IjBx1W5QGapJ8CCIn3B+9TrQGcJ
ScDCOnLBA5VlQH//W0A+C5LBstTJQFPKaECSKZ3BpVeoQH3+vj/GcY7BwdJQQHvNrUAapoTBaaxV
QD/xxkDnFZDBHkhfQBxghkBLuKPBOQHCQCkJHEEhOrnB+QKfQHY6GUGxQrLBYR/sQICsGUHbYbXB
vBemQMsjFEGabqfBYkzzQGt2FEHUk6rBxq7fQJzcpD/agKrBMWSnQNTCgb5z0aTBfy3qQHd4j7/k
HazBj2zQQK6TEUFAkaPB3LS2QBLqhz9/KabB8Wv5QKyLSD59d63BNxrBQMIQrL8Tz6fB5Zz/QO7d
N7/fl3LBnuPlQGRSB0CplIzBcwcBQVH0Rj+bc3jBa9zBQKq8vUCRk5HBOuzZQLavyb7sUInB7qOS
QA584EB5sYTBk2/4QBbuST9nLYjBfBK7QG+Z50D4WYvBeJ+eQHTvn0COWo3B75gNQeKRaMAdY4vB
ZhqbQMRrDkDa8aLBCXrZQPrRDEGj65fBmOzpQOa3ZMD+9orBB/vZQIo/McA2LoHBSrGMQCfPgEAG
qZXBZiavQJY3Q0B7upnB9CvpQL/Fr7/KgIHBdei8QJaTCECDEZHBMbR4QPfDvECh0onBv1IHQUP5
nL+1aWLBHSv9QOpTRkAaBY3BFrB1QLt7mECrZ57B6ZizQCgsBUEMlZLBqV0QQYAY0z5GobHBG1Sy
QOSxJsCshqbBwom8QMsAIEFEhsHBhXx9QPX6GkFKOrXB3nQDQRXdG0G/urrBwUWLQIYwEkEsEqLB
J84JQSKrEkGGpafBKEjrQPT/EkAXjavBi/OHQEtd2L7mfqHBkv79QDfA+r/DYq7BNBHqQPDSrT8E
iW/BrBERQTxElz85M3XBKzi+QFELw0BiOprBhcDhQHVXsEAB8o/BPeO4QJ+6t70uf4fBEVjbQM7T
Tr8YdpHBrwmbQNxS2ED1yXjBO/x8QN9Y/UBvwYTB+AoLQeHCDz/gjozB4JrWQHrU7UAyGIbBZxqr
QNmyjUAFgYbBnaISQYLMhsBdb5LBJBIUQes/J8Bl7ovBtqoTQYfMg8AcGITBL7eWQCt1OEAA66nB
2593QAUC7D/1T6DBVpbyQKKHAEErZ5fBxIjkQCeJG0GH9pPB7xbeQPHzRcBoTpLBFEjdQIomk8Af
eIrB/8e2QOh2McBBIoHBwOrlQI3UT8C9rHPBK6RmQCm8W0DB0JHBSavKQJOeZ0CDy5zBBmGnQH//
vT+BPI7BNSBSQAUFrkCVnITBomZWQF8Ex0BJEpDBDWFfQHcvhUCtkqPBwlLmQC0qFkE1WbTBZgUC
QURlFEF36KvBERe6QK7LFEGNQ7LBiI/1QO1vEUEwW6HBdI2rQPniEUHIt6fBbjTVQBdKlD9x1arB
XIWoQFRY3b4GEqHBTiTsQDuPlL8W6KjB0kLJQLNGEEFyQZ/B6JKvQOIMXz/mC6XBymPzQIhkEz7+
xazBlMrGQBlJub8lBKPBTmb6QBIUGb/SLn3BdvbgQP4+GUCmEo/BhlXdQAhkDj5nYIbBZrW4QF/f
vEDepZPBSdUMQaTyuT/hqYLBMoqQQEWh30BbiIXBEvnqQKOlyz8bJ4XBUAy+QCSG20DnXYrB9LaW
QGc+n0AgCI/B7WwjQd6e6T8CRFPBfuyPQNd3/T/9qKLBYTi5QP8AEEEh7ZPBVAAvQeLVgD9bnWTB
ThAhQVimKL68s2zBsHqCQMWvgEAsKpfBYXOkQIDdQkCIYJvBUjoNQYiZmT58uXbBNqK2QLRpF0DN
I5LBMDxuQCOLvECJVYrB/Hj3QKXW5L+uvHjB4Oj7QBZTRkBAeJPBU+hfQAMAmEDfx5/B3CHSQFKs
AUElTo3BwqwLQYBM2T5AWbLBPjzAQJZgLMCOIp/BtH3xQI+TGEF/b7zBsvYSQdFPFUFUi63BUGaj
QHr6FUEEwbjBGiQGQQ8PEEHu4ZrBhqqJQLHiEEGOGKbBSdnaQDgjCkBcx63BHe+LQA2VJr9VipzB
J5wBQRps+L88darBam/iQIbWWL52no7B33y7QMSXBzyhMoTBHGStQEpMzUAL5prBEZLWQGyqq0Dv
b5XBISkWQWccoD8G84nBzg0TQQnWFkAad33BbL2RQLEm3EDNj3nBY4GCQDfZ/kAWlofBPVPaQOIa
AkAEgXzBSibSQOuXy0AAV4TB1VylQLUOjEB5oIjBddItQbdwKUAg7E3BV4UUQRdKD0AR4lnBjqcf
QRxGlj9Il0XBGfaFQB3hHEBjNqrBbIxnQJ77xj/Vnp7BUE67QBJGIEFonJDBzKaXQFq1CkFI5ZPB
3sgyQb9d1T8CLHLBFes9QVkfGj854V3Bl0YqQVLjPb8ChXjBX/4cQT6oT79oDl/BmiFTQJMLXECI
DpPBvTK9QPAXZkDW0p/B9peiQJ8/6j/im43B8c1LQJyUrUAcuYTBHhxHQNfxx0C5/I/Bdh5HQF+c
hEA0v6TB

>  <OMEGA_E>  (2) 
KDQAP+BLAj8QPzg/

>  <OMEGA_NBR>  (2) 
     16792

$$$$
50210644
     RDKit          3D

 77 80  0  0  1  0  0  0  0  0999 V2000
    6.9357    9.5491  -22.8647 C   0  0  0  0  0  0  0  0  0  0  0  0
    5.5405    9.5065  -22.6740 C   0  0  0  0  0  0  0  0  0  0  0  0
    7.8043    9.3277  -21.7774 C   0  0  0  0  0  0  0  0  0  0  0  0
    5.0138    9.2434  -21.3954 C   0  0  0  0  0  0  0  0  0  0  0  0
    7.2801    9.0643  -20.4976 C   0  0  0  0  0  0  0  0  0  0  0  0
    6.8442    1.2964  -21.3324 C   0  0  0  0  0  0  0  0  0  0  0  0
    5.1442   -0.3136  -20.6313 C   0  0  0  0  0  0  0  0  0  0  0  0
    7.2829   -1.0975  -21.4995 C   0  0  0  0  0  0  0  0  0  0  0  0
    5.8788    9.0148  -20.3040 C   0  0  0  0  0  0  0  0  0  0  0  0
    5.5641    1.0200  -20.8059 C   0  0  0  0  0  0  0  0  0  0  0  0
    7.7048    0.2366  -21.6735 C   0  0  0  0  0  0  0  0  0  0  0  0
    6.0013   -1.3708  -20.9802 C   0  0  0  0  0  0  0  0  0  0  0  0
    8.2465   -0.1256  -15.1015 C   0  0  0  0  0  0  0  0  0  0  0  0
    7.1283    2.3166  -17.7646 C   0  0  0  0  0  0  0  0  0  0  0  0
    8.1831    1.3167  -15.6348 C   0  0  0  0  0  0  0  0  0  0  0  0
    5.8712    5.9009  -18.3680 C   0  0  0  0  0  0  0  0  0  0  0  0
    6.9231   -0.1108  -17.0149 C   0  0  0  0  0  0  0  0  0  0  0  0
    4.5128    7.0362  -16.6925 C   0  0  0  0  0  0  0  0  0  0  0  0
    7.7997    1.1176  -17.0940 C   0  0  1  0  0  0  0  0  0  0  0  0
    5.9057    7.0378  -17.3604 C   0  0  2  0  0  0  0  0  0  0  0  0
    4.7998    4.9793  -17.7856 C   0  0  2  0  0  0  0  0  0  0  0  0
    4.5320   -3.5062  -17.3835 C   0  0  0  0  0  0  0  0  0  0  0  0
    4.6394    2.1454  -20.4169 C   0  0  0  0  0  0  0  0  0  0  0  0
    5.2778    8.8244  -18.9279 C   0  0  0  0  0  0  0  0  0  0  0  0
    7.2589   -2.3457  -15.8141 C   0  0  0  0  0  0  0  0  0  0  0  0
    5.6210   -4.5333  -17.7593 C   0  0  0  0  0  0  0  0  0  0  0  0
    7.5614   -3.2320  -17.0393 C   0  0  0  0  0  0  0  0  0  0  0  0
    4.1952    4.0117  -18.8052 C   0  0  2  0  0  0  0  0  0  0  0  0
    5.2715    3.0528  -19.3388 C   0  0  1  0  0  0  0  0  0  0  0  0
    7.6431   -0.9558  -16.0611 N   0  0  0  0  0  0  0  0  0  0  0  0
    5.8164    2.2213  -18.2394 N   0  0  0  0  0  0  0  0  0  0  0  0
    3.7725    5.9035  -17.2851 N   0  0  0  0  0  0  0  0  0  0  0  0
    8.7466   -0.4684  -14.0367 O   0  0  0  0  0  0  0  0  0  0  0  0
    7.8304    3.2865  -18.0149 O   0  0  0  0  0  0  0  0  0  0  0  0
    3.6138    4.7488  -19.8866 O   0  0  0  0  0  0  0  0  0  0  0  0
    6.2456    8.2948  -17.9818 O   0  0  0  0  0  0  0  0  0  0  0  0
    6.8038   -4.4547  -16.9186 O   0  0  0  0  0  0  0  0  0  0  0  0
    8.9351    0.4999  -22.1682 F   0  0  0  0  0  0  0  0  0  0  0  0
    5.5919   -2.6475  -20.8147 F   0  0  0  0  0  0  0  0  0  0  0  0
    7.3400    9.7517  -23.8455 H   0  0  0  0  0  0  0  0  0  0  0  0
    4.8756    9.6756  -23.5081 H   0  0  0  0  0  0  0  0  0  0  0  0
    8.8735    9.3601  -21.9260 H   0  0  0  0  0  0  0  0  0  0  0  0
    3.9441    9.2163  -21.2491 H   0  0  0  0  0  0  0  0  0  0  0  0
    7.9469    8.9001  -19.6640 H   0  0  0  0  0  0  0  0  0  0  0  0
    7.1624    2.3188  -21.4732 H   0  0  0  0  0  0  0  0  0  0  0  0
    4.1639   -0.5231  -20.2294 H   0  0  0  0  0  0  0  0  0  0  0  0
    7.9424   -1.9108  -21.7643 H   0  0  0  0  0  0  0  0  0  0  0  0
    7.4212    1.9037  -15.1010 H   0  0  0  0  0  0  0  0  0  0  0  0
    9.1593    1.8157  -15.5458 H   0  0  0  0  0  0  0  0  0  0  0  0
    5.5850    6.2626  -19.3666 H   0  0  0  0  0  0  0  0  0  0  0  0
    6.8445    5.3920  -18.4274 H   0  0  0  0  0  0  0  0  0  0  0  0
    5.9190    0.1412  -16.6431 H   0  0  0  0  0  0  0  0  0  0  0  0
    6.8384   -0.6020  -17.9955 H   0  0  0  0  0  0  0  0  0  0  0  0
    4.6115    6.9002  -15.6054 H   0  0  0  0  0  0  0  0  0  0  0  0
    3.9905    7.9823  -16.8977 H   0  0  0  0  0  0  0  0  0  0  0  0
    8.7074    0.8655  -17.6619 H   0  0  0  0  0  0  0  0  0  0  0  0
    6.6536    6.7967  -16.5907 H   0  0  0  0  0  0  0  0  0  0  0  0
    5.2295    4.4051  -16.9515 H   0  0  0  0  0  0  0  0  0  0  0  0
    3.6701   -3.6219  -18.0571 H   0  0  0  0  0  0  0  0  0  0  0  0
    4.2109   -3.6757  -16.3451 H   0  0  0  0  0  0  0  0  0  0  0  0
    4.9387   -2.4887  -17.4801 H   0  0  0  0  0  0  0  0  0  0  0  0
    4.4187    2.7507  -21.3085 H   0  0  0  0  0  0  0  0  0  0  0  0
    3.7050    1.7196  -20.0223 H   0  0  0  0  0  0  0  0  0  0  0  0
    4.9162    9.7961  -18.5603 H   0  0  0  0  0  0  0  0  0  0  0  0
    4.4334    8.1234  -19.0027 H   0  0  0  0  0  0  0  0  0  0  0  0
    6.1812   -2.3874  -15.5979 H   0  0  0  0  0  0  0  0  0  0  0  0
    7.8215   -2.7253  -14.9484 H   0  0  0  0  0  0  0  0  0  0  0  0
    5.1945   -5.5431  -17.6673 H   0  0  0  0  0  0  0  0  0  0  0  0
    5.9223   -4.3561  -18.8023 H   0  0  0  0  0  0  0  0  0  0  0  0
    7.2704   -2.7045  -17.9597 H   0  0  0  0  0  0  0  0  0  0  0  0
    8.6363   -3.4633  -17.0735 H   0  0  0  0  0  0  0  0  0  0  0  0
    3.4194    3.4160  -18.3020 H   0  0  0  0  0  0  0  0  0  0  0  0
    6.0806    3.6407  -19.7967 H   0  0  0  0  0  0  0  0  0  0  0  0
    5.2093    1.5519  -17.8113 H   0  0  0  0  0  0  0  0  0  0  0  0
    3.2071    5.4554  -16.5927 H   0  0  0  0  0  0  0  0  0  0  0  0
    3.1922    6.2200  -18.0355 H   0  0  0  0  0  0  0  0  0  0  0  0
    3.2397    4.1448  -20.5172 H   0  0  0  0  0  0  0  0  0  0  0  0
  1  2  2  0
  1  3  1  0
  2  4  1  0
  3  5  2  0
  4  9  2  0
  5  9  1  0
  6 10  2  0
  6 11  1  0
  7 10  1  0
  7 12  2  0
  8 11  2  0
  8 12  1  0
  9 24  1  0
 10 23  1  0
 11 38  1  0
 12 39  1  0
 13 15  1  0
 13 30  1  0
 13 33  2  0
 14 19  1  0
 14 31  1  0
 14 34  2  0
 15 19  1  0
 16 20  1  0
 16 21  1  0
 17 19  1  0
 17 30  1  0
 18 20  1  0
 18 32  1  0
 20 36  1  0
 21 28  1  0
 21 32  1  0
 22 26  1  0
 23 29  1  0
 24 36  1  0
 25 27  1  0
 25 30  1  0
 26 37  1  0
 27 37  1  0
 28 29  1  0
 28 35  1  0
 29 31  1  0
  1 40  1  0
  2 41  1  0
  3 42  1  0
  4 43  1  0
  5 44  1  0
  6 45  1  0
  7 46  1  0
  8 47  1  0
 15 48  1  0
 15 49  1  0
 16 50  1  0
 16 51  1  0
 17 52  1  0
 17 53  1  0
 18 54  1  0
 18 55  1  0
 19 56  1  6
 20 57  1  1
 21 58  1  1
 22 59  1  0
 22 60  1  0
 22 61  1  0
 23 62  1  0
 23 63  1  0
 24 64  1  0
 24 65  1  0
 25 66  1  0
 25 67  1  0
 26 68  1  0
 26 69  1  0
 27 70  1  0
 27 71  1  0
 28 72  1  1
 29 73  1  6
 31 74  1  0
 32 75  1  0
 32 76  1  0
 35 77  1  0
M  CHG  1  32   1
M  END
>  <OMEGA_C>  (3) 
HPHdQDPJGEHx6rbB7UuxQK4aGEFHZLXBqbz5QD8+FUESOK7B63CgQNzkE0G6KavB3vboQFMHEUES
+6PB8QPbQNzvpT/VqKrBX52kQCaRoL7aDKXB3g3pQHB8jL/v/qvB7R68QIA8EEGIbqLBHg2yQFOP
gj+BcqbBW432QB1Ncj5DY63BCAvAQOh0r79916fB1fEDQf2VAL6kn3HBBBvkQI9CFED+HY7BAu4C
QaKJqD8IKHrBk+C7QA3UvECs8ZLBKIrdQIbX4r2RHojBLGmQQKgo4UArioXB7Zb5QNIOjz+MwIjB
tfu8QMU14UAw4orB95eZQEZWn0DcSI7B3QWRQHBlYMBmEYvB8nWUQAFOCUDBVaPBg+OoQK8wDUFo
bJfB7EjoQCIfFsB/Bn3Bm9+zQNIQkcD7Eo7BGffxQMzYTsB8UIjBGz+GQOFfgEAlcZbB4q+oQEZg
Q0DTtZrBAJT0QBSudL8rfYDBVyC6QHwqDkA/6pHBSnFxQLHpvEDqR4rB/fELQajM774ylmDBZZL6
QFRVUkCbHpDB+kdnQIn2l0C/F5/BGtzHQHC3BEHT2o/BG7nZQAmNjsBhWYfBX/YOQaby/z55WLHB
p/CyQAZwKcB1hKbBfeHqQBIHHEGBw77BBQWcQErPGkF/ELzB5/kNQQbDFUF8aK/Bsmt8QB52E0E3
/qnBwEz+QL5mDkHXT53ByjLlQBRnFEAiyavBzT6FQDHqBb+81aHBLSj+QAiV9L9NHa7BaXrtQMSt
8z/enXHBp4wSQW5q6D9su3jBP7iyQEdnyEDe7prBeQbbQOOKrEBPa5PBYmi9QPWWED4TJYXBadTa
QEsaGr/P9o/BP5GTQGzO3ECbr3nB8GN/QK9u/0CHLofBaFELQdiRXT+aS43Bn+rUQEJ+2UDNuYTB
u1enQFz2jECtnIfBh+JqQHnMZ8D6dJDBF8CGQC0+a8DOwoLBFgqeQIJHH8BC14vBLGaNQOMKMEC9
d6rBZR9tQKMc3D+gLaDB6lGdQLK8HEGMe5TBFt6NQHD5AUFzBZjBDszFQA/LGMAUkXnBgkn6QBBs
LsDOLG/BTDmmQLBgscCcVo3BS4O9QFpli8AQa5bBF6foQBMXLcBurY/BIy4KQU6nXcCQlojBftda
QPyfWkBvapLBFZTCQG0BaUCNX57B2bKmQLykxj+GfY7B4kFNQHCSrkDFvYTBX01MQKAKx0CpSJDB
y1ZPQAKihEA2I6TB

>  <OMEGA_E>  (3) 
tJ/8Pg==

>  <OMEGA_NBR>  (3) 
     18374

$$$$
50210655
     RDKit          3D

 70 73  0  0  1  0  0  0  0  0999 V2000
    7.1617    9.6123  -22.6866 C   0  0  0  0  0  0  0  0  0  0  0  0
    5.7589    9.5871  -22.5587 C   0  0  0  0  0  0  0  0  0  0  0  0
    7.9783    9.3285  -21.5739 C   0  0  0  0  0  0  0  0  0  0  0  0
    5.1723    9.2737  -21.3185 C   0  0  0  0  0  0  0  0  0  0  0  0
    7.3946    9.0211  -20.3311 C   0  0  0  0  0  0  0  0  0  0  0  0
    6.7559    1.3433  -21.4092 C   0  0  0  0  0  0  0  0  0  0  0  0
    5.2960   -0.3258  -20.3832 C   0  0  0  0  0  0  0  0  0  0  0  0
    7.4704   -0.9848  -21.2739 C   0  0  0  0  0  0  0  0  0  0  0  0
    5.9856    8.9839  -20.2026 C   0  0  0  0  0  0  0  0  0  0  0  0
    5.5384    1.0073  -20.7804 C   0  0  0  0  0  0  0  0  0  0  0  0
    7.7214    0.3497  -21.6517 C   0  0  0  0  0  0  0  0  0  0  0  0
    6.2593   -1.3216  -20.6360 C   0  0  0  0  0  0  0  0  0  0  0  0
    8.1629   -0.5579  -15.5888 C   0  0  0  0  0  0  0  0  0  0  0  0
    6.9640    2.1571  -17.8989 C   0  0  0  0  0  0  0  0  0  0  0  0
    7.4384   -0.1391  -16.8721 C   0  0  0  0  0  0  0  0  0  0  0  0
    5.8814    5.7589  -18.2102 C   0  0  0  0  0  0  0  0  0  0  0  0
    8.4754    1.7555  -15.9049 C   0  0  0  0  0  0  0  0  0  0  0  0
    4.4473    7.0019  -16.6600 C   0  0  0  0  0  0  0  0  0  0  0  0
    7.2256    1.3476  -16.6407 C   0  0  1  0  0  0  0  0  0  0  0  0
    5.8734    6.9458  -17.2485 C   0  0  2  0  0  0  0  0  0  0  0  0
    4.6821    4.9281  -17.7495 C   0  0  2  0  0  0  0  0  0  0  0  0
   10.7149    1.6851  -13.9812 C   0  0  0  0  0  0  0  0  0  0  0  0
    4.5422    2.0970  -20.4393 C   0  0  0  0  0  0  0  0  0  0  0  0
    5.3207    8.7018  -18.8760 C   0  0  0  0  0  0  0  0  0  0  0  0
    9.5594    0.6751  -13.8315 C   0  0  0  0  0  0  0  0  0  0  0  0
    4.0889    4.0264  -18.8498 C   0  0  2  0  0  0  0  0  0  0  0  0
    5.1490    3.0554  -19.3961 C   0  0  1  0  0  0  0  0  0  0  0  0
    8.7779    0.5950  -15.0690 N   0  0  0  0  0  0  0  0  0  0  0  0
    5.6413    2.2608  -18.2742 N   0  0  0  0  0  0  0  0  0  0  0  0
    3.6862    5.9163  -17.3072 N   0  0  0  0  0  0  0  0  0  0  0  0
    8.1839   -1.6895  -15.1193 O   0  0  0  0  0  0  0  0  0  0  0  0
    7.8550    2.7875  -18.4616 O   0  0  0  0  0  0  0  0  0  0  0  0
    3.5720    4.8254  -19.9129 O   0  0  0  0  0  0  0  0  0  0  0  0
    6.2618    8.1726  -17.9037 O   0  0  0  0  0  0  0  0  0  0  0  0
    8.8928    0.6800  -22.2401 F   0  0  0  0  0  0  0  0  0  0  0  0
    6.0283   -2.5977  -20.2525 F   0  0  0  0  0  0  0  0  0  0  0  0
    7.6120    9.8494  -23.6392 H   0  0  0  0  0  0  0  0  0  0  0  0
    5.1344    9.8082  -23.4116 H   0  0  0  0  0  0  0  0  0  0  0  0
    9.0534    9.3470  -21.6751 H   0  0  0  0  0  0  0  0  0  0  0  0
    4.0969    9.2549  -21.2207 H   0  0  0  0  0  0  0  0  0  0  0  0
    8.0210    8.8138  -19.4761 H   0  0  0  0  0  0  0  0  0  0  0  0
    6.9467    2.3644  -21.7046 H   0  0  0  0  0  0  0  0  0  0  0  0
    4.3723   -0.5817  -19.8857 H   0  0  0  0  0  0  0  0  0  0  0  0
    8.2063   -1.7497  -21.4732 H   0  0  0  0  0  0  0  0  0  0  0  0
    8.0610   -0.3207  -17.7605 H   0  0  0  0  0  0  0  0  0  0  0  0
    6.4802   -0.6682  -16.9814 H   0  0  0  0  0  0  0  0  0  0  0  0
    5.7536    6.0931  -19.2504 H   0  0  0  0  0  0  0  0  0  0  0  0
    6.8160    5.1856  -18.1215 H   0  0  0  0  0  0  0  0  0  0  0  0
    9.2968    1.9575  -16.6082 H   0  0  0  0  0  0  0  0  0  0  0  0
    8.2939    2.6475  -15.2873 H   0  0  0  0  0  0  0  0  0  0  0  0
    4.4788    6.8476  -15.5713 H   0  0  0  0  0  0  0  0  0  0  0  0
    3.9834    7.9748  -16.8792 H   0  0  0  0  0  0  0  0  0  0  0  0
    6.3669    1.4725  -15.9646 H   0  0  0  0  0  0  0  0  0  0  0  0
    6.5742    6.7312  -16.4282 H   0  0  0  0  0  0  0  0  0  0  0  0
    4.9866    4.2994  -16.8998 H   0  0  0  0  0  0  0  0  0  0  0  0
   11.2875    1.7296  -13.0431 H   0  0  0  0  0  0  0  0  0  0  0  0
   11.3768    1.3662  -14.7999 H   0  0  0  0  0  0  0  0  0  0  0  0
   10.3047    2.6803  -14.2078 H   0  0  0  0  0  0  0  0  0  0  0  0
    4.2921    2.6606  -21.3503 H   0  0  0  0  0  0  0  0  0  0  0  0
    3.6295    1.6410  -20.0281 H   0  0  0  0  0  0  0  0  0  0  0  0
    4.8934    9.6372  -18.4856 H   0  0  0  0  0  0  0  0  0  0  0  0
    4.5164    7.9673  -19.0297 H   0  0  0  0  0  0  0  0  0  0  0  0
    9.9747   -0.3173  -13.6019 H   0  0  0  0  0  0  0  0  0  0  0  0
    8.9027    0.9968  -13.0098 H   0  0  0  0  0  0  0  0  0  0  0  0
    3.2768    3.4327  -18.4049 H   0  0  0  0  0  0  0  0  0  0  0  0
    5.9691    3.6266  -19.8557 H   0  0  0  0  0  0  0  0  0  0  0  0
    4.9677    1.7532  -17.7370 H   0  0  0  0  0  0  0  0  0  0  0  0
    3.0510    5.5014  -16.6558 H   0  0  0  0  0  0  0  0  0  0  0  0
    3.1759    6.2697  -18.0913 H   0  0  0  0  0  0  0  0  0  0  0  0
    3.2089    4.2615  -20.5857 H   0  0  0  0  0  0  0  0  0  0  0  0
  1  2  2  0
  1  3  1  0
  2  4  1  0
  3  5  2  0
  4  9  2  0
  5  9  1  0
  6 10  2  0
  6 11  1  0
  7 10  1  0
  7 12  2  0
  8 11  2  0
  8 12  1  0
  9 24  1  0
 10 23  1  0
 11 35  1  0
 12 36  1  0
 13 15  1  0
 13 28  1  0
 13 31  2  0
 14 19  1  0
 14 29  1  0
 14 32  2  0
 15 19  1  0
 16 20  1  0
 16 21  1  0
 17 19  1  0
 17 28  1  0
 18 20  1  0
 18 30  1  0
 20 34  1  0
 21 26  1  0
 21 30  1  0
 22 25  1  0
 23 27  1  0
 24 34  1  0
 25 28  1  0
 26 27  1  0
 26 33  1  0
 27 29  1  0
  1 37  1  0
  2 38  1  0
  3 39  1  0
  4 40  1  0
  5 41  1  0
  6 42  1  0
  7 43  1  0
  8 44  1  0
 15 45  1  0
 15 46  1  0
 16 47  1  0
 16 48  1  0
 17 49  1  0
 17 50  1  0
 18 51  1  0
 18 52  1  0
 19 53  1  1
 20 54  1  1
 21 55  1  1
 22 56  1  0
 22 57  1  0
 22 58  1  0
 23 59  1  0
 23 60  1  0
 24 61  1  0
 24 62  1  0
 25 63  1  0
 25 64  1  0
 26 65  1  1
 27 66  1  6
 29 67  1  0
 30 68  1  0
 30 69  1  0
 33 70  1  0
M  CHG  1  30   1
M  END
>  <OMEGA_C>  (4) 
8SzlQM7LGUFBfrXBTEm4QNZkGUEzeLTBGE7/QJJBFUFWl6zBVYOlQA5hFEFIjKrBNaDsQIdWEEEN
pqLBQzDYQMLvqz/2RavBLnmpQHrLpr7HEKPBHA3vQJkafL/ZMKrBF4q/QDG+D0H6nqHBzDqxQFLv
gD85PqbByRX3QJoGsz6fNq3BE0zIQFopqb92FqXBZZsCQWnSDr+Sa3nB6djeQGYNCkAFMY/Bdgfu
QAx3Dr4C+obBlDS8QPlIuEB+rpHBWpsHQbq14D9Qen7BnlCOQDQP4EChR4XBXjjnQK5/rD8ZIIXB
SvO7QDNE3kD+/InB69OVQJeynUD8/o3BLnArQSSx1z/1sl/BclmRQJc1BkC4g6PBX0OqQIg6C0EN
ApfBZfMYQWfQLD/aTV3BotiCQJ7YgEBZzJbB7sSkQPSKQ0BPK5vBNnIMQZVTGD+LGnHBZoW0QAmx
EECJMZLBl+prQFBSvUA5dYrBVPECQdRA2L/U6HHBJFz7QANmMkB1sZPBZpxkQGRpmkCeTZ/BdmDI
QOXCAkHOOo/BuEgOQYETLj/R67HBuefAQOtAJsAaBaLBkZXzQDCXHUElHb3Bw0ykQEvuHEHwSrvB
odoQQTyNFUGFZq3BrxmDQCsUFEHuw6nBAFYAQVAFDUEOz5vBMEveQEBSF0D6oq3BeemLQKHqFL/m
FZ/B2kwDQSv2378TyavB/vkAQdA0pL6UFY7BDl7PQM8PK78C2ofBhB24QJz6wkDKAJrBghzaQCLw
pUDO+JDBib8UQRuP+j+C3YTBwbMEQetwKUCfmHTBkVKPQIsf20ALJHnBSu9+QMQx/0CNCIfBy73L
QEZ8vD8wb3/B2V/SQEhm10ADbYPB9pGfQFWUiUC4MofBw5k0QQFj3T9fsFDBMQc2QeTerj88zGzB
MOAkQeiJK0AoU2PB1ViJQDZHKkBdzarBmEloQJUM0j+cOaDBjZacQO0xGkGJ4pPBk4aQQAz0/kDL
PJjBdpgfQbF2or4/oVnBdXEOQYAufz8qKFDBCLdRQCKyW0AuPZPBHQO/QMIZaEBq2J7B/vaeQHpo
4D9t5Y3B6kNDQH4LsEABP4XBwUJLQK2hyED0upDBxV5NQPBdiEB/r6TBSu3qQIPZG0ERarTB24wA
QUyTGkGqoarBGJW+QMvRF0FBxLTBNhjrQDcjFUG6NqHBdX2oQN0pEkHAWqvB8aXVQIB2mj8UPavB
lU+jQDQL0L4UraPBIIvnQJCBlb/07arBfsy+QF90EEHwkaHBNAauQIlqbD+9TKbBi3LyQGSOJT4Q
f63BgPq/QCayub/JAqbBBBkTQeb6wD+3qXDBF0/lQBZjFUC3fpDBfK4RQTC1AEB9u4PBiaK8QE4B
uEAQqpHBThHeQMqtqj+7uHvBmnyNQAaD3kCISIXBa0H5QIBAuD9J6IfBHcK6QB5t3kAlG4rBhgCX
QB5FnEDF+Y3BiRn6QKNbj79CbVzBe8SPQAHpAkBkVqPB6timQFxZCkHjgZfBhw30QOyouz7dF1fB
wsiDQNv4fkBvv5bBsxmlQH4QQUAgXpvBgez8QHP7lD/QHGrBJa+5QAyoEEChm5LBv6BsQKziukCG
WorBolYjQSRyvz9isWXBx8r8QDVLQkAX/5XB1VZmQFZYmUD0Np/Bc+HEQGQJA0HXZ4/BBE8MQZDd
3j4gGLLBW6G1QAdOLsDjb6PBr+v7QJzrH0E3qLvBsoURQYDHHUF7XarBxoStQPEQGUEPQbzBjwP8
QIWHFEGlr5nBdnuGQJUiD0E0oKvBQNndQJBbDkAfSK3BxxGFQBaKH7/p3p/BeoT9QMw6/L+Wu6zB
l2wRQTsVR0Bt7YPBQEAfQXxc0j/GgIjBYoa4QM0TwkCUCJrBESDbQIG/pkBZ0JDBhhTLQBTnD0Cz
bHnBEobIQI1r7j6xsnzBRBePQNi52UAHJnnBerp6QAUH/UB8A4fBVtD+QK/03j4nOYvBS7vRQHj6
2EBJlIPBsWGhQNsiiEBoPYfB63DzQFDx3L9FH07B9PPjQIbws7/fUWnB/p4NQTyOpb+tqmHBcteG
QLM4JkC2narB08BlQEU3zz9vpZ/B0k+VQCxbGEGVepTBPhSQQMff+kAuV5nBmunSQAmZCj/L3FHB
0RkFQZ5dJz+YNUrBjptTQPcNWUDvK5PBNH29QL9nZkCRqp/BQH6nQLPr1T9JA47Br3FFQJT5rEDv
EYXB6pdKQF+FxUDHlZDBXrVOQNt2h0DLmqTB

>  <OMEGA_E>  (4) 
wIYZPzRlOD8=

>  <OMEGA_NBR>  (4) 
     24206

$$$$
50210664
     RDKit          3D

 76 79  0  0  1  0  0  0  0  0999 V2000
    7.2194    9.3599  -22.4850 C   0  0  0  0  0  0  0  0  0  0  0  0
    8.1706    9.2599  -21.4490 C   0  0  0  0  0  0  0  0  0  0  0  0
    5.8431    9.2717  -22.1947 C   0  0  0  0  0  0  0  0  0  0  0  0
    7.7462    9.0872  -20.1192 C   0  0  0  0  0  0  0  0  0  0  0  0
    5.4171    9.1007  -20.8656 C   0  0  0  0  0  0  0  0  0  0  0  0
    6.6655    1.1518  -21.3145 C   0  0  0  0  0  0  0  0  0  0  0  0
    5.2586   -0.4454  -20.1147 C   0  0  0  0  0  0  0  0  0  0  0  0
    7.3849   -1.1660  -21.0721 C   0  0  0  0  0  0  0  0  0  0  0  0
    6.3684    9.0181  -19.8268 C   0  0  0  0  0  0  0  0  0  0  0  0
    5.4801    0.8595  -20.6080 C   0  0  0  0  0  0  0  0  0  0  0  0
    7.6161    0.1414  -21.5451 C   0  0  0  0  0  0  0  0  0  0  0  0
    6.2089   -1.4582  -20.3519 C   0  0  0  0  0  0  0  0  0  0  0  0
    8.1081   -0.5996  -15.9956 C   0  0  0  0  0  0  0  0  0  0  0  0
    7.0030    2.3888  -17.8870 C   0  0  0  0  0  0  0  0  0  0  0  0
    7.1593    0.0624  -16.9830 C   0  0  0  0  0  0  0  0  0  0  0  0
    5.7720    5.9168  -18.4725 C   0  0  0  0  0  0  0  0  0  0  0  0
    8.7489    1.6186  -16.2182 C   0  0  0  0  0  0  0  0  0  0  0  0
    4.5317    6.9870  -16.6928 C   0  0  0  0  0  0  0  0  0  0  0  0
    7.3251    1.5430  -16.6841 C   0  0  1  0  0  0  0  0  0  0  0  0
    5.9566    6.8389  -17.2858 C   0  0  2  0  0  0  0  0  0  0  0  0
    4.7122    4.9854  -17.8970 C   0  0  2  0  0  0  0  0  0  0  0  0
   13.1051    0.7863  -14.3603 C   0  0  0  0  0  0  0  0  0  0  0  0
    4.4829    1.9659  -20.3213 C   0  0  0  0  0  0  0  0  0  0  0  0
    5.9027    9.0286  -18.3995 C   0  0  0  0  0  0  0  0  0  0  0  0
   11.9576    1.7688  -14.6862 C   0  0  0  0  0  0  0  0  0  0  0  0
   10.6761    1.3700  -13.9266 C   0  0  0  0  0  0  0  0  0  0  0  0
   10.0148    0.1122  -14.5462 C   0  0  0  0  0  0  0  0  0  0  0  0
    4.0695    4.0303  -18.9069 C   0  0  2  0  0  0  0  0  0  0  0  0
    5.1209    3.0393  -19.4205 C   0  0  1  0  0  0  0  0  0  0  0  0
    8.8532    0.4195  -15.3795 N   0  0  0  0  0  0  0  0  0  0  0  0
    5.6805    2.3651  -18.2611 N   0  0  0  0  0  0  0  0  0  0  0  0
    3.7307    5.8970  -17.2957 N   0  0  0  0  0  0  0  0  0  0  0  0
    8.2303   -1.8099  -15.8489 O   0  0  0  0  0  0  0  0  0  0  0  0
    7.8445    3.0912  -18.4398 O   0  0  0  0  0  0  0  0  0  0  0  0
    3.5039    4.7560  -19.9916 O   0  0  0  0  0  0  0  0  0  0  0  0
    6.6324    8.0741  -17.5961 O   0  0  0  0  0  0  0  0  0  0  0  0
    8.7515    0.4289  -22.2200 F   0  0  0  0  0  0  0  0  0  0  0  0
    6.0003   -2.7067  -19.8756 F   0  0  0  0  0  0  0  0  0  0  0  0
    7.5465    9.5044  -23.5041 H   0  0  0  0  0  0  0  0  0  0  0  0
    9.2249    9.3160  -21.6765 H   0  0  0  0  0  0  0  0  0  0  0  0
    5.1170    9.3353  -22.9916 H   0  0  0  0  0  0  0  0  0  0  0  0
    8.4733    9.0078  -19.3245 H   0  0  0  0  0  0  0  0  0  0  0  0
    4.3631    9.0328  -20.6402 H   0  0  0  0  0  0  0  0  0  0  0  0
    6.8433    2.1529  -21.6788 H   0  0  0  0  0  0  0  0  0  0  0  0
    4.3612   -0.6667  -19.5561 H   0  0  0  0  0  0  0  0  0  0  0  0
    8.1092   -1.9444  -21.2616 H   0  0  0  0  0  0  0  0  0  0  0  0
    7.4473   -0.1653  -18.0200 H   0  0  0  0  0  0  0  0  0  0  0  0
    6.1222   -0.2612  -16.8110 H   0  0  0  0  0  0  0  0  0  0  0  0
    5.4080    6.4558  -19.3596 H   0  0  0  0  0  0  0  0  0  0  0  0
    6.6986    5.3799  -18.7242 H   0  0  0  0  0  0  0  0  0  0  0  0
    9.4501    1.5778  -17.0648 H   0  0  0  0  0  0  0  0  0  0  0  0
    8.9315    2.5330  -15.6346 H   0  0  0  0  0  0  0  0  0  0  0  0
    4.5592    6.8823  -15.5982 H   0  0  0  0  0  0  0  0  0  0  0  0
    4.1064    7.9665  -16.9569 H   0  0  0  0  0  0  0  0  0  0  0  0
    6.6558    1.8198  -15.8561 H   0  0  0  0  0  0  0  0  0  0  0  0
    6.5575    6.2966  -16.5409 H   0  0  0  0  0  0  0  0  0  0  0  0
    5.1764    4.3834  -17.1019 H   0  0  0  0  0  0  0  0  0  0  0  0
   14.0106    1.0843  -14.9092 H   0  0  0  0  0  0  0  0  0  0  0  0
   13.3085    0.8059  -13.2794 H   0  0  0  0  0  0  0  0  0  0  0  0
   12.8129   -0.2309  -14.6600 H   0  0  0  0  0  0  0  0  0  0  0  0
    4.1698    2.4271  -21.2696 H   0  0  0  0  0  0  0  0  0  0  0  0
    3.6050    1.5406  -19.8130 H   0  0  0  0  0  0  0  0  0  0  0  0
    6.0527   10.0353  -17.9823 H   0  0  0  0  0  0  0  0  0  0  0  0
    4.8326    8.7755  -18.3710 H   0  0  0  0  0  0  0  0  0  0  0  0
   12.2546    2.7849  -14.3873 H   0  0  0  0  0  0  0  0  0  0  0  0
   11.7589    1.7481  -15.7679 H   0  0  0  0  0  0  0  0  0  0  0  0
   10.9335    1.1585  -12.8782 H   0  0  0  0  0  0  0  0  0  0  0  0
    9.9620    2.2058  -13.9674 H   0  0  0  0  0  0  0  0  0  0  0  0
   10.7618   -0.4054  -15.1660 H   0  0  0  0  0  0  0  0  0  0  0  0
    9.6929   -0.5509  -13.7297 H   0  0  0  0  0  0  0  0  0  0  0  0
    3.2826    3.4609  -18.3906 H   0  0  0  0  0  0  0  0  0  0  0  0
    5.9011    3.5778  -19.9784 H   0  0  0  0  0  0  0  0  0  0  0  0
    5.0512    1.8404  -17.6878 H   0  0  0  0  0  0  0  0  0  0  0  0
    3.1971    5.4246  -16.5942 H   0  0  0  0  0  0  0  0  0  0  0  0
    3.1148    6.2599  -17.9949 H   0  0  0  0  0  0  0  0  0  0  0  0
    3.1100    4.1496  -20.6077 H   0  0  0  0  0  0  0  0  0  0  0  0
  1  2  2  0
  1  3  1  0
  2  4  1  0
  3  5  2  0
  4  9  2  0
  5  9  1  0
  6 10  2  0
  6 11  1  0
  7 10  1  0
  7 12  2  0
  8 11  2  0
  8 12  1  0
  9 24  1  0
 10 23  1  0
 11 37  1  0
 12 38  1  0
 13 15  1  0
 13 30  1  0
 13 33  2  0
 14 19  1  0
 14 31  1  0
 14 34  2  0
 15 19  1  0
 16 20  1  0
 16 21  1  0
 17 19  1  0
 17 30  1  0
 18 20  1  0
 18 32  1  0
 20 36  1  0
 21 28  1  0
 21 32  1  0
 22 25  1  0
 23 29  1  0
 24 36  1  0
 25 26  1  0
 26 27  1  0
 27 30  1  0
 28 29  1  0
 28 35  1  0
 29 31  1  0
  1 39  1  0
  2 40  1  0
  3 41  1  0
  4 42  1  0
  5 43  1  0
  6 44  1  0
  7 45  1  0
  8 46  1  0
 15 47  1  0
 15 48  1  0
 16 49  1  0
 16 50  1  0
 17 51  1  0
 17 52  1  0
 18 53  1  0
 18 54  1  0
 19 55  1  1
 20 56  1  1
 21 57  1  1
 22 58  1  0
 22 59  1  0
 22 60  1  0
 23 61  1  0
 23 62  1  0
 24 63  1  0
 24 64  1  0
 25 65  1  0
 25 66  1  0
 26 67  1  0
 26 68  1  0
 27 69  1  0
 27 70  1  0
 28 71  1  1
 29 72  1  6
 31 73  1  0
 32 74  1  0
 32 75  1  0
 35 76  1  0
M  CHG  1  32   1
M  END
>  <OMEGA_C>  (5) 
iQXnQAHCFUFU4bPByLoCQaooFEGhl6vBBvu6QMFYFEG6jrHB6OD3QEVlEUEp9KDBKFmtQI2cEUHH
7KbBGEzVQLBukz8XhKrBREaoQLQI5L4A66DBKVHsQIs/lb+3k6jBJMrLQPJJEEFinZ7BCF2vQFoJ
XD8c3aTBI7fzQDjRED5eXKzBlK/GQEWlur+n0KLByLoBQVKBGb8X7n/B7RjgQGDhGECoGI/BVRnl
QOBufz1G3YfBorS4QFxWvUCjx5PBevsLQRMvzz/0voHBwgORQM+V30DgioXB0mbqQGOCxT/weIXB
k5y+QFvY2kBVSYrBtMqWQFGIn0AQLY/BZK5RQTpOST+5w2XBuHOPQKui+z//kaLBO+O8QEh1EEEt
MpPBIlI/QaVo4j98+mrBONEqQVZdrz8/017BfDwgQTDJ5T03vWjB8jiCQDj4gEBCQZfBot6jQLaD
QkA8XZvBzaYNQezF1j6JEnbBAMe1QKRdF0C3FpLBvsNuQFK0vECVXYrBWK8DQW2r57/vlH3B5AX7
QLLWRUDJhJPBQEBgQPQwmEC87p/BwDzUQHEvAUHAxIzBRgYMQaiX2z6NwrHBvALAQPY6LcA1AZ/B
5HzxQCgSGEFoCLzBGZkTQT8OFUGRaa3BYb6jQEJdFUHJ7rfBcJIHQR4gEEGtmJrBnJ6LQEaGEEEU
H6XBn/zaQE7ICUAubq3BlY6LQM6rKr/ycpzBF78BQSLj+L/WF6rB70/uQDVNKb7xKJDBw+jDQCK3
hb75fIbBhw6tQDqWzkBh4JrBi1rWQHMorEA7y5XBwDMXQYb0yT+ghIjBoOcOQeQbIkBMJ3rB2+SR
QPI73EAHknnB7WeDQNDt/kC1p4fB6/vUQNju6D+5sn3BG9fRQB1+yUDIU4TBMqWlQL5EjEDA0IjB
TStgQXzLij/8i27ByO9UQVRSTj+ZeFTBkQFNQSdwbL5hj2rBM2+FQK1VG0AiKKrBnrdmQMMwxT8R
gZ7BdK/BQLiQIEGy24/B6aSaQJtoDEHH95LB0BJEQR88MkBvMmbBmCQ8QQ/B3z83SXzBge8uQflJ
lD9FDU7BZ2QfQUcrDUBNel/BRTAsQayKz77Ap3LB8BUbQaUGDb/GrFvBwBVSQMZ+XUDeH5PBNta8
QJH6ZEDX05/B0KOhQKuR6z+agI3Bwp1MQJKWrUDTwITBYVhHQDZRyECg9Y/B9gpHQFfJhECd3KTB

>  <OMEGA_E>  (5) 
MDVGPw==

>  <OMEGA_NBR>  (5) 
     25772

$$$$
50210675
     RDKit          3D

 79 82  0  0  1  0  0  0  0  0999 V2000
    6.1443    9.6972  -23.1156 C   0  0  0  0  0  0  0  0  0  0  0  0
    5.0428    9.5320  -22.2529 C   0  0  0  0  0  0  0  0  0  0  0  0
    7.4556    9.5408  -22.6245 C   0  0  0  0  0  0  0  0  0  0  0  0
    5.2512    9.2162  -20.8968 C   0  0  0  0  0  0  0  0  0  0  0  0
    7.6669    9.2177  -21.2710 C   0  0  0  0  0  0  0  0  0  0  0  0
    6.9394    1.2453  -21.3355 C   0  0  0  0  0  0  0  0  0  0  0  0
    5.1922   -0.2676  -20.5396 C   0  0  0  0  0  0  0  0  0  0  0  0
    7.2806   -1.1692  -21.4159 C   0  0  0  0  0  0  0  0  0  0  0  0
    6.5689    9.0490  -20.4024 C   0  0  0  0  0  0  0  0  0  0  0  0
    5.6616    1.0408  -20.7774 C   0  0  0  0  0  0  0  0  0  0  0  0
    7.7487    0.1398  -21.6536 C   0  0  0  0  0  0  0  0  0  0  0  0
    6.0014   -1.3718  -20.8591 C   0  0  0  0  0  0  0  0  0  0  0  0
    8.1129   -0.4955  -15.1272 C   0  0  0  0  0  0  0  0  0  0  0  0
    7.1948    2.1874  -17.6461 C   0  0  0  0  0  0  0  0  0  0  0  0
    8.2591    0.9580  -15.6237 C   0  0  0  0  0  0  0  0  0  0  0  0
    6.0399    5.9063  -18.1957 C   0  0  0  0  0  0  0  0  0  0  0  0
    6.7262   -0.2179  -16.9714 C   0  0  0  0  0  0  0  0  0  0  0  0
    4.5734    6.9789  -16.5703 C   0  0  0  0  0  0  0  0  0  0  0  0
    7.7692    0.8818  -17.0592 C   0  0  1  0  0  0  0  0  0  0  0  0
    5.8447    7.1981  -17.3921 C   0  0  2  0  0  0  0  0  0  0  0  0
    4.9333    4.9742  -17.6836 C   0  0  2  0  0  0  0  0  0  0  0  0
    9.0770   -3.8091  -17.2748 C   0  0  0  0  0  0  0  0  0  0  0  0
    4.8041    2.2210  -20.4049 C   0  0  0  0  0  0  0  0  0  0  0  0
    6.8374    8.7575  -18.9423 C   0  0  0  0  0  0  0  0  0  0  0  0
    7.8172   -3.6702  -18.1546 C   0  0  0  0  0  0  0  0  0  0  0  0
    6.5369   -4.1923  -17.4540 C   0  0  0  0  0  0  0  0  0  0  0  0
    5.7142   -3.1044  -16.7214 C   0  0  0  0  0  0  0  0  0  0  0  0
    6.4790   -2.3683  -15.5814 C   0  0  0  0  0  0  0  0  0  0  0  0
    4.3658    4.0281  -18.7432 C   0  0  2  0  0  0  0  0  0  0  0  0
    5.4417    3.0688  -19.2756 C   0  0  1  0  0  0  0  0  0  0  0  0
    7.2696   -1.1911  -16.0192 N   0  0  0  0  0  0  0  0  0  0  0  0
    5.9082    2.1781  -18.1929 N   0  0  0  0  0  0  0  0  0  0  0  0
    3.8700    5.8734  -17.2235 N   0  0  0  0  0  0  0  0  0  0  0  0
    8.5954   -0.9321  -14.0886 O   0  0  0  0  0  0  0  0  0  0  0  0
    7.9297    3.1604  -17.7614 O   0  0  0  0  0  0  0  0  0  0  0  0
    3.8064    4.7885  -19.8198 O   0  0  0  0  0  0  0  0  0  0  0  0
    5.6410    8.3043  -18.2778 O   0  0  0  0  0  0  0  0  0  0  0  0
    8.9766    0.3360  -22.1836 F   0  0  0  0  0  0  0  0  0  0  0  0
    5.5533   -2.6246  -20.6201 F   0  0  0  0  0  0  0  0  0  0  0  0
    5.9834    9.9441  -24.1546 H   0  0  0  0  0  0  0  0  0  0  0  0
    4.0382    9.6476  -22.6320 H   0  0  0  0  0  0  0  0  0  0  0  0
    8.2989    9.6689  -23.2869 H   0  0  0  0  0  0  0  0  0  0  0  0
    4.4069    9.1014  -20.2333 H   0  0  0  0  0  0  0  0  0  0  0  0
    8.6729    9.0987  -20.8966 H   0  0  0  0  0  0  0  0  0  0  0  0
    7.2962    2.2481  -21.5184 H   0  0  0  0  0  0  0  0  0  0  0  0
    4.2122   -0.4211  -20.1125 H   0  0  0  0  0  0  0  0  0  0  0  0
    7.9029   -2.0174  -21.6606 H   0  0  0  0  0  0  0  0  0  0  0  0
    7.6362    1.6429  -15.0296 H   0  0  0  0  0  0  0  0  0  0  0  0
    9.3081    1.2863  -15.5812 H   0  0  0  0  0  0  0  0  0  0  0  0
    5.9232    6.0956  -19.2730 H   0  0  0  0  0  0  0  0  0  0  0  0
    7.0333    5.4744  -18.0048 H   0  0  0  0  0  0  0  0  0  0  0  0
    5.7703    0.1859  -16.6064 H   0  0  0  0  0  0  0  0  0  0  0  0
    6.5749   -0.6849  -17.9558 H   0  0  0  0  0  0  0  0  0  0  0  0
    4.8271    6.7137  -15.5334 H   0  0  0  0  0  0  0  0  0  0  0  0
    3.9516    7.8862  -16.5751 H   0  0  0  0  0  0  0  0  0  0  0  0
    8.5950    0.5409  -17.7010 H   0  0  0  0  0  0  0  0  0  0  0  0
    6.7042    7.3639  -16.7260 H   0  0  0  0  0  0  0  0  0  0  0  0
    5.3202    4.3835  -16.8402 H   0  0  0  0  0  0  0  0  0  0  0  0
    9.9508   -3.4245  -17.8213 H   0  0  0  0  0  0  0  0  0  0  0  0
    8.9419   -3.2330  -16.3475 H   0  0  0  0  0  0  0  0  0  0  0  0
    9.2366   -4.8691  -17.0279 H   0  0  0  0  0  0  0  0  0  0  0  0
    4.6693    2.8562  -21.2928 H   0  0  0  0  0  0  0  0  0  0  0  0
    3.8245    1.8547  -20.0640 H   0  0  0  0  0  0  0  0  0  0  0  0
    7.6084    7.9765  -18.8672 H   0  0  0  0  0  0  0  0  0  0  0  0
    7.1957    9.6748  -18.4523 H   0  0  0  0  0  0  0  0  0  0  0  0
    7.6752   -2.6075  -18.4005 H   0  0  0  0  0  0  0  0  0  0  0  0
    7.9700   -4.2436  -19.0809 H   0  0  0  0  0  0  0  0  0  0  0  0
    5.8926   -4.6543  -18.2165 H   0  0  0  0  0  0  0  0  0  0  0  0
    6.8349   -4.9520  -16.7164 H   0  0  0  0  0  0  0  0  0  0  0  0
    5.3999   -2.3550  -17.4627 H   0  0  0  0  0  0  0  0  0  0  0  0
    4.8255   -3.5831  -16.2843 H   0  0  0  0  0  0  0  0  0  0  0  0
    5.7418   -2.0282  -14.8393 H   0  0  0  0  0  0  0  0  0  0  0  0
    7.1671   -3.0868  -15.1120 H   0  0  0  0  0  0  0  0  0  0  0  0
    3.5750    3.4247  -18.2735 H   0  0  0  0  0  0  0  0  0  0  0  0
    6.2826    3.6485  -19.6841 H   0  0  0  0  0  0  0  0  0  0  0  0
    5.2539    1.5184  -17.8233 H   0  0  0  0  0  0  0  0  0  0  0  0
    3.2691    5.4059  -16.5751 H   0  0  0  0  0  0  0  0  0  0  0  0
    3.3308    6.2066  -17.9970 H   0  0  0  0  0  0  0  0  0  0  0  0
    3.4549    4.1981  -20.4759 H   0  0  0  0  0  0  0  0  0  0  0  0
  1  2  2  0
  1  3  1  0
  2  4  1  0
  3  5  2  0
  4  9  2  0
  5  9  1  0
  6 10  2  0
  6 11  1  0
  7 10  1  0
  7 12  2  0
  8 11  2  0
  8 12  1  0
  9 24  1  0
 10 23  1  0
 11 38  1  0
 12 39  1  0
 13 15  1  0
 13 31  1  0
 13 34  2  0
 14 19  1  0
 14 32  1  0
 14 35  2  0
 15 19  1  0
 16 20  1  0
 16 21  1  0
 17 19  1  0
 17 31  1  0
 18 20  1  0
 18 33  1  0
 20 37  1  0
 21 29  1  0
 21 33  1  0
 22 25  1  0
 23 30  1  0
 24 37  1  0
 25 26  1  0
 26 27  1  0
 27 28  1  0
 28 31  1  0
 29 30  1  0
 29 36  1  0
 30 32  1  0
  1 40  1  0
  2 41  1  0
  3 42  1  0
  4 43  1  0
  5 44  1  0
  6 45  1  0
  7 46  1  0
  8 47  1  0
 15 48  1  0
 15 49  1  0
 16 50  1  0
 16 51  1  0
 17 52  1  0
 17 53  1  0
 18 54  1  0
 18 55  1  0
 19 56  1  6
 20 57  1  1
 21 58  1  1
 22 59  1  0
 22 60  1  0
 22 61  1  0
 23 62  1  0
 23 63  1  0
 24 64  1  0
 24 65  1  0
 25 66  1  0
 25 67  1  0
 26 68  1  0
 26 69  1  0
 27 70  1  0
 27 71  1  0
 28 72  1  0
 28 73  1  0
 29 74  1  1
 30 75  1  6
 32 76  1  0
 33 77  1  0
 33 78  1  0
 36 79  1  0
M  CHG  1  33   1
M  END
>  <OMEGA_C>  (6) 
Vp7EQO0nG0HJ7LjBBV+hQPqCGEH7BbLB65PuQCmnGEH6/rTB8gmoQJt1E0G4LKfB8Fb1QL17E0EE
K6rBgw/eQNxlnz8er6rB4SamQMH+iL4pUaTBEfvoQCuplb+1U6vBiTTSQLLIEEElOKPBcyu1QI04
hT8nOKbBrPX3QGgrDz6fOq3BhQvAQBKWr7+D36bBoc4BQQe1/b4JCXLBcjvmQPz+C0BMK43BXSUE
Qbw+dT+3+nnBrEbBQLoAvUDLkJHBqTzXQFwWX754xYfBcFmSQPRS30ASkITBj534QKa/YT8ueYjB
yAe7QLpW5kAEI4vBiN2dQIIsn0AXeI3BeTsRQbLIc8DMMorB9rqZQD0lDkBTPaPBFMzaQJMeDEHe
iZfBZCb6QPjkasC2PJHBfS7RQAMnhsDMoYvB3tq2QMOuRsBUxYXBW1TPQPaSF8BiTXnBjbSLQM7l
gEAB8pXBLyKuQNpnREBoNJrBraDoQMx2mL9aJ4DByw+9QKhlC0Ali5HBoq13QIryu0CkyYnBp4YJ
QUaebr8Wa2HBuL/9QKBESkBSF47Bj5tzQFo7mUACj57B/YK0QIzeBEHoOJLBRqAPQUUJrD4IeLHB
v7SxQJn5J8Dh9aTB9Xe/QDkbH0GtPMHB7TiBQGdcGkFiDrXBUsgEQbOzGkGNS7rBOQWNQE+fEUG4
3aHBC8QKQRWUEUE0LKfBjHrpQPLgD0C5JazBsMqGQCuY175v5qDBdeT8QGscAcDiSK3BI1z0QDNJ
0j8yeXDBG+4UQeakpD/ITHnBuYq9QOoOw0AaL5rBBhHhQOktr0DTCZDBFqa4QDJoPj7r2YTBmmXS
QO9XL79vpY/B6neaQInW1kC5iHjBuuZ8QAdc/EDUmYTBB4UJQb15Cj+em43BH4nWQMuk60DPzoXB
+D6qQLJFjECyuIbBTTYfQTwqW8DvkY7B1REPQZTpTsDDx4LBRMkTQcXPm8AyOYjBi2qVQJfMNkCz
V6rBhsR0QGxm7T8eg6DBMXjzQHw//0AY8JbBTEPmQN7LGkE2npPBVpv1QB3hJsAxNJPBNAr/QInL
h8CfpZjBgZC8QGPwlMBbu5HBwbfaQKZ2nsA/u4XB+susQJW4FsCes4vBGWqaQA9RZcBRRoLBwry3
QAzOAcCebW3BH1nlQJiORcDGynHBi8xkQL0tW0A0MJLBHwvJQF+AaUABeZ3Bmx+oQHhawj8Glo7B
ujhRQNP8rEDHmYTBcyxVQD6cxkDE+Y/BLx1dQD5XhkCzzqPBD4jpQMSdGEETirfB4K38QEeaE0Hk
o63BU6y8QENZGkEdXbjBWADjQNqdEEGghaTBO+yiQFVBF0FcRK/BEJ/aQBq/nz8L3arBGwqlQEZf
qr4kUKTBHfToQC0ck79IW6vB9CK2QIrGEkECUKXBvyCyQKRHfj9uTabBgg72QEYDNT5JWq3BAGnA
QLqOs7/O2KbBZQgCQRBdvr5eF3LBemPkQCQpDkBAqY3BqqEDQabEiT/1dXrBJwjDQJqruEBc/pDB
4RnYQOrlN76U7ofBZ5aSQBmH4kBK14bBVTT4QNwbdD8Au4jB66+yQNra5UAO6Y/B/BCdQM13nEBp
Q43BSacSQXgkb8AMqYnBp1eVQKrqCEAHJqPBBZWaQKj6DkGorJvB00b9QPozaMA615DB6DnUQDzb
hMDISIvBnYS5QIIpRMAahoXBR8PRQFZIE8AgAXnB4XOJQOuVgEATI5bBcZeqQCwyQUAge5rBl0fq
QOHFjr/PJ4DBUM26QOh6CkBEwpHBriR4QNQsukAVEonB/cgJQVz1RL8VPmHBCiz7QLTzTEA2E4/B
iJJzQBqsmkAxrZ7BlEKcQEAR8UAGiZnBaIgOQfA82D7smLHB3uOzQAQDK8Bi1qTB8Ur9QGojG0G2
g77B14IPQY8OEkE+D63BvReuQIAMHkG++b/Bu47xQO2uDEG/75zBm4WAQApPGEHz56/Bc4nkQKjf
EEDccKzBSQCGQCPPBr8X2KDBKf/9QL5X/L/JSK3BMlnyQPv63z/kR3HBUTUUQQ+yuD8WtnnBrHDL
QOqYsUCZWpnBcC7fQKSQs0DZ3YvBKfy4QL5wST6vIIXBawvUQCc8K792v4/Bk+iiQCs14UAlGn7B
HIp4QMG+/UCo8YbBf5sJQfyhIT8ZwI3Bkp7MQOFd/EA8+o3BfjioQEB9h0A9xYbBOKsgQUKIVsAS
AY7BLTUQQY5KScCMV4LBO1kVQbBHmcCbg4fBTr+OQG1lMEDePqrBUTpuQLgy3j/u/5/BUvWmQLsG
GEEUypTBdOZyQPjrE0E2U53BhXP4QFKYJMA1+pLB0F0BQZLuhsBEJpjBSd+/QMrmk8BdZpHBPrfd
QPj4nMBLVIXBvA6vQLsqFcATiIvBoFWdQPEsY8Bl84HBuhq6QCCf+78hIW3BG0joQDgWQMCMa3HB
561dQBuBXEAdppLB2jfFQNrlZECtHZ7BcKqmQEWsvz/jjo7BWDxeQMF3rkDPXYLBuDdKQFrMvkBs
hY7BaJlbQDX4iEBjFKTBuqIJQdrZHEEjdqvB6SkSQX1+G0HgCqHBbMrnQAAhGEFeVK3BHfIEQbNw
FUEzeZjB3ETNQHsXEkEsw6TB/SPYQOpfmz+2rarBFc+lQKh+tb4hiaLBbGzqQP5fk798UqnBRmfe
QKisEEHVWZrBbi+wQDyLdD9v2KXBMSv1QOAlJT7WbqzBo9fCQKAktL/gUKTBv+YGQTRgAL9gs3zB
uOzbQAaMB0C7qI7BuajsQBjUDL61tYbBumy+QFBPtUCEupDBphYEQWo17D+wuXvBCUSRQF6q20Cc
EITBaNDiQP+OqT96dYTBS2fAQGwI1ED6VIfBYwGWQGZKnEANDo7Bh1j1QHps3L+a2C7B6ZKRQFoo
BkA2oaPBMYDBQEatC0HVJpHBau8GQXDl0b6w0TLBTWIMQehFor5Mj0rBxeAZQaYjbT+B4U/BN6Ii
QZc1Tj9x3WbBIs+DQJhSgkBfbZfBVeGkQAbQQkDjQJvBa1QRQTKaMD/npXbBSymyQCl1EEDz+pHB
YjtvQGT9vECrXorBN0kLQaqf07/foHfBTPf5QKLzJkCRopPB1qZwQObvnUAtCKDBPyLXQFiA+kCf
6InBn6QNQXCx0j6EI7HBz8m4QLhnKsCdLKHB3c0TQauHIUE1C7LBBNUiQXMaH0HVpp/BPOLaQPEl
GUEEVLXBh2cLQd1vFEGweZDBSearQIaNDkE+JqbBfnDgQBwXDkAWCK3BcpmHQI+CDL9Lo57Bv0MA
QREQ+795xqrBwKz5QALihr7l0o7Bh8TPQGx6Qb+dz4XBZFK7QPJ0xkDnX5jBjrLaQL9eoEAtAZHB
xVYNQY4UJUC2gYLB4W/8QK81FEAy8GzBFgONQJ/B1UAP6XbBErCHQNWx/EAm8YXBnJDFQKHLsD/0
Kn/By4fQQPO9w0Bdp4DBLx6dQDI0hkACcIfBgUHtQBPR5r8+xB3B68bXQMrZ3L8WZTjBc70EQcTQ
JMAkizPB26+LQNe2KUC1FKvBUFpmQEaB2D+OmKDByk+5QJSMGkEn6ozB4xKkQJkVBEHZIpTBWs35
QO1F5D5cLC7BqsAVQQ7Zzr5qUinBx24VQSyDm7+tME/Bp8v6QIdwi77UwlPBZdkPQTHU6T+0nE7B
M04nQYUJgD99kETBqzIsQQCU2T8qi2rB89YsQXH0tL2N5GfBKLpOQAvvYUBnl5TBiXzAQJFjZEDP
vp7BxW6bQEYJ5T+0xY3BmdVBQLe8r0CMzoXB7wNUQAyry0CRnJDBI0FaQNVvjUCvxKXB

>  <OMEGA_E>  (6) 
WHXNPpYSBD8eoGQ/

>  <OMEGA_NBR>  (6) 
     32429

$$$$
