50145672
     RDKit          3D

 52 54  0  0  1  0  0  0  0  0999 V2000
    6.3813   -2.7343  -21.8977 C   0  0  0  0  0  0  0  0  0  0  0  0
    5.8431   -4.8195  -16.6760 C   0  0  0  0  0  0  0  0  0  0  0  0
    6.0831   -3.3304  -20.6632 C   0  0  0  0  0  0  0  0  0  0  0  0
    5.3494   -4.3585  -17.9101 C   0  0  0  0  0  0  0  0  0  0  0  0
    5.9518   -1.4234  -22.1635 C   0  0  0  0  0  0  0  0  0  0  0  0
    6.5774   -3.9547  -15.8358 C   0  0  0  0  0  0  0  0  0  0  0  0
    4.8971   -1.3123  -19.9664 C   0  0  0  0  0  0  0  0  0  0  0  0
    6.2523   -2.1403  -17.4243 C   0  0  0  0  0  0  0  0  0  0  0  0
    5.3934   -2.5980  -19.6747 C   0  0  0  0  0  0  0  0  0  0  0  0
    5.5623   -3.0176  -18.2878 C   0  0  0  0  0  0  0  0  0  0  0  0
    5.1701   -0.7297  -21.2177 C   0  0  0  0  0  0  0  0  0  0  0  0
    6.7966   -2.6015  -16.2137 C   0  0  0  0  0  0  0  0  0  0  0  0
    6.7561    3.6871  -18.8513 C   0  0  0  0  0  0  0  0  0  0  0  0
    4.3331    3.4754  -18.9919 C   0  0  0  0  0  0  0  0  0  0  0  0
    6.8036    3.8931  -20.3716 C   0  0  0  0  0  0  0  0  0  0  0  0
    5.6461    3.1033  -21.0229 C   0  0  1  0  0  0  0  0  0  0  0  0
    5.4917    3.5467  -22.4938 C   0  0  0  0  0  0  0  0  0  0  0  0
    5.4340    3.4060  -16.7403 C   0  0  0  0  0  0  0  0  0  0  0  0
    8.2342   -2.1977  -14.3003 C   0  0  0  0  0  0  0  0  0  0  0  0
    4.8039    0.7054  -21.4649 C   0  0  0  0  0  0  0  0  0  0  0  0
    5.9531    1.5834  -20.9332 C   0  0  0  0  0  0  0  0  0  0  0  0
    5.5093    3.5722  -18.2115 N   0  0  0  0  0  0  0  0  0  0  0  0
    4.3820    3.4161  -20.3043 N   0  0  0  0  0  0  0  0  0  0  0  0
    3.0794    3.4223  -18.3960 N   0  0  0  0  0  0  0  0  0  0  0  0
    7.8055    3.7075  -18.2181 O   0  0  0  0  0  0  0  0  0  0  0  0
    7.5663   -1.6997  -15.4842 O   0  0  0  0  0  0  0  0  0  0  0  0
    6.9398   -3.2821  -22.6422 H   0  0  0  0  0  0  0  0  0  0  0  0
    5.6596   -5.8389  -16.3701 H   0  0  0  0  0  0  0  0  0  0  0  0
    6.3816   -4.3501  -20.4698 H   0  0  0  0  0  0  0  0  0  0  0  0
    4.8106   -5.0281  -18.5641 H   0  0  0  0  0  0  0  0  0  0  0  0
    6.2211   -0.9462  -23.0941 H   0  0  0  0  0  0  0  0  0  0  0  0
    6.9747   -4.3227  -14.9014 H   0  0  0  0  0  0  0  0  0  0  0  0
    4.3107   -0.7771  -19.2342 H   0  0  0  0  0  0  0  0  0  0  0  0
    6.3633   -1.1012  -17.6973 H   0  0  0  0  0  0  0  0  0  0  0  0
    6.6955    4.9632  -20.6023 H   0  0  0  0  0  0  0  0  0  0  0  0
    7.7648    3.5288  -20.7632 H   0  0  0  0  0  0  0  0  0  0  0  0
    4.6685    2.9868  -22.9616 H   0  0  0  0  0  0  0  0  0  0  0  0
    5.2701    4.6235  -22.5307 H   0  0  0  0  0  0  0  0  0  0  0  0
    6.4268    3.3459  -23.0372 H   0  0  0  0  0  0  0  0  0  0  0  0
    4.3804    3.3348  -16.4323 H   0  0  0  0  0  0  0  0  0  0  0  0
    5.9643    2.4878  -16.4475 H   0  0  0  0  0  0  0  0  0  0  0  0
    5.9017    4.2720  -16.2491 H   0  0  0  0  0  0  0  0  0  0  0  0
    8.8013   -1.3819  -13.8281 H   0  0  0  0  0  0  0  0  0  0  0  0
    7.4859   -2.5820  -13.5916 H   0  0  0  0  0  0  0  0  0  0  0  0
    8.9230   -3.0079  -14.5816 H   0  0  0  0  0  0  0  0  0  0  0  0
    4.6699    0.8770  -22.5431 H   0  0  0  0  0  0  0  0  0  0  0  0
    3.8708    0.9499  -20.9360 H   0  0  0  0  0  0  0  0  0  0  0  0
    6.8572    1.3729  -21.5234 H   0  0  0  0  0  0  0  0  0  0  0  0
    6.1343    1.3238  -19.8797 H   0  0  0  0  0  0  0  0  0  0  0  0
    3.5495    3.5853  -20.8319 H   0  0  0  0  0  0  0  0  0  0  0  0
    2.2594    3.3421  -18.9627 H   0  0  0  0  0  0  0  0  0  0  0  0
    2.9969    3.4643  -17.4003 H   0  0  0  0  0  0  0  0  0  0  0  0
  1  3  2  0
  1  5  1  0
  2  4  2  0
  2  6  1  0
  3  9  1  0
  4 10  1  0
  5 11  2  0
  6 12  2  0
  7  9  2  0
  7 11  1  0
  8 10  2  0
  8 12  1  0
  9 10  1  0
 11 20  1  0
 12 26  1  0
 13 15  1  0
 13 22  1  0
 13 25  2  0
 14 22  1  0
 14 23  2  0
 14 24  1  0
 15 16  1  0
 16 17  1  6
 16 21  1  0
 16 23  1  0
 18 22  1  0
 19 26  1  0
 20 21  1  0
  1 27  1  0
  2 28  1  0
  3 29  1  0
  4 30  1  0
  5 31  1  0
  6 32  1  0
  7 33  1  0
  8 34  1  0
 15 35  1  0
 15 36  1  0
 17 37  1  0
 17 38  1  0
 17 39  1  0
 18 40  1  0
 18 41  1  0
 18 42  1  0
 19 43  1  0
 19 44  1  0
 19 45  1  0
 20 46  1  0
 20 47  1  0
 21 48  1  0
 21 49  1  0
 23 50  1  0
 24 51  1  0
 24 52  1  0
M  CHG  1  23   1
M  END
>  <OMEGA_C>  (1) 
NjPMQM/+LsCDLq/BlPq6QEw5msBfaIXBiqjCQKskVcAyTqXBYS6rQMx4i8DqR4/BInW+QGIwtr/B
TrHBDnrSQLkZfcCHX33BSbWcQLr4p79Iu5/BnRLIQPH5CMDqZIvBEpesQHFFJsDNZZ3BL/6xQI0g
QcBzTZLBq3GlQETLOr/nvanBwn3ZQMl+JsCytYHB/THYQIr5a0COz5bB2qiKQD9sXkB475fBFrfZ
QEgoeUD8+KLBgKy0QOSbRkDWLqjBNLyvQLf8YkBD87PBB+OtQJH7WUAh7IXBbb8DQcGmDMAuzmTB
R7mZQLCWND8XuKvBFoC+QKWtyj83d6fBUkywQGufZEA8sZHBAzmMQAehWkArb6LBlRRFQBIHW0D8
KpPBb8b5QOlHbUDFvpHBhR/yQJqO2b9Zv3fBwBLeQGQOUsBOI7XBSBu1QEbYusAF9oLBeTbMQPIz
i8AYwqPBYPCZQJbmoMAwg5TBUxPHQGI5cr/QwLjBgjDfQJ1TisAkbG7BmfGJQPvxRr+r35nBjKDL
QLr1jL8ElI3B4UHWQFrSnkB10aTBSHn4QNjXYUAPG6bBZmSVQP0nP0BjsbfB9qSoQKfzk0DTPrTB
najNQJYjVkAfTLjB8yuMQABtVUBbdYPBUdu+QPo3H0CTlIPBtNq8QDC0iEA6/oHBBdIMQRvjsL/V
P13BZYzvQO8/JcBad1nBsMQOQcCBQMANTmnBNXCVQI+EYD9YWLTBkrt3QP4pcz8CfafBJW7bQEy7
rz/7L6zBL0zEQJNyqT+6CZ/BRStjQK51ZUDEp6bBtZkQQNvkVUCes5fB3cw/QJu3XUDIM4vB6Jq0
QFB2HcC3rLDBuh/9QHV6s8CLso7B7BTCQGmbUsDnP6jBoxnwQE2VmMD3FJfB3ZytQPHri78m3a7B
/rHwQLmUqsAlH4TBZ7vBQO0Lsb+UIJzBTwHKQIfcVsDCSorByInIQHOhMMDl353BblvWQBu8aMAZ
+JTBgvm0QHgADL8UnKTBtezWQNVMhsBP0YHBIkTXQOmbYEAYV5fBWPiIQP9cYkDS/JfB5oPYQJOa
eEDHOKPBtg2wQGEoV0BHI6nBVparQMOMhEBIyrPBVvOtQC8DRUD3gIbBkZDWQFaol8BW1F3BIcms
QNwGZz+JLqLBioOzQCzy6z9Z7qvBv46vQPMUXEBzB5LB3/GIQGvPZ0ChiaLBzstCQNsJX0Av3ZLB
zib5QKb0UkCsrZLBvGTJQLdgd8DqHW/BYKCvQJgHOMChjbjB9GEIQZ8bz8DrYJDBMo3HQAvuisCv
s6nBWcz5QBiZn8DsL5/BE5+iQHZX676iTLXBGsz6QDpyv8BubXvB51TGQCK7d79LPJTBY3e2QDhv
H8Bhn4jBY/LZQE5Yn0CF+KPBtSj1QPYsXECL5qbB1RyPQAF2ckD+HrjBXkOoQCnrpkCMFLLBgDnI
QON4fkBTu7jBlnyMQDK7REBAxoPB3+q7QG4LBUC3W4XB7UTAQHstdEA42IHBTLXJQMqNi8Cjmk7B
PkbKQNEeuMBiwGDBQ7f5QG+JmMBvA13BEISLQETegD9+bp/BK7HCQOuMmz+jw5vBtBybQDWezT/F
+7HBvYfTQKCp0z8jQq/B/n5bQMCrd0AEQqbBg9kMQI7LYECsKZfBj/M/QGjlWkCC44rBAcC0QI16
HcD/rrDBsLLVQNgIu8AOc4zBuSTCQJCjUsC4QKjBDDvJQAoRoMBM35TBm7+tQLD4i7/F367BS4Pu
QF3zqsAT+oPBiLnBQJgjsb8LIZzB03LuQKXXSMCoV4zB/3nIQHG2MMDG3p3B8pHVQCsWacCD65TB
rRC1QAEVDL9DnqTBfx/7QMOVfsDE2IPB0E/XQHV0YEDDVZfBQwSJQPVhYkCa/JfBEpXYQG15eEAL
N6PBTx2wQGwXV0AlIqnBKq+rQNeFhEArybPBUPWtQB0VRUBhf4bBZHMQQdE+icAlL2bBka2sQHej
Zj/7L6LBs42zQJ7T6z9B7avBvZivQA0OXECABpLBvwCJQE7KZ0B4iaLBWuFCQJYuX0Ac3ZLB1y/5
QMG3UkAdrJLBN9kJQZmcWsC4eXfBpNevQIkHOMDZkLjBUzDMQKZC3MC7eozBQ6XHQJbwisDEtKnB
iB22QI6hrMBMWZvBdciiQK6M6779T7XBXQr4QCPnv8BHEHvBs0rGQPbnd799PJTB59H3QAZQBsAX
T4zBognaQK9Hn0Ax9qPBTjj1QBMEXECj5KbBwTSPQAB1ckCOHrjBDGOoQN3kpkBkE7LB8VLIQCRf
fkCWubjBaX2MQPDlRECExYPBNeO7QLwXBUC2V4XBwUvAQIE+dECv14HBmP8ZQa3rbcCEkFrBnjYC
QT5llsDyMV7BWyYaQZGZo8Apq2zB1lWLQHJCgD8xfJ/B3WfCQEyLmz+PvJvBSzebQLqlzT+M/7HB
WJrTQNRt0z8bO6/B3p9bQA2nd0CKQqbBZ/AMQH7+YEDFKZfBVQZAQLwSW0Bh44rBfMu0QEiSHcCg
rbDBgsHVQPHehMC7wIHB+x3CQJp8UsCfNajB4QPJQBGPVMBrPYrB27qtQLj/i78j6q7BujPvQIwg
qcCNv4PBNpTBQLHzr7/1KJzBImLvQK83mMDeypbBf1jIQHccMMBu2J3B67XVQHebZ8B62ZTB4ey0
QJINC79Mq6TBdkL8QMsUs8A3WI7BVUXXQExyYED/VZfBQfqIQORBYkDj/JfBv4nYQG+deECBNqPB
LxSwQJ5IV0CsJKnBUqCrQJi2hEDAx7PBuu+tQHPLRED7gIbBgjIRQcMC8sCRRIjBvousQA6SZz9r
QaLBN5KzQLZW7D9K+avBAY+vQJnsW0D9BpLBnPWIQKzQZ0CpiaLBP85CQEDgXkCB3ZLBsib5QIm+
UkBzrJLBT7cKQS021sAI8pDBIf6vQFtdOMA7jbjBmfvLQNblesAQWnPBGKLHQPrjisC6nqnBwXi1
QDz2HMA3qojB79CiQLlC7b7HYLXBi9r4QON7vcCGZHrBTCPGQOxgdL89SJTBukH5QHyIn8Ar3p7B
RfvZQA1bn0D+8aPBEC/1QIw5XEAy5abBHCiPQDnfckC/HrjB/kyoQMoQp0DQDLLB/0TIQIDkfkAM
ubjBWHiMQACHREC/xoPBiuO7QB7PBEDkXIXB0ELAQHLrc0D51oHBowQbQXEnBsFkcovBjJYaQbyX
38Cka4LBv+gCQTRB/8CoVoTBNiqLQD3OgD+glZ/B1i7CQEfwmz+vyJvBQFObQNJdzj90ErLBiKvT
QBMN1D88QK/BP4RbQFWud0BzQabBgNwMQPCsYEAIKpfB//Q/QG6mWkAC5IrB

>  <OMEGA_E>  (1) 
kOoeP2ZlNz9CZzc/SmY3Pw==

>  <OMEGA_NBR>  (1) 
      9221

$$$$
50216006
     RDKit          3D

 50 53  0  0  1  0  0  0  0  0999 V2000
    6.6057    5.2587  -24.2322 C   0  0  0  0  0  0  0  0  0  0  0  0
    7.5604    5.0013  -23.2310 C   0  0  0  0  0  0  0  0  0  0  0  0
    5.3060    4.7322  -24.1202 C   0  0  0  0  0  0  0  0  0  0  0  0
    6.7411   -0.4373  -22.7913 C   0  0  0  0  0  0  0  0  0  0  0  0
    5.6895   -4.1311  -18.4212 C   0  0  0  0  0  0  0  0  0  0  0  0
    6.3676   -1.4487  -21.8900 C   0  0  0  0  0  0  0  0  0  0  0  0
    6.1340   -3.1715  -19.3501 C   0  0  0  0  0  0  0  0  0  0  0  0
    7.2181    4.2184  -22.1149 C   0  0  0  0  0  0  0  0  0  0  0  0
    4.9598    3.9469  -23.0081 C   0  0  0  0  0  0  0  0  0  0  0  0
    6.4708    0.9114  -22.4931 C   0  0  0  0  0  0  0  0  0  0  0  0
    4.3740   -4.0721  -17.9181 C   0  0  0  0  0  0  0  0  0  0  0  0
    5.3963    0.2345  -20.4170 C   0  0  0  0  0  0  0  0  0  0  0  0
    3.9546   -2.0799  -19.2495 C   0  0  0  0  0  0  0  0  0  0  0  0
    5.6927   -1.1098  -20.7016 C   0  0  0  0  0  0  0  0  0  0  0  0
    5.2621   -2.1422  -19.7598 C   0  0  0  0  0  0  0  0  0  0  0  0
    5.9069    3.6952  -21.9838 C   0  0  0  0  0  0  0  0  0  0  0  0
    5.7940    1.2589  -21.2939 C   0  0  0  0  0  0  0  0  0  0  0  0
    3.4950   -3.0476  -18.3286 C   0  0  0  0  0  0  0  0  0  0  0  0
    6.2919    2.9821  -19.5587 C   0  0  0  0  0  0  0  0  0  0  0  0
    4.0723    3.4530  -19.3008 C   0  0  0  0  0  0  0  0  0  0  0  0
    5.5554    2.7089  -20.8676 C   0  0  1  0  0  0  0  0  0  0  0  0
    5.5756    3.8292  -17.2980 C   0  0  0  0  0  0  0  0  0  0  0  0
    1.3462   -1.9376  -18.1975 C   0  0  0  0  0  0  0  0  0  0  0  0
    5.3058    3.3259  -18.6499 N   0  0  0  0  0  0  0  0  0  0  0  0
    4.1425    2.8994  -20.4880 N   0  0  0  0  0  0  0  0  0  0  0  0
    2.9258    4.0243  -18.7696 N   0  0  0  0  0  0  0  0  0  0  0  0
    7.4717    2.7662  -19.3018 O   0  0  0  0  0  0  0  0  0  0  0  0
    2.2095   -3.0369  -17.8069 O   0  0  0  0  0  0  0  0  0  0  0  0
    6.8712    5.8615  -25.0881 H   0  0  0  0  0  0  0  0  0  0  0  0
    8.5577    5.4059  -23.3203 H   0  0  0  0  0  0  0  0  0  0  0  0
    4.5744    4.9318  -24.8892 H   0  0  0  0  0  0  0  0  0  0  0  0
    7.2368   -0.6956  -23.7154 H   0  0  0  0  0  0  0  0  0  0  0  0
    6.3575   -4.9140  -18.0935 H   0  0  0  0  0  0  0  0  0  0  0  0
    6.5973   -2.4813  -22.1077 H   0  0  0  0  0  0  0  0  0  0  0  0
    7.1372   -3.2233  -19.7466 H   0  0  0  0  0  0  0  0  0  0  0  0
    7.9571    4.0145  -21.3541 H   0  0  0  0  0  0  0  0  0  0  0  0
    3.9655    3.5320  -22.9330 H   0  0  0  0  0  0  0  0  0  0  0  0
    6.7796    1.6858  -23.1795 H   0  0  0  0  0  0  0  0  0  0  0  0
    4.0362   -4.8169  -17.2127 H   0  0  0  0  0  0  0  0  0  0  0  0
    4.8573    0.4832  -19.5148 H   0  0  0  0  0  0  0  0  0  0  0  0
    3.2948   -1.2849  -19.5641 H   0  0  0  0  0  0  0  0  0  0  0  0
    4.6238    4.0260  -16.7828 H   0  0  0  0  0  0  0  0  0  0  0  0
    6.1488    3.0780  -16.7348 H   0  0  0  0  0  0  0  0  0  0  0  0
    6.1567    4.7609  -17.3629 H   0  0  0  0  0  0  0  0  0  0  0  0
    0.3642   -2.0527  -17.7154 H   0  0  0  0  0  0  0  0  0  0  0  0
    1.7995   -0.9860  -17.8832 H   0  0  0  0  0  0  0  0  0  0  0  0
    1.2205   -1.9407  -19.2903 H   0  0  0  0  0  0  0  0  0  0  0  0
    3.3563    2.6448  -21.0511 H   0  0  0  0  0  0  0  0  0  0  0  0
    2.0786    4.0315  -19.3008 H   0  0  0  0  0  0  0  0  0  0  0  0
    2.9463    4.4290  -17.8554 H   0  0  0  0  0  0  0  0  0  0  0  0
  1  2  2  0
  1  3  1  0
  2  8  1  0
  3  9  2  0
  4  6  2  0
  4 10  1  0
  5  7  2  0
  5 11  1  0
  6 14  1  0
  7 15  1  0
  8 16  2  0
  9 16  1  0
 10 17  2  0
 11 18  2  0
 12 14  2  0
 12 17  1  0
 13 15  2  0
 13 18  1  0
 14 15  1  0
 21 16  1  6
 17 21  1  0
 18 28  1  0
 19 21  1  0
 19 24  1  0
 19 27  2  0
 20 24  1  0
 20 25  2  0
 20 26  1  0
 21 25  1  0
 22 24  1  0
 23 28  1  0
  1 29  1  0
  2 30  1  0
  3 31  1  0
  4 32  1  0
  5 33  1  0
  6 34  1  0
  7 35  1  0
  8 36  1  0
  9 37  1  0
 10 38  1  0
 11 39  1  0
 12 40  1  0
 13 41  1  0
 22 42  1  0
 22 43  1  0
 22 44  1  0
 23 45  1  0
 23 46  1  0
 23 47  1  0
 25 48  1  0
 26 49  1  0
 26 50  1  0
M  CHG  1  25   1
M  END
>  <OMEGA_C>  (2) 
+GHTQHBHqECa28HBee7xQKIKoEAw2bnB7MqpQFZul0At9sDBxLbXQJzh376oVLbBnhC2QE8yhMCk
XpPBvsPLQEpuub+kHq/BbknEQBv5SsDxzJrBBfvmQBL9hkBh67DBkLaeQE+ZfECHELjBlxDPQGVO
aT/F8bPBpPeLQFtOgsA5WI/Bva6sQKgqcD73VaPBkhh9QC4dBcDx/pnBjiq2QF4Mjr/jnKXBwmKo
QDIZCcAjFJ7BNQW9QO9+bEC83q/BXmi5QEokoT/yWarBbq5fQM8LQ8ASoZLBBFfJQAHbPkA2eJzB
XFCCQDz+XED/Z5rB+sWxQMpeLUDb8KbBAGuyQJYRdUBLYorBpk6sPzQE+L+NlJHBe8mpQMbbVEAL
M5XBEY+EQDGQOUBb56PBR0A7QM/GgEAeKJbBCxjvQKQIMUAAaprBMmgNQEFdQsCEdI7BOeHbQJiR
u0BvtMjBWuwIQXr9rEAJkLrBi2GSQCHRnUAIHcfBqZPnQCMQMr80ub3BPnDLQG4/ncBnv5DBSR3T
QOvMHsCn3LDB6WPkQNZKTsAI+Z3BVqD+QMR2gEBF1arBIsp9QMoMYkC5drfBi/LYQDTI1z+vb7nB
6SiBQEUkmsCss4nBpW6bQBRg9z47HpzBJ95SQJl2pL8zg5zBRPaTQKfUgEAcQ4bBtsLEQEX+REDq
4IXBggPFQGZZmEA054rBk3S6PolfA8AZuY3BJ1fmP0hofL/fEI/BWjqcP6Zo+L+bUprB+M1WQARE
KUCtaKjBJQcFQDICgUDyZ5rBao88QBW6jUDK147BRYHZQIhzpUCw8MHBzSGvQAaIlkD4O8HBmbH2
QJonnUDjnrnBK+/TQPDgur5iH7fBBZG/QMgjgMDn2pTB3/jEQIQRsb+Va7DBap3GQLoQQsBesJzB
peShQFCifkBtNbjBT5fpQNb9hUAvj7DBoPvNQB4Mej9CNLTBTAqYQFzmgcBgjI/Bnj6oQDGEjz6Z
EaTBcsx9QKwqCMAorJnBZMivQKo0h78H06bBb2mmQPkZBsBSFp/Bi9a+QNt1bkDctq/Bpp23QKbX
pz8qqKrBojRuQIklSMAJApLBsqDIQF8sPkBgSZzB8oWBQNdQXkCAdZrB2baxQGkLMECJ7KbBHNCw
QFDWc0D4NorB9oQMQEyBiMBNM4bBaM6oQLDFVUCjKJXBdICEQLHJPkD+JaTB6FM4QHBwf0BrJJbB
w8jtQJJzLEAeBprB6A0eQCwLSsDnSo3B46rjQG1St0Cj4sjBXM2YQKHunECrocfBzJsLQRqcqECk
M7rB2gDkQIBmHL+1g77BB3rYQOHElsDQ45LB06jJQFHCGsB8mbLB38TkQDb/P8AE56DBrnSBQNEW
Z0Cpu7fBYRMAQXvXfkBBOarBuXraQGGP4T+hPrnB25OSQNAgmsBTionBH6CWQO+fBD8k4pzB1WNN
QOCcsb+dZpvBECqSQM8jgUAASIbBB63BQETBQUCLsIXBkZzEQDcBl0B6eIrBtmiWP1mHhcCFAIPB
hVsSQIm9psCdpYrBm6w6QIFAiMCTHH/BW1tXQPWFMkBi9ajBxpoCQNAcgEAsfZrB5Cc4QNJFi0CP
ro7BAjTQQAvKp0BgIsLBr6WnQLyplEDXKcHBsIzvQJsAoUD9OrrBG5/ZQOhlB7/pKLXBUQdCQPU0
LcD4w5LBM0vJQOo2wL/4Gq7BJe5mQAjt67+iTJrBFVieQOvKdUD8Q7jB5VPmQNhnh0BOSLHBqrXS
QEhYVz9DHbPBlmxyQOvncMCigo7Bw3mrQAp8hj47+KLBdBm2QNltR8CCmpnBQ46xQMIgjL8WFKXB
S/6dQN03A8B9vp3B+0u9QLN5aUCQHrDB8jO7QEz3nj838KnBYNujQHE4fsBPypHB3LzKQN4GQUDs
g5zBu/yCQPpdV0DVN5rBqEyzQLObLED26qbBXuayQDNecEA3MIrB9MvmQL+RpMDLnY/BPdaqQIxL
UkA3IJXBhu+FQCrsN0D16KPBlrE6QISndUBwu5XBdOLwQOhkN0DNi5rB4/25QCBIoMDr+IzB507X
QEm8u0B69sjBPbGPQCPMmUDqQcfBYmAHQYF/r0CBC7vBeXfrQKQxVb/pJbzBIZsAQGTDI8BiPZDB
sOjOQI5BI8DzmK/BnEJCQLFWgr/IeZ3BbNl+QK9YV0ASn7fB6JP+QIT0gUB6R6vB3EvfQAnvyj/5
hrjBxwFWQF2VjcAnq4jBi2CaQOHcDz9r2pvBZWrWQKYjUsCeW5zBHUGUQFkheUD1/4XBxFzGQOXQ
QEAR5YXBziPEQDXalkBreIrBGmf0QP37v8D7RIvBaDnqQMXHqcDyRpjBm+H3QOwyh8BaUY3BGQta
QHqfKUABmqjBKVcEQDFOdEDW85nB4746QM1shkCuRo7BFs7PQJk6p0AiOcLBFEzvQIKFoEDbWbrB
fzWnQDNBlEAbLMHBufnZQBpkBr/bF7XBQZRAQJoqLsC9JJPBndHJQEnvv7/MB67BzpVmQFZi7b9I
j5rBLy3mQM8sh0AMWrHB4QSeQBFpdUBbOrjB8N/SQMYWWD+lDbPBvZ5wQIJoccA+uI7B7cKrQGEa
hj4A5qLBOB62QE9HR8AYdZnBjgeyQCYtjL/oAaXBPCqeQD9pA8DWv53BNB29QMdRaUAoHLDBtVu7
QDQanz9f36nB+U6jQMgxfsBEvJHBss3KQLqLQUADf5zBYwyDQBSnV0AvK5rBuEmzQDCuLECO36bB
8gyzQGEucUCBLIrBwsXlQHxTpcCeeI/Bs/GqQKjkUkAjGZXB3++FQC7MN0Aj16PBNNU6QJ75dUDm
rZXBrPPwQMfXN0CeiJrBvB65QN0ooMD+xozBStTWQF//ukDPFsnBWkQHQZjirkCyOrvBTiOPQKhW
mUCEPcfBL9brQCCtU7+eFbzB0iL9PytBJcAY1pDB35rPQO8RI8Cfg6/BYjhCQBw1hL+h153BEof+
QEHNgUCpXqvBwCh+QLEgV0CthrfB0lPfQBFzyz/JebjBz2FTQNbejcAn84jBtqCaQFgnDz8myJvB
CrbWQIKfUcDyBZzBcmyUQEb1eUAz+oXBq4/GQMm/QUCL34XB3kHEQCVGl0DHeorBVRrzQIaNwMCq
/4rBFOLoQCNWq8BjG5jBm1f3QN4DiMCMXI3B//xZQIcbKUDggKjB32UEQNVSdECm4ZnB7Ps6QIu/
hkA8PY7B5WrTQLHVp0CKEMLBYL6pQHtOl0B9DMHBi0PyQKxXn0B6JbrBq6TWQOKn6r4QQLbB+TGz
QOUgg8DN4pLBUqDKQIrAur9J8q7BtV/CQMIPSsBEXJrBY9eeQNWnfEAJHLjBSYDnQMBvhkC/LbHB
wrnOQGR7ZT+f6LPBlMKIQCmUgMDkGI/BUCutQErsfT7DIKPBCSR6QPdOAsDq+pnBk8m1QC4Ijb98
YaXBwC6nQDGwB8Bd1p3BzG29QBw9bEDj/K/Bc9W5QLJnoT98QKrBqGpaQNuiP8DXsZLBzunJQBNV
QEDShpzBiYiCQD9+WkAPSZrBDEyyQBvOLUCY96bBlPGyQM+4dUBIaorBNJibP3Rb/b/Oe5PB+VCq
QGVnVEAdLpXBdBKFQDC1OUCv7KPBTas6QKRDe0C31pXBxeTvQFmbNEBJiJrBqs8GQHOBPsBV9I7B
0L7bQKoSu0AC78jBkx+SQOzRnUBeJMfB5CEJQT77q0DE9brBCf/lQN7AOr89rr3B6hXIQF82nMCD
DJDBsFjRQKjEH8A7qrDB4qDiQMO3TsB5aJ3Bged9QLuWYkCQa7fBO2P/QH9jf0CXKqvBapbYQNa3
1D+le7nBNIZ6QCTgl8A9ZonBc5+cQCWiAj+x1pvB9jZRQMV7nb/SnJzBDoGUQCAugEBkM4bBmVvG
QMAuR0A+8IXBoXLEQHNMmUCQCYvBBFpgPnTfBMCU1o/B07POP690eb+M3pHBAq2RP0NuCMA8LZzB
BQBYQAvuKkAqiqjB/zkEQC/WekBHC5rBTHQ7QOCpiUAmbY7B

>  <OMEGA_E>  (2) 
0JapPghLsT4UHLk+yBi6PsCooz4=

>  <OMEGA_NBR>  (2) 
    214713

$$$$
50215908
     RDKit          3D

 50 53  0  0  1  0  0  0  0  0999 V2000
    6.9881    5.1266  -23.8931 C   0  0  0  0  0  0  0  0  0  0  0  0
    5.6104    4.8841  -23.7387 C   0  0  0  0  0  0  0  0  0  0  0  0
    7.9168    4.4533  -23.0789 C   0  0  0  0  0  0  0  0  0  0  0  0
    6.6026   -0.9129  -22.7655 C   0  0  0  0  0  0  0  0  0  0  0  0
    4.9265   -4.5562  -18.5652 C   0  0  0  0  0  0  0  0  0  0  0  0
    6.0601   -1.8945  -21.9149 C   0  0  0  0  0  0  0  0  0  0  0  0
    5.4384   -3.6781  -19.5375 C   0  0  0  0  0  0  0  0  0  0  0  0
    5.1580    3.9757  -22.7644 C   0  0  0  0  0  0  0  0  0  0  0  0
    7.4693    3.5525  -22.0969 C   0  0  0  0  0  0  0  0  0  0  0  0
    6.4229    0.4543  -22.4783 C   0  0  0  0  0  0  0  0  0  0  0  0
    3.7056   -4.2715  -17.9217 C   0  0  0  0  0  0  0  0  0  0  0  0
    5.1326   -0.1408  -20.5036 C   0  0  0  0  0  0  0  0  0  0  0  0
    3.4970   -2.2308  -19.2305 C   0  0  0  0  0  0  0  0  0  0  0  0
    5.3063   -1.5072  -20.7861 C   0  0  0  0  0  0  0  0  0  0  0  0
    4.7330   -2.4994  -19.8604 C   0  0  0  0  0  0  0  0  0  0  0  0
    6.0826    3.3190  -21.9125 C   0  0  0  0  0  0  0  0  0  0  0  0
    5.6932    0.8512  -21.3290 C   0  0  0  0  0  0  0  0  0  0  0  0
    2.9752   -3.1010  -18.2595 C   0  0  0  0  0  0  0  0  0  0  0  0
    6.3514    2.4628  -19.5477 C   0  0  0  0  0  0  0  0  0  0  0  0
    4.1656    3.0653  -19.2365 C   0  0  0  0  0  0  0  0  0  0  0  0
    5.5969    2.3072  -20.8636 C   0  0  1  0  0  0  0  0  0  0  0  0
    5.7071    3.2129  -17.2319 C   0  0  0  0  0  0  0  0  0  0  0  0
    1.2768   -3.5718  -16.6022 C   0  0  0  0  0  0  0  0  0  0  0  0
    5.4455    3.0249  -18.6651 N   0  0  0  0  0  0  0  0  0  0  0  0
    4.2072    2.6138  -20.4689 N   0  0  0  0  0  0  0  0  0  0  0  0
    3.0105    3.5008  -18.6039 N   0  0  0  0  0  0  0  0  0  0  0  0
    7.4870    2.0807  -19.2845 O   0  0  0  0  0  0  0  0  0  0  0  0
    1.7635   -2.7443  -17.6819 O   0  0  0  0  0  0  0  0  0  0  0  0
    7.3324    5.8299  -24.6368 H   0  0  0  0  0  0  0  0  0  0  0  0
    4.8991    5.3963  -24.3696 H   0  0  0  0  0  0  0  0  0  0  0  0
    8.9746    4.6286  -23.2084 H   0  0  0  0  0  0  0  0  0  0  0  0
    7.1591   -1.2094  -23.6422 H   0  0  0  0  0  0  0  0  0  0  0  0
    5.4718   -5.4530  -18.3107 H   0  0  0  0  0  0  0  0  0  0  0  0
    6.2203   -2.9416  -22.1254 H   0  0  0  0  0  0  0  0  0  0  0  0
    6.3692   -3.9055  -20.0357 H   0  0  0  0  0  0  0  0  0  0  0  0
    4.1010    3.7774  -22.6645 H   0  0  0  0  0  0  0  0  0  0  0  0
    8.1869    3.0341  -21.4783 H   0  0  0  0  0  0  0  0  0  0  0  0
    6.8419    1.2022  -23.1351 H   0  0  0  0  0  0  0  0  0  0  0  0
    3.3239   -4.9455  -17.1691 H   0  0  0  0  0  0  0  0  0  0  0  0
    4.5584    0.1526  -19.6372 H   0  0  0  0  0  0  0  0  0  0  0  0
    2.9450   -1.3425  -19.4999 H   0  0  0  0  0  0  0  0  0  0  0  0
    4.8309    3.6780  -16.7566 H   0  0  0  0  0  0  0  0  0  0  0  0
    5.9029    2.2368  -16.7639 H   0  0  0  0  0  0  0  0  0  0  0  0
    6.5838    3.8644  -17.1016 H   0  0  0  0  0  0  0  0  0  0  0  0
    0.3155   -3.1770  -16.2415 H   0  0  0  0  0  0  0  0  0  0  0  0
    1.1378   -4.6015  -16.9635 H   0  0  0  0  0  0  0  0  0  0  0  0
    2.0068   -3.5674  -15.7793 H   0  0  0  0  0  0  0  0  0  0  0  0
    3.4085    2.4941  -21.0585 H   0  0  0  0  0  0  0  0  0  0  0  0
    2.1368    3.4826  -19.0901 H   0  0  0  0  0  0  0  0  0  0  0  0
    3.0514    3.8330  -17.6615 H   0  0  0  0  0  0  0  0  0  0  0  0
  1  2  2  0
  1  3  1  0
  2  8  1  0
  3  9  2  0
  4  6  2  0
  4 10  1  0
  5  7  2  0
  5 11  1  0
  6 14  1  0
  7 15  1  0
  8 16  2  0
  9 16  1  0
 10 17  2  0
 11 18  2  0
 12 14  2  0
 12 17  1  0
 13 15  2  0
 13 18  1  0
 14 15  1  0
 21 16  1  6
 17 21  1  0
 18 28  1  0
 19 21  1  0
 19 24  1  0
 19 27  2  0
 20 24  1  0
 20 25  2  0
 20 26  1  0
 21 25  1  0
 22 24  1  0
 23 28  1  0
  1 29  1  0
  2 30  1  0
  3 31  1  0
  4 32  1  0
  5 33  1  0
  6 34  1  0
  7 35  1  0
  8 36  1  0
  9 37  1  0
 10 38  1  0
 11 39  1  0
 12 40  1  0
 13 41  1  0
 22 42  1  0
 22 43  1  0
 22 44  1  0
 23 45  1  0
 23 46  1  0
 23 47  1  0
 25 48  1  0
 26 49  1  0
 26 50  1  0
M  CHG  1  25   1
M  END
>  <OMEGA_C>  (3) 
NJ7fQCINpED4JL/BvYizQDBKnEDx6L3BQFb9QIWBjkCeobjBIUjTQGKxab+pH7bBt6WdQH3MkcCO
hZTBJuzBQMB+8r+pUa/BTQeuQNVla8DBTJzB9g2lQO5xfkBpHbbBogTvQF1bY0CNxrDBBYjNQFiZ
6D6R07PBVShtQDewiMCWX4/BFT6kQBk0EL5dB6TBNc9fQP3FDsD615nB5cypQHrswL/pSabB1nSX
QFv2H8AL4p7BcqTCQEBrVEDfTK/Bhi62QPvmWT/koarBYmo+QNF2RsCNE5LBsz7LQBKfHUCsYZzB
ZUyFQFYuREBw5JnB4xmzQFypE0C16KbBbKC2QGefTUDZ2onBv26jP76YZMA10YTBvUGuQHWYQUAe
UpXBh6GGQIBIJ0BQwKPBa6tAQNINYEC51JTBjpXvQIYqBUCpRprBw7rhP1OiL8CNdI3BraLqQM+O
ukA0GMXBb8WcQGaurED99MLByJcPQeMdlEDHqrnBUBflQP3Lmr9TI73BxBivQBp/rsA6fJLBZAzH
QOhCPMDrALHBodDLQDLzecAwSaDBqTuDQGbAcUDRULXBsv0CQWIvQkB606vBt/DaQLfimT+5FLnB
D7tUQMZBnsA8WonBad6RQDBIHD4GGZ3BC3s8QMrXq7++/5vBgZaaQNJka0CHDYbBJuS8QHMnD0CG
HIbBOa7SQKBRd0AS0IjBO4yhPlxUS8Co7oHBpqSRPyI/k8AmtYfB3m4AQPlPZMDXd3zBMyRaQGqf
H0Ded6jBvcEIQDLjXkCIuJjB7UlDQF5QdUDXSo3BxkPfQAXMo0CpDr/BIhH9QAKQjkDYgLjBOjiz
QPLSm0Be073B6BTUQB69ab+RDbbBI46eQAK0kcDpa5TBo5nCQAkS878PT6/BI8quQLNza8D6PpzB
097uQGamY0BznLDBqt+kQLSJfUCNA7bB7BHOQIrN5z5JvbPBI6huQATCiMAUVI/BCk2kQCUEHL74
DKTBx0JgQAH2D8CV+ZnBpyCqQFYqwr+NU6bBwNqXQPy4IMCA8Z7B6YjCQP4XVECoKa/BJ1O2QB79
Vz9pl6rBo1I/QBs2R8DXIpLBzSvLQCphHEC/QZzBrW2FQC36REBR3ZnBUxizQOr3EkDqzabB4GW2
QCFQTECCuYnBbHWlPyQQZcAv3YTBtCWuQFkoQEB0MZXB0JWGQHFfJkDrpKPBpbhBQKOUZEBx+JTB
oIbvQMYDBEDsJprB4ZXjP+hPMMBIhY3B4zDqQMs5ukBECcXB0nEPQZZXlEAMibnB4WKcQAMLrEA6
48LBOC/mQGk8mr9SCL3BTjuwQKkrrsCSTpLBmebHQGt6PMDsALHBOLvMQMKmecDLLaDBovICQdMa
Q0BZnavBsBaDQHVocECKOrXBjZTbQC0gmj838rjBVHBWQDA4nsBDRYnB/6SRQP2ZCz52J53BHlA8
QA+Pr7/5PZzBZEaaQDPpaUC+8IXBar28QGTpDUDJ+IXBqV7SQDg2dkDzq4jB/p6pPhnES8AD/IHB
3rqTP4SEk8CSuofBfnkBQLCWZMCAkXzBxuJZQGl0HUBnTKjB9xoKQMb9ZEC87ZjBP5xEQEv0ekDk
e43BgXvjQEc6nkA8P7/Bk/D/QB2RhkAP2LjBIB23QFtgm0D7dr3Bl+TEQAdYR79bk7jBjTecQOno
hsCIFpLBloK7QLJC6b9ThrHBbxeTQLWSScB1H5nB7RnwQLyGWEDanbDB6RWnQPT5gECIRbXB9DvB
QBDDDD9dIbXBJa3GQC7/lcAh85DBn8uoQCz3Wb4nmaPBmRbfQHBxQsAZyZ3Bk3SuQG5Cxb/c/KbB
OMa0QIdmJcAFGJ/B33PDQGYAU0Dcoq7BPpGzQDuAWT/ej6rB/FzoQCiOgsBJspbB287JQGhxGkB/
xZvBVIGEQF5rRkAvtJnBrRCyQC13EkBbZabB6fi1QNUSV0B7xYnBjjQWQZl/csB7h47BeaCrQGWl
N0CCiZTBVKaFQIigJkD3aaPBMd9BQCS2bUAFP5XBsdfuQLAHBkCfwZnBLesIQaNMkcC02JXBHK7v
QM+TskCIh8XBnP0QQeWYiEDsPrrBP0uhQA+BrUBZZsLBH/DOQD3Kfr+zqMDBDLSCQOeQlcBQjo3B
EUi+QPk0NsCLKrTBarNlQDOAMcAy6pnB/QwDQToCNEAyw6vBRviEQFAmfUAyB7TBAuPIQN9arT9t
kbrBi1bNQG+AsMBAqYvBhUmcQJqhmLvVt5vBrZz4QLv3JMAsTKLBmF2YQONbakDTqoXBCcLFQPjw
I0DyL4XBS47LQDQ7h0DtZIrBiV0mQVwth8AfXI7BSSUXQeSFL8ALM5HBtTUPQVwBdcDWdYbBvjhY
QFV0HUCLGKjBsesLQLMpc0DPfpnBsYVEQC5MgkBLyI3BKA/hQOfNnkA7i7/BkUu1QOidlEAW2r7B
rAD+QEQFjkClBLjBLNnHQPbtRL/Za7jBxNmnQNbaisARE5PBNuW8QKOY5799dbHBTbuZQDBmVcB1
KJrBWk+mQM5ddEARjbbBbTTvQJzWZkAgu6/BQHnEQNPhDz+o/7TBUOzTQIjujsB9oJDBNvaoQMQe
Qr4bv6PB+PDjQNLiJsCTWZzBKKSuQEF4wr/jCafBv2y4QOz2H8AJ8p7B1/TCQBIDVEBMva7BC+S0
QD3gXT8hm6rBVi/yQF4+ZMBS+ZTBcHjKQLZTG0B9vZvBY9+EQPKlRUCls5nBleSyQDA7E0CrZ6bB
kfK1QNo4VkC5sInBy+0aQTJAGsASt5LBYgKsQNCNN0Dog5TBvFqGQKaKJkD6cKPB5uFBQEaEa0D9
O5XB8jTvQA5vBUD4n5nBY2MOQSi4aMD/yZHBJW3sQHaBs0AO2sXBrymfQAweoUCvtMTBrdIPQYuS
lUCjmrjBKOHSQLWufb86asDBP/mQQIN1oMBOgI/BomG/QPZ2NcBNFbTBsC5wQBdjTcCn3ZvBcb2E
QLdMZEDIH7bB4NYCQeEdTECpFKrBSc3NQGVlrj9IT7rBEYXeQO1KqMCmY4vBWnybQEZ6yjww+pvB
d8f6QNXe+L/QE6DBsCmYQAHIaEBOnYXBOMXFQO3qIkD6JIXBtl3LQCL4hkD6M4rBql8rQdU9JsAA
9o/BSTsbQZJxBcDhHpvB8qATQX/Tz79Lw43BNd9ZQBJNHUB3KajB/PQLQA1hcEDvf5nBgftDQGP7
gEBFv43B

>  <OMEGA_E>  (3) 
gAcWPAAAAAAE5Co/fBgxPw==

>  <OMEGA_NBR>  (3) 
     46886

$$$$
50145430
     RDKit          3D

 46 48  0  0  1  0  0  0  0  0999 V2000
    7.0155   -1.0258  -22.2940 C   0  0  0  0  0  0  0  0  0  0  0  0
    4.9884   -4.3376  -18.0582 C   0  0  0  0  0  0  0  0  0  0  0  0
    6.4079   -1.9125  -21.3933 C   0  0  0  0  0  0  0  0  0  0  0  0
    5.5582   -3.4644  -18.9998 C   0  0  0  0  0  0  0  0  0  0  0  0
    6.6387    0.3255  -22.3127 C   0  0  0  0  0  0  0  0  0  0  0  0
    3.6647   -4.1441  -17.6253 C   0  0  0  0  0  0  0  0  0  0  0  0
    5.0325   -0.0893  -20.5260 C   0  0  0  0  0  0  0  0  0  0  0  0
    3.4710   -2.2042  -19.0916 C   0  0  0  0  0  0  0  0  0  0  0  0
    5.4146   -1.4529  -20.4991 C   0  0  0  0  0  0  0  0  0  0  0  0
    4.8045   -2.3879  -19.5241 C   0  0  0  0  0  0  0  0  0  0  0  0
    5.6390    0.8122  -21.4369 C   0  0  0  0  0  0  0  0  0  0  0  0
    2.8969   -3.0640  -18.1356 C   0  0  0  0  0  0  0  0  0  0  0  0
    6.6581    2.9580  -19.4289 C   0  0  0  0  0  0  0  0  0  0  0  0
    4.2362    2.9815  -19.3140 C   0  0  0  0  0  0  0  0  0  0  0  0
    6.5369    3.1216  -20.9482 C   0  0  0  0  0  0  0  0  0  0  0  0
    5.3052    2.3182  -21.4423 C   0  0  1  0  0  0  0  0  0  0  0  0
    4.9359    2.7675  -22.8745 C   0  0  0  0  0  0  0  0  0  0  0  0
    5.5556    3.0938  -17.1834 C   0  0  0  0  0  0  0  0  0  0  0  0
    1.1172   -3.4681  -16.5514 C   0  0  0  0  0  0  0  0  0  0  0  0
    5.4868    2.9658  -18.6580 N   0  0  0  0  0  0  0  0  0  0  0  0
    4.1261    2.6606  -20.5868 N   0  0  0  0  0  0  0  0  0  0  0  0
    3.0743    3.3079  -18.6259 N   0  0  0  0  0  0  0  0  0  0  0  0
    7.7691    2.9844  -18.9111 O   0  0  0  0  0  0  0  0  0  0  0  0
    1.5950   -2.7932  -17.7380 O   0  0  0  0  0  0  0  0  0  0  0  0
    7.7744   -1.3835  -22.9741 H   0  0  0  0  0  0  0  0  0  0  0  0
    5.5686   -5.1598  -17.6659 H   0  0  0  0  0  0  0  0  0  0  0  0
    6.7006   -2.9520  -21.3829 H   0  0  0  0  0  0  0  0  0  0  0  0
    6.5769   -3.6157  -19.3251 H   0  0  0  0  0  0  0  0  0  0  0  0
    7.1175    1.0030  -23.0041 H   0  0  0  0  0  0  0  0  0  0  0  0
    3.2306   -4.8189  -16.9024 H   0  0  0  0  0  0  0  0  0  0  0  0
    4.2723    0.2670  -19.8465 H   0  0  0  0  0  0  0  0  0  0  0  0
    2.8852   -1.3939  -19.4997 H   0  0  0  0  0  0  0  0  0  0  0  0
    6.4076    4.1855  -21.1961 H   0  0  0  0  0  0  0  0  0  0  0  0
    7.4465    2.7397  -21.4347 H   0  0  0  0  0  0  0  0  0  0  0  0
    4.6989    3.8417  -22.8727 H   0  0  0  0  0  0  0  0  0  0  0  0
    5.7855    2.5807  -23.5478 H   0  0  0  0  0  0  0  0  0  0  0  0
    4.0605    2.1996  -23.2225 H   0  0  0  0  0  0  0  0  0  0  0  0
    4.5381    3.0792  -16.7658 H   0  0  0  0  0  0  0  0  0  0  0  0
    6.1338    2.2546  -16.7693 H   0  0  0  0  0  0  0  0  0  0  0  0
    6.0463    4.0424  -16.9203 H   0  0  0  0  0  0  0  0  0  0  0  0
    0.0788   -3.1658  -16.3501 H   0  0  0  0  0  0  0  0  0  0  0  0
    1.1586   -4.5562  -16.7069 H   0  0  0  0  0  0  0  0  0  0  0  0
    1.7509   -3.1957  -15.6945 H   0  0  0  0  0  0  0  0  0  0  0  0
    3.2153    2.6452  -20.9992 H   0  0  0  0  0  0  0  0  0  0  0  0
    2.1929    3.2941  -19.0982 H   0  0  0  0  0  0  0  0  0  0  0  0
    3.1192    3.5566  -17.6584 H   0  0  0  0  0  0  0  0  0  0  0  0
  1  3  2  0
  1  5  1  0
  2  4  2  0
  2  6  1  0
  3  9  1  0
  4 10  1  0
  5 11  2  0
  6 12  2  0
  7  9  2  0
  7 11  1  0
  8 10  2  0
  8 12  1  0
  9 10  1  0
 11 16  1  0
 12 24  1  0
 13 15  1  0
 13 20  1  0
 13 23  2  0
 14 20  1  0
 14 21  2  0
 14 22  1  0
 15 16  1  0
 16 17  1  6
 16 21  1  0
 18 20  1  0
 19 24  1  0
  1 25  1  0
  2 26  1  0
  3 27  1  0
  4 28  1  0
  5 29  1  0
  6 30  1  0
  7 31  1  0
  8 32  1  0
 15 33  1  0
 15 34  1  0
 17 35  1  0
 17 36  1  0
 17 37  1  0
 18 38  1  0
 18 39  1  0
 18 40  1  0
 19 41  1  0
 19 42  1  0
 19 43  1  0
 21 44  1  0
 22 45  1  0
 22 46  1  0
M  CHG  1  21   1
M  END
>  <OMEGA_C>  (4) 
zH7gQCRMg78ZWrLBx6CfQPnNisBDd5DBnQ3NQPPM9L9yJavBIt2xQB+5XcCN/5fBCXDUQFyupj5p
gLLBXopqQEachMCZAI3BEgqhQEzgtr0uNaTBqiVeQEcRDcCHu5jBwUStQD76ub8X/qPBq76ZQKHS
GMBfMZzBWnK0QELpTz/IfqvBhmY5QC8ZRMC0FZHBWw/VQFpPPUBdbpvBOY+HQOfQPkACg5rB+i3R
QMzIR0D3lafBSsSpQDRdFEDoiavB5/KdQG8eMUDq/rbBasexQAAARkCqd4nBhf+OP870XcBNaYTB
HpSvQDPPPUCDQ5XBWQmEQMxHKkDVsaTBrMBEQGy0U0DZAZXBVZz4QM8AP0AESpfBLSrMPzLDMsBv
543BiMf4QJQXsb/lyrfBmTGyQNscpcDXU43BOGvWQDfuPMA5EKvBMnbSQDhnZ8C4mZrBzMLjQNpj
gD99CLjBQcJOQIQ0msAgOIfB7baIQMSwiD6txZ7B8aY4QNZpsr9P/5vBKQvNQNXvhUCGkanBzknu
QFJXL0BNeqvBml2WQJ/ddUA/+7bBnyK5QOIpJUDTYbzBa++BQPXFDECqx7nB7zeRQBkSRUBEIIbB
VUjEQBBMEEBvJ4bBSHvBQJNbgUDbXIfBhnWhPTCdSsALzYLBTU2UP6/MkcC0p4XBjxzgP3yGTMDQ
HHvBD8dNQE9LKUB0/qfBo1gMQBbSUkAKyZjBiqFHQNefY0BbRI3BMDDMQOCIlL/1hrXBMARYQDRA
PMCjc4zBkOK8QJRdBcAmCq7B0M1xQGSIBMAirpTBSHbKQMABWj6mRLPBoNF9QJLthsADxovBUC+s
QEAZiL4i0aHBFPmfQAxoeMArJp3BXIKqQEgm0L+3VKTBaNOUQORIIsC/3ZzBuNi7QGAcKz+MKqnB
gE6bQKpQlMB84pPBlKm8QMgQaUAieJXB3tSBQMjvbkDmN6LBLH7OQBwmGUDa+5rBAFm5QKiECUBS
M6bBmsTPQCqoQkCeqK7BqreJQAK8sUABiJTB9EDmQJqbncDRmJLBdEOXQH5ZiEAfNZnBAr+LQIY6
I0ByAqbBsJ9JQDrkj0Bb/afBbvXOQDZ9gUBbbI3BeHq7QIavsMAun5HBok7ZQPaFwL9lCL3BkPQn
QFq7KMDbvYbB3w6/QEcjScDzpa/B9zpbQJlqhr8DyZTBMlPUQANobT+CQrnBV39vQBrCm8CdHYXB
bDahQFSxjj12E5rBc/2rQHmVisCSaKTB3DLxQIsSIUC6EZzBm1jIQNduwj+S3ZXBFkzNQOIXg0Da
P6zBebLxQFmGMEDYQK/BZDfAQKDFOUCHebbBbe1XQMlwvECzZZjB7jWEQOjArUCU5YvBg+yiQAPB
yUDv0pXBBqf+QCjPtcBCsZDBSAPrQJ0dksBG1JrBoyLpQLaYgsAfAI3BCQRqQEt09z9ctqjBNJMw
QHdzhEDvxa7BNtg4QPPurECPXaXBmBi5QEiTrL9HebTBCsO1QH8ZdsCc4IrBQRC9QEkS/7+GiKrB
LY+xQD8FTsAb4pTBXVS0QJz/Sj3T/rTBExXJQNOnSsAxSoLBf2O2QCBEHz7Oj6HBXiDUQBMznL88
uI3BNxC8QDbAnr/3+aDB5qnAQLNJ87/NZ5bB3MeyQM7YUz/Lf6vB1oPYQGm767/VpYPBDrPWQL7k
QkAeApvBn36IQHY5QkACA5vB1SzWQE0xRUCsSKfBo5StQN7WF0AhxavBrTymQGvIOUCWULfBHdCv
QL41SUAafInB26jwQGqC4b9KcWLB8suvQHABSUAuYJXBShKHQBn5MEDrWaXBOzBDQAbmSkD+qpXB
/Ej5QBAMQEDVXpbBzBLsQBR9jr9bDnfBarW5QOfs9r+PwbvBDRqqQJZIm8CRxonBQuLAQE4uRMCj
M6rB/LeiQEnYb8D3cJvBnNOxQIv6CD8PsLzB0jLMQO3tacCfP3XBJb+0QJJcOj8rP5rB6r7fQBrV
Wb4C1Y7B71TWQHUehEC696nBkdnyQA13JED2VarBfb2iQFnRf0BlH7fBisXBQEqWKECtW7zBiwCJ
QFnyHEDMorrBE7yOQO9fTkC7i4bBJya+QFhkDUCjiYbBNZTCQJoBgECckYbBL0QAQZnHib/ZMVfB
V9vQQCHdAcCTOlzBWggCQe0JK8BiQmTBdrBVQKPiNECMFqnBqisMQLcQREAqqpnB0mFCQKX0V0A8
1o3B

>  <OMEGA_E>  (4) 
AAAAAHapcz9wFmc/

>  <OMEGA_NBR>  (4) 
      3517

$$$$
50145427
     RDKit          3D

 52 54  0  0  1  0  0  0  0  0999 V2000
    7.0196   -1.4620  -22.4712 C   0  0  0  0  0  0  0  0  0  0  0  0
    5.0884   -4.3343  -17.8923 C   0  0  0  0  0  0  0  0  0  0  0  0
    6.5236   -2.1743  -21.3690 C   0  0  0  0  0  0  0  0  0  0  0  0
    5.6235   -3.5278  -18.9086 C   0  0  0  0  0  0  0  0  0  0  0  0
    6.3496   -0.3211  -22.9256 C   0  0  0  0  0  0  0  0  0  0  0  0
    3.7683   -4.1398  -17.4567 C   0  0  0  0  0  0  0  0  0  0  0  0
    4.7390   -0.5335  -21.1002 C   0  0  0  0  0  0  0  0  0  0  0  0
    3.5013   -2.3417  -19.0831 C   0  0  0  0  0  0  0  0  0  0  0  0
    5.3839   -1.7178  -20.6576 C   0  0  0  0  0  0  0  0  0  0  0  0
    4.8353   -2.5242  -19.5271 C   0  0  0  0  0  0  0  0  0  0  0  0
    5.1853    0.1195  -22.2697 C   0  0  0  0  0  0  0  0  0  0  0  0
    2.9660   -3.1286  -18.0448 C   0  0  0  0  0  0  0  0  0  0  0  0
    6.6605    2.9154  -19.2594 C   0  0  0  0  0  0  0  0  0  0  0  0
    4.2329    3.1168  -19.3474 C   0  0  0  0  0  0  0  0  0  0  0  0
    6.6886    2.5456  -20.7411 C   0  0  0  0  0  0  0  0  0  0  0  0
    5.4779    3.1995  -21.4694 C   0  0  1  0  0  0  0  0  0  0  0  0
    5.7992    4.6959  -21.6773 C   0  0  0  0  0  0  0  0  0  0  0  0
    5.3874    3.2334  -17.1317 C   0  0  0  0  0  0  0  0  0  0  0  0
    1.1981   -3.4857  -16.4344 C   0  0  0  0  0  0  0  0  0  0  0  0
    4.4048    1.2665  -22.8611 C   0  0  0  0  0  0  0  0  0  0  0  0
    5.2070    2.5893  -22.8743 C   0  0  0  0  0  0  0  0  0  0  0  0
    5.4274    3.0338  -18.5981 N   0  0  0  0  0  0  0  0  0  0  0  0
    4.2354    3.0921  -20.6581 N   0  0  0  0  0  0  0  0  0  0  0  0
    3.0020    3.2825  -18.7243 N   0  0  0  0  0  0  0  0  0  0  0  0
    7.7227    2.9739  -18.6506 O   0  0  0  0  0  0  0  0  0  0  0  0
    1.6590   -2.8663  -17.6577 O   0  0  0  0  0  0  0  0  0  0  0  0
    7.9185   -1.7945  -22.9689 H   0  0  0  0  0  0  0  0  0  0  0  0
    5.6946   -5.1074  -17.4436 H   0  0  0  0  0  0  0  0  0  0  0  0
    7.0165   -3.0834  -21.0575 H   0  0  0  0  0  0  0  0  0  0  0  0
    6.6465   -3.6730  -19.2230 H   0  0  0  0  0  0  0  0  0  0  0  0
    6.7261    0.2217  -23.7800 H   0  0  0  0  0  0  0  0  0  0  0  0
    3.3625   -4.7615  -16.6723 H   0  0  0  0  0  0  0  0  0  0  0  0
    3.9063   -0.1316  -20.5421 H   0  0  0  0  0  0  0  0  0  0  0  0
    2.8853   -1.5868  -19.5488 H   0  0  0  0  0  0  0  0  0  0  0  0
    7.6247    2.9083  -21.1906 H   0  0  0  0  0  0  0  0  0  0  0  0
    6.6310    1.4522  -20.8460 H   0  0  0  0  0  0  0  0  0  0  0  0
    4.9582    5.1841  -22.1914 H   0  0  0  0  0  0  0  0  0  0  0  0
    5.9598    5.1754  -20.7004 H   0  0  0  0  0  0  0  0  0  0  0  0
    6.7089    4.7940  -22.2879 H   0  0  0  0  0  0  0  0  0  0  0  0
    4.3412    3.3029  -16.7990 H   0  0  0  0  0  0  0  0  0  0  0  0
    5.8750    2.3830  -16.6327 H   0  0  0  0  0  0  0  0  0  0  0  0
    5.9166    4.1625  -16.8737 H   0  0  0  0  0  0  0  0  0  0  0  0
    0.1536   -3.1961  -16.2471 H   0  0  0  0  0  0  0  0  0  0  0  0
    1.2637   -4.5796  -16.5302 H   0  0  0  0  0  0  0  0  0  0  0  0
    1.8269   -3.1527  -15.5955 H   0  0  0  0  0  0  0  0  0  0  0  0
    4.1314    1.0102  -23.8953 H   0  0  0  0  0  0  0  0  0  0  0  0
    3.4914    1.4146  -22.2663 H   0  0  0  0  0  0  0  0  0  0  0  0
    4.6429    3.3261  -23.4649 H   0  0  0  0  0  0  0  0  0  0  0  0
    6.1765    2.3971  -23.3572 H   0  0  0  0  0  0  0  0  0  0  0  0
    3.3615    2.9965  -21.1348 H   0  0  0  0  0  0  0  0  0  0  0  0
    2.1719    3.3760  -19.2740 H   0  0  0  0  0  0  0  0  0  0  0  0
    2.9462    3.3080  -17.7262 H   0  0  0  0  0  0  0  0  0  0  0  0
  1  3  2  0
  1  5  1  0
  2  4  2  0
  2  6  1  0
  3  9  1  0
  4 10  1  0
  5 11  2  0
  6 12  2  0
  7  9  2  0
  7 11  1  0
  8 10  2  0
  8 12  1  0
  9 10  1  0
 11 20  1  0
 12 26  1  0
 13 15  1  0
 13 22  1  0
 13 25  2  0
 14 22  1  0
 14 23  2  0
 14 24  1  0
 15 16  1  0
 16 17  1  6
 16 21  1  0
 16 23  1  0
 18 22  1  0
 19 26  1  0
 20 21  1  0
  1 27  1  0
  2 28  1  0
  3 29  1  0
  4 30  1  0
  5 31  1  0
  6 32  1  0
  7 33  1  0
  8 34  1  0
 15 35  1  0
 15 36  1  0
 17 37  1  0
 17 38  1  0
 17 39  1  0
 18 40  1  0
 18 41  1  0
 18 42  1  0
 19 43  1  0
 19 44  1  0
 19 45  1  0
 20 46  1  0
 20 47  1  0
 21 48  1  0
 21 49  1  0
 23 50  1  0
 24 51  1  0
 24 52  1  0
M  CHG  1  23   1
M  END
>  <OMEGA_C>  (5) 
KKDgQIoju78GxbPBTNSiQICyisBVI4/BmsHQQFgoC8DJ86rBz/OzQGrHYcDLRJfBhy/LQLRgpL6P
Z7fBHStxQKF5hMBap4vBm6WXQP6UCL81zajBGBZgQBffFcAwqpjBBkmsQGLh27+4QqXBaLqaQPCL
IcBzN5zB5e2lQGDL9D1wKLLB89I9QK46SMCsW5DB1iLVQKSWOkA/E5rB2HOHQDR6R0Bux5rBoAjW
QM3rIkDM7aXB5kqvQPDETEBhwavBP5O5QJ1ElkAUa63BrWWsQFLvTkDODYnB9luZP+QVX8CweYPB
ZfSMQBwdoj+O47bBj5+mQFK2JUCp/rbBIa2tQAgqQkDsyJTBIYiHQHvkRUDRQ6XBFSBAQK4TUkBY
y5XBFyD3QLtTPkBlNJXBpFnUPwpxN8DmQo3Bm2T9QN2w5b9YwLfBSTq2QH5vo8CBjIvBD4fgQM1W
RcC/dajB2a/UQCkTa8DAyJnBHzzXQEUQYz5ePb7BWjNXQAFemMDRYIXBjAB6QIHKBr4hVqTBzag4
QJAby78JZJzB1v3zQLAhOkBXhqnB4TDUQKnguT+XxKbBbqmeQO7jpUD7h7HBCre+QP+cpUB7mqXB
Iq/WQMtomUCwTbLBgOuKQA9iU0BfZIbBUwC8QJiCGEC6D4XB21S9QHozhUBa/YbBvEQdPmWNTMAS
+oHBicChP9eLksDVPYTB39bpP6bGScAbh3nBiTSEQA1OgT+SKb/BoHNfQHIRtT9vIbLBS5KUQALf
VEA2uLvB7aXFQNdqGUB427rB1yJXQPrGP0ARFKnBxP8KQBYRWEAlMZrBsI48QAq3U0Azz43BOJdQ
QB8VgsBrr5fBMebvQDxsmMDDjXHBvmWLQObYisCk+JDB/pLMQLRhkMDj3X7B/H5JQB8LNMBVwZzB
P6wLQXg5hMCBe3XB/6imQK/jBcCEE5TB2D/4QA5bP8DlHYrB0AKrQOqEVsBXKI/Bvl/QQDnQZ8D6
KIjBp1OEQL/D6b9fIpvBxO4NQdYNT8BzeYPBYUnVQCJpOUA6NZvBl1uHQKHDREBahprBq5jRQPSw
GEBgzqbBjhinQJDbzD/cLqjBI4GeQMLnrz+8QLTBJdKyQA7PfEBfIovBLDEzQS3XNcCQJn7BD3V+
QB+a8L54fKDBU+KqQCAhdT50QqLBm9uvQNCrUEDeoZXBFkiDQGX8GUAckKPBwIhEQBoEZUDS0pXB
3/b4QBKiQkBoRZfB0PAgQSISJcC76YXB4A0gQAIqmsC+8pjBW7/sQLU4rsDWPGTBNDOOQG/MqcAW
MY3BEmauQJwHoMDQvnvBaYsTQNvmJsBw5qHBFCoZQTKTisCuKWvBZdy9QFu9qL9+b5LB/l/7QAXn
E8BSypDBCfjRQORtT0DXVqzBI8LsQGt83D+LlqjBfWiAQG1jUT89Q7XBgf+bQCwwFkB8UbjBwAO5
QBo1TD9awLfB32+SQP7ChEDFEojB5CzEQLnpU0BOb4XBkw7EQJ3XnEBQHozBBAhBQW21EMAQ6IHB
9lcvQV8PI8B8oW3B2Q03Qa1/esByn37B2zRfQNp/HL9ESqjBexFWQKc9Kz7hY5vBJIK/QKV/2b4N
BKfBDrO5QGGA1T6MZ5rBbqtOQKAaHEBsc6fBabsLQEBfW0CJTpnBfB1IQEPmgkCk947BCShQQG8C
gsC5kJfBnmACQXZNpsCo14DBFUGLQJXCisBw4JDB7O/gQIQFnsDzT4fBTiNJQLYRNMDIrJzBOVMM
QRHfhMC2X3bBChqnQHeGBsAUPZTBRLTkQD/iJMCbc4LBhAurQI2OVsAOJI/BDonQQNUKaMAWL4jB
8m2EQAyO6r/FMJvBGlsEQfLfNMCk6XfB6EvVQIp1OUCpOZvBgVyHQBu/REC0iJrBdJXRQOzBGECE
0qbBzxenQEbozD8OMajByYeeQMCjrz/JQrTBd9eyQKK4fEAUJIvBZqgfQWTRAMCGnl/Bz9Z+QIot
9748q6DBaeWqQDO+eD77OqLBQd+vQL+qUEDgpJXBmEaDQDP/GUAZk6PBAo5EQBL4ZEC505XBKfv4
QFGrQkDWSpfBe1cNQQZn37+WLG3BnnAfQJQKmsBAx5jBuIgIQb9+xsCENYDBvPuNQFqiqcD7DY3B
Id/RQK7dt8CEo4vBNsoSQK/EJsBtv6HBYhcaQfGBi8BseGzBgeC+QHhSq7/k0ZLBVEzYQHofyb9C
EoPB4OzRQNmAT0C1WqzBesDsQHiu3D8znKjBDXGAQIm8UD+aRLXBNwacQLkAFkC/VrjB0A25QAWQ
Sz+Vv7fBsHWSQICzhECZE4jBTDTEQPvIU0CRcoXBkBLEQAbOnEBXHozBOxYlQe6tib8/LFjB7Bwb
QZmzLsCEEVPBSK4sQaPuG8BYU2nBYEFhQMRsI796jqjB8PZUQDibGz5ivpvBWirAQCIr1L5q3qbB
fv24QGgS2z6zTZrB8alOQBEiHEC1dqfB/70LQERUW0DNTpnBeidIQB7dgkAd+I7BkVhQQHjMgcDT
npfB3kQEQTqDNMC6EXjBljSLQKNGisDh3pDBRprkQAdRI8AndYLBM19JQAngM8DJx5zBd0YMQU5C
hMCZi3bBm/qmQO6cBcA6SJTBjOngQF4NncA4dYfBwuqqQPdOVcCVJY/BU3TQQN1JZsBxNojBL22E
QGu16b+zR5vB4HYCQeAEpsDH84DByF/VQARnOUB/OJvBYm6HQOuNREBmhZrBUazRQPn+GEAL1abB
UCynQJmNzT+1OqjBIaOeQPevsD91TbTBZ+eyQOUYfEAUGovB6rsAQTdI8cBGtoXB1d9+QCqQ9b5a
yqDBYeyqQGNUfT5qS6LB+fCvQLpeUEBioJXBU12DQGY4GkDSl6PBCqhEQAVzZED1yZXBLw75QHGK
QkB9SJfBohQLQXnPzsAXyH/Bf9gfQNnumcBy15jB+e0LQe9AAcBuXm/BCuqNQE8IqcAk/YzBLlHY
QL24xb+8AYPBWUATQIvoJsCO56HBXwkaQX60isCLmmzBL6i+QOofqb/E3JLBluDRQEeetsCZ5IvB
IAvSQDfiT0CSV6zBOtXsQPYv3T8XoqjB1YmAQNUQUz+8UrXB5ymcQPCXFkCnXbjBHSi5QHy5TT90
y7fBIIWSQIhQhEB5B4jB90nEQH0CU0AIboXB8xvEQJuFnEDtDIzB2y4JQanBB8GTI4TB/wHgQMoh
9MAAE4PBsysBQepQ6sDQVY7BoLVhQL+EI7+tsqjByKtUQCskHz5q6ZvBLkjAQBTn0L6v7KbBb+O4
QLNX3D66WZrBNuVOQLCdHEDsfafBOdoLQLPkWkCFRpnBOzhIQMpxgkA56I7BD9BEQPlOccCo/pLB
pKQFQbJKwsBS8o7BwO2KQC7licA4mZDBgVjiQJOuscBGCJHBwSw+QM0SIsB/TJjBmOgWQZyYpsBs
5ozBn+GsQAAaGMC42JjBmXL+QLJuUsCKAo/BX4SwQErnZsAceZPBKozbQC0AhcCCGJHBQFOEQNu2
6b8cQpvBKdETQa0qc8Dv6YzBVzvVQNPtOEBELZvB702HQMW3REDUhZrB8JPRQKIeGUAFzKbBsAmn
QDVnzj8EPajBTYSeQG/7sz9vV7TBIcKyQE2ZfEDUIIvBjys5QanBWsC9qIjBMJp/QHuDBb8TcqHB
/uKqQDK8dj6DhKLB+syvQGhiUEAqnpXBgzCDQBIDGkDBjqPBL3hEQF80ZUCo15XB8ej4QMQiQkBc
PZfBEBkkQbCbOMDR7YrBXJoLQOrcicArwpDBdCIIQY195MAS6o7BUk+NQKNXqMDijYzBov3HQHIm
x8CQl5LBWMP/P/TXB8A+G5rBqpcmQdWis8CKT4vBVXzJQGoN7L/lKZvBMGX5QB8ODsAgB4/B6QvS
QAlAUECyRKzBBLLsQA1U3T87nqjB02OAQMd9Wj8TbLXBqxucQPOlGEDqTrjBegO5QAtYVT/u4rfB
fl+SQJG8hEAlFIjBeAvEQAawU0DnaoXBcg/EQJ6ynEDMHYzBhGZEQfy5JcByQYfBCGk4QdW7gcBl
fYHBpLI+QV6DgMA9go/BBGJnQNWYP7+yganBKotRQD0F/T0/Pp3BPDnBQPJyxr7dGKfBLMm3QFOE
0j6dcZrBWkZOQK+1G0CwZqfBUrILQPu/W0BXV5nBFQpIQGn8gkAo/I7BPng5QITKSsAQApHBTFf7
QB7psMBEYYTB3X6CQHBod8CnkY7BYw7XQIFXp8ArnIrBTGw7QKjEBsBYapjBxswMQSu2kMBUC4LB
GW+pQCiAIMAKopvBiLbwQP7MO8CtpozB6TepQI5rYMA9opPBw8rRQMZ9e8BszY7BVDCEQGfd4L94
sJ3BtgUKQaBlTcC59IXB1tzVQCIPOUD4NZvB8RuIQFLEOkB6VJrBs9vSQDRjI0A9LafBcXqpQLOz
3j+HUqnBC0ehQM742z/kgLXBEVSyQOT0WEBLsonBO6QQQQZEW797moLBmNGEQOaRFL9BiKXBWTWu
QNAGkj7npqTBkC6wQNagQUC4KpXBGgqFQLCkHEBeH6TBUTtFQCY6U0ACMJXBwhH5QACRSECgWJfB
ZnEYQdiODsB5xILBvuv7P86NXMAVN43BrgQAQUz60MAlYYHBfu2BQIeQlcDP1ojBY12/QMW2v8Bp
LIzB5ZUBQKuwxr/MFJrBqqAaQQhImMD7cHrBWzTGQNV6FMCVLaDBKEztQAsI+r+AKZDBjxHSQN33
XkAy3KvBu+DuQN9y+j/Vi6nBEwCEQLuWkj+6L7fBP2mdQEntL0AZbrjBdJa8QMONnz/UkrnB4b+R
QFB9XEDFZIbBnMHEQHgtKEBOVYXB+hXCQIfEi0A414jBv4kdQV53Pb4M6n/B3W0LQRN1Eb+er4rB
uQ0DQamlR7+UFnrBFZGCQAr1eb8Hua3BMP5RQImBez1246PB1PvHQBnKZ763B6nBmey2QF0xuz55
JpzBVV9TQFhKJECtKajBSfsMQE6kTUBl8JjBxIhHQPBoakCDvI3BxU1CQMlpQ8CogY/Biu/8QIEA
xcDxsozBAKOGQB9xdMBBaI7BQVfVQOTrsMD2k47BrQZAQF6h/L87w5bB/7kRQUaNr8CKEo/B1Xyo
QMd9H8DceJzBLPD6QP3qY8CyUJXBb+WqQIHVYcAOypTBGQzUQB5Uh8AdBZPBXAeEQEgs1r8vLZ3B
VGoRQb2UhcApOJPB24PVQJpDOkBETZvBp6aHQDZXPkD5hJrBqZHSQBu+JUAJTKfBef6oQBIt5T95
dKnByhuhQG5m4D9UpLXBcbuxQPGfV0Cgu4nBDZEkQf/xBMBMEpXBiwSDQKZP/r6ZAqXBlSitQBih
rj5LqaTBwMavQM7TSEBhcZXB58mEQGhBIUBbXaTBX3lDQK/2UED6MZXB3vP4QLNuQUC4MZfBTNok
QWn4YcCm6ZTB+24KQEmuUsCJyorB8M/9QDn55MDybInB3sOHQCwilMCAsojBi+u3QK9JwcBKoIzB
5twGQMqjr7+8bJfB1dcgQYZgv8B9tI3BYPzCQPT8FMBx3KHBrhz6QBxnJMCVt5jBzwDSQJSxYUB2
6KvBGHDuQCqr/j8bt6nB1KeDQEIamD8TUbfBOridQETuMUBprbjB8la8QIHboT9hnrnBejORQCCt
YUCHnYbB3x3AQAOUH0AnzoXBalfFQCVMiEBfF4jBINw0Qa6V2b90eJbB+/QZQUBr3b/rhJvBIKke
Qezb2b8pWI3BlDN9QOgkY7+LKa3BYfFPQIGOIT5E76LBPc3FQEW1S75xOanBU0e3QE473D5VQ5zB
FqJTQLelKkCfgajBZ0kLQMIcSEC/3JjBSRlFQBg3Z0Bzso3BPxZDQJLhR8CsXY/B8J4RQULlhMAZ
LpXBs5yHQAmjd8A3i47BKUP7QKW6YsDBj5bBgY4+QFdtAcCpaJbBT+8SQap7rsAk/ZDBvImnQJMu
H8DOiJzBf/zXQErOsMAtV4/BmTurQLOkYsA6DJXB4RzVQNITh8BHs5PBb8eCQGfS1r+/3ZzBMw8A
QUAKxcDyHI7B85LVQF26OUBWR5vBOraHQF9wPkDehZrBD7LSQBsCJECIP6fBN8GoQPvu4z8laqnB
FwqhQEAC3z/Vm7XBg6mxQI7hV0C+vInB/T4UQc4VA8F2CYvBsvSAQJ3O7L7tUaTBnyKsQLvSqD5d
mqTB79GvQCSySEDWcJXB6dmEQA/YIUBWY6TBTZtDQN+aUEDVK5XBuP/4QOo2QkD0M5fBp0IAQcy8
7sDSOIrBDBYMQLcvWcDimYrBCwogQSraZ8DjV5fBuKiJQOMclsDX9YjBEH75QHLgIsAP15nB/YEE
QMEsuL/h3pbBCWEiQVJpvcDg8Y/BKlvBQE1DE8DVFKLB1jS7QL1UwcDk7YzBjL3SQFh/X0Aw9KvB
Wk7uQO/m+D9Xj6nBUlqDQKxYmD9aTLfBzyyeQChAMUAtrLjB6Rm8QIGxnj8NjLnB4BuRQJY0YkDy
pYbBAu6/QA/lH0AOxYXBfVPFQB1niECnHIjBdSgSQYA5E8GWr4fBxPQYQZNSBMFOfpPBo8YgQXYr
9cD4jIbByQhzQJMNT7+DdqzBP/hOQLAPWT4OiKHBHRbDQKCOd75rdqnB4yu4QPUa0z4fXJzBpTtU
QHFxLEB/lKjBv2YLQB7NR0D21ZjBGEJFQN96ZkDnp43BfJ7kQOK5EsBr4bLB3UKZQPjHlsAGw43B
FBvRQEuxO8BsIqrB0YyuQCGOgMDB6JXBsijVQL/xhr+eaLbBpIReQKOFi8BA6orBrVagQOpVh7/N
C6jBZF9eQL9RKMDol5jB9eSuQKv+E8Ark6TB14OZQL/uPsA4hZvBkfexQKgq8b77M7HBrhA0QIYS
U8DxQJDBYjvWQELEXUBP5JrB8WaJQIKxSEC9lprBydnRQGWIgECmT6bBN+euQN51TECMBqzBGWmi
QJS9dUCbz7bBr9eyQCSpPEAAconBVIRdPwWhYsCvAIXB8OSjQLPRZD/uIbTBBsDBQBi+5j91163B
d7+wQJndTkADDZXBesiHQEp4R0ChH6XB1PlFQGoaQkAfDpXBXbv5QBOnTUAJOpfBtszDPxDmN8A0
xI3BnXj/QEpPMMCK3rbBOjOpQMersMBIp4nBHEbcQIj0ecDNoKfB6SjPQNrBiMCn55fBgCrkQI5T
Db8QE73B9xM+QM/SnMBdoYTBKYiHQNFTC7/tpaPBqP89QKQU67+M1ZzBn47IQG93okBsCqbBr3Dw
QMmRekC8lqrB6n2JQPDqTkDDsbrBnyGWQHVem0AHZbXBwbe+QKL8eECYBrzBTE2SQEjVMkCgUobB
hf3FQP6VAkD6F4jB8c3BQGgHc0BcSoXBwa8Mvi0SR8Di5IPBAYlGP3Smk8CCzYbB2t25P0ISWsDr
RXvB/l6nQGoPiD/KyLzBlmOCQAefhz97yLHBCu/fQBnt8z8rS7LByCXIQMeiqz8vBKbBK1xWQH4D
Q0DBqqjBleQOQFGtPEBTEpnBKcJFQCfJQkBADo3B

>  <OMEGA_E>  (5) 
+D6VPtRbfj9Y8H0/wt19Pwikcj9MNW8/npttP/4ibT8smQQ/

>  <OMEGA_NBR>  (5) 
     11675

$$$$
50145672
     RDKit          3D

 52 54  0  0  1  0  0  0  0  0999 V2000
    7.0196   -1.4620  -22.4712 C   0  0  0  0  0  0  0  0  0  0  0  0
    5.0884   -4.3343  -17.8923 C   0  0  0  0  0  0  0  0  0  0  0  0
    6.5236   -2.1743  -21.3690 C   0  0  0  0  0  0  0  0  0  0  0  0
    5.6235   -3.5278  -18.9086 C   0  0  0  0  0  0  0  0  0  0  0  0
    6.3496   -0.3211  -22.9256 C   0  0  0  0  0  0  0  0  0  0  0  0
    3.7683   -4.1398  -17.4567 C   0  0  0  0  0  0  0  0  0  0  0  0
    4.7390   -0.5335  -21.1002 C   0  0  0  0  0  0  0  0  0  0  0  0
    3.5013   -2.3417  -19.0831 C   0  0  0  0  0  0  0  0  0  0  0  0
    5.3839   -1.7178  -20.6576 C   0  0  0  0  0  0  0  0  0  0  0  0
    4.8353   -2.5242  -19.5271 C   0  0  0  0  0  0  0  0  0  0  0  0
    5.1853    0.1195  -22.2697 C   0  0  0  0  0  0  0  0  0  0  0  0
    2.9660   -3.1286  -18.0448 C   0  0  0  0  0  0  0  0  0  0  0  0
    6.6605    2.9154  -19.2594 C   0  0  0  0  0  0  0  0  0  0  0  0
    4.2329    3.1168  -19.3474 C   0  0  0  0  0  0  0  0  0  0  0  0
    6.6886    2.5456  -20.7411 C   0  0  0  0  0  0  0  0  0  0  0  0
    5.4779    3.1995  -21.4694 C   0  0  1  0  0  0  0  0  0  0  0  0
    5.7992    4.6959  -21.6773 C   0  0  0  0  0  0  0  0  0  0  0  0
    5.3874    3.2334  -17.1317 C   0  0  0  0  0  0  0  0  0  0  0  0
    1.1981   -3.4857  -16.4344 C   0  0  0  0  0  0  0  0  0  0  0  0
    4.4048    1.2665  -22.8611 C   0  0  0  0  0  0  0  0  0  0  0  0
    5.2070    2.5893  -22.8743 C   0  0  0  0  0  0  0  0  0  0  0  0
    5.4274    3.0338  -18.5981 N   0  0  0  0  0  0  0  0  0  0  0  0
    4.2354    3.0921  -20.6581 N   0  0  0  0  0  0  0  0  0  0  0  0
    3.0020    3.2825  -18.7243 N   0  0  0  0  0  0  0  0  0  0  0  0
    7.7227    2.9739  -18.6506 O   0  0  0  0  0  0  0  0  0  0  0  0
    1.6590   -2.8663  -17.6577 O   0  0  0  0  0  0  0  0  0  0  0  0
    7.9185   -1.7945  -22.9689 H   0  0  0  0  0  0  0  0  0  0  0  0
    5.6946   -5.1074  -17.4436 H   0  0  0  0  0  0  0  0  0  0  0  0
    7.0165   -3.0834  -21.0575 H   0  0  0  0  0  0  0  0  0  0  0  0
    6.6465   -3.6730  -19.2230 H   0  0  0  0  0  0  0  0  0  0  0  0
    6.7261    0.2217  -23.7800 H   0  0  0  0  0  0  0  0  0  0  0  0
    3.3625   -4.7615  -16.6723 H   0  0  0  0  0  0  0  0  0  0  0  0
    3.9063   -0.1316  -20.5421 H   0  0  0  0  0  0  0  0  0  0  0  0
    2.8853   -1.5868  -19.5488 H   0  0  0  0  0  0  0  0  0  0  0  0
    7.6247    2.9083  -21.1906 H   0  0  0  0  0  0  0  0  0  0  0  0
    6.6310    1.4522  -20.8460 H   0  0  0  0  0  0  0  0  0  0  0  0
    4.9582    5.1841  -22.1914 H   0  0  0  0  0  0  0  0  0  0  0  0
    5.9598    5.1754  -20.7004 H   0  0  0  0  0  0  0  0  0  0  0  0
    6.7089    4.7940  -22.2879 H   0  0  0  0  0  0  0  0  0  0  0  0
    4.3412    3.3029  -16.7990 H   0  0  0  0  0  0  0  0  0  0  0  0
    5.8750    2.3830  -16.6327 H   0  0  0  0  0  0  0  0  0  0  0  0
    5.9166    4.1625  -16.8737 H   0  0  0  0  0  0  0  0  0  0  0  0
    0.1536   -3.1961  -16.2471 H   0  0  0  0  0  0  0  0  0  0  0  0
    1.2637   -4.5796  -16.5302 H   0  0  0  0  0  0  0  0  0  0  0  0
    1.8269   -3.1527  -15.5955 H   0  0  0  0  0  0  0  0  0  0  0  0
    4.1314    1.0102  -23.8953 H   0  0  0  0  0  0  0  0  0  0  0  0
    3.4914    1.4146  -22.2663 H   0  0  0  0  0  0  0  0  0  0  0  0
    4.6429    3.3261  -23.4649 H   0  0  0  0  0  0  0  0  0  0  0  0
    6.1765    2.3971  -23.3572 H   0  0  0  0  0  0  0  0  0  0  0  0
    3.3615    2.9965  -21.1348 H   0  0  0  0  0  0  0  0  0  0  0  0
    2.1719    3.3760  -19.2740 H   0  0  0  0  0  0  0  0  0  0  0  0
    2.9462    3.3080  -17.7262 H   0  0  0  0  0  0  0  0  0  0  0  0
  1  3  2  0
  1  5  1  0
  2  4  2  0
  2  6  1  0
  3  9  1  0
  4 10  1  0
  5 11  2  0
  6 12  2  0
  7  9  2  0
  7 11  1  0
  8 10  2  0
  8 12  1  0
  9 10  1  0
 11 20  1  0
 12 26  1  0
 13 15  1  0
 13 22  1  0
 13 25  2  0
 14 22  1  0
 14 23  2  0
 14 24  1  0
 15 16  1  0
 16 17  1  6
 16 21  1  0
 16 23  1  0
 18 22  1  0
 19 26  1  0
 20 21  1  0
  1 27  1  0
  2 28  1  0
  3 29  1  0
  4 30  1  0
  5 31  1  0
  6 32  1  0
  7 33  1  0
  8 34  1  0
 15 35  1  0
 15 36  1  0
 17 37  1  0
 17 38  1  0
 17 39  1  0
 18 40  1  0
 18 41  1  0
 18 42  1  0
 19 43  1  0
 19 44  1  0
 19 45  1  0
 20 46  1  0
 20 47  1  0
 21 48  1  0
 21 49  1  0
 23 50  1  0
 24 51  1  0
 24 52  1  0
M  CHG  1  23   1
M  END
>  <OMEGA_C>  (6) 
KKDgQIoju78GxbPBTNSiQICyisBVI4/BmsHQQFgoC8DJ86rBz/OzQGrHYcDLRJfBhy/LQLRgpL6P
Z7fBHStxQKF5hMBap4vBm6WXQP6UCL81zajBGBZgQBffFcAwqpjBBkmsQGLh27+4QqXBaLqaQPCL
IcBzN5zB5e2lQGDL9D1wKLLB89I9QK46SMCsW5DB1iLVQKSWOkA/E5rB2HOHQDR6R0Bux5rBoAjW
QM3rIkDM7aXB5kqvQPDETEBhwavBP5O5QJ1ElkAUa63BrWWsQFLvTkDODYnB9luZP+QVX8CweYPB
ZfSMQBwdoj+O47bBj5+mQFK2JUCp/rbBIa2tQAgqQkDsyJTBIYiHQHvkRUDRQ6XBFSBAQK4TUkBY
y5XBFyD3QLtTPkBlNJXBpFnUPwpxN8DmQo3Bm2T9QN2w5b9YwLfBSTq2QH5vo8CBjIvBD4fgQM1W
RcC/dajB2a/UQCkTa8DAyJnBHzzXQEUQYz5ePb7BWjNXQAFemMDRYIXBjAB6QIHKBr4hVqTBzag4
QJAby78JZJzB1v3zQLAhOkBXhqnB4TDUQKnguT+XxKbBbqmeQO7jpUD7h7HBCre+QP+cpUB7mqXB
Iq/WQMtomUCwTbLBgOuKQA9iU0BfZIbBUwC8QJiCGEC6D4XB21S9QHozhUBa/YbBvEQdPmWNTMAS
+oHBicChP9eLksDVPYTB39bpP6bGScAbh3nBiTSEQA1OgT+SKb/BoHNfQHIRtT9vIbLBS5KUQALf
VEA2uLvB7aXFQNdqGUB427rB1yJXQPrGP0ARFKnBxP8KQBYRWEAlMZrBsI48QAq3U0Azz43BOJdQ
QB8VgsBrr5fBMebvQDxsmMDDjXHBvmWLQObYisCk+JDB/pLMQLRhkMDj3X7B/H5JQB8LNMBVwZzB
P6wLQXg5hMCBe3XB/6imQK/jBcCEE5TB2D/4QA5bP8DlHYrB0AKrQOqEVsBXKI/Bvl/QQDnQZ8D6
KIjBp1OEQL/D6b9fIpvBxO4NQdYNT8BzeYPBYUnVQCJpOUA6NZvBl1uHQKHDREBahprBq5jRQPSw
GEBgzqbBjhinQJDbzD/cLqjBI4GeQMLnrz+8QLTBJdKyQA7PfEBfIovBLDEzQS3XNcCQJn7BD3V+
QB+a8L54fKDBU+KqQCAhdT50QqLBm9uvQNCrUEDeoZXBFkiDQGX8GUAckKPBwIhEQBoEZUDS0pXB
3/b4QBKiQkBoRZfB0PAgQSISJcC76YXB4A0gQAIqmsC+8pjBW7/sQLU4rsDWPGTBNDOOQG/MqcAW
MY3BEmauQJwHoMDQvnvBaYsTQNvmJsBw5qHBFCoZQTKTisCuKWvBZdy9QFu9qL9+b5LB/l/7QAXn
E8BSypDBCfjRQORtT0DXVqzBI8LsQGt83D+LlqjBfWiAQG1jUT89Q7XBgf+bQCwwFkB8UbjBwAO5
QBo1TD9awLfB32+SQP7ChEDFEojB5CzEQLnpU0BOb4XBkw7EQJ3XnEBQHozBBAhBQW21EMAQ6IHB
9lcvQV8PI8B8oW3B2Q03Qa1/esByn37B2zRfQNp/HL9ESqjBexFWQKc9Kz7hY5vBJIK/QKV/2b4N
BKfBDrO5QGGA1T6MZ5rBbqtOQKAaHEBsc6fBabsLQEBfW0CJTpnBfB1IQEPmgkCk947BCShQQG8C
gsC5kJfBnmACQXZNpsCo14DBFUGLQJXCisBw4JDB7O/gQIQFnsDzT4fBTiNJQLYRNMDIrJzBOVMM
QRHfhMC2X3bBChqnQHeGBsAUPZTBRLTkQD/iJMCbc4LBhAurQI2OVsAOJI/BDonQQNUKaMAWL4jB
8m2EQAyO6r/FMJvBGlsEQfLfNMCk6XfB6EvVQIp1OUCpOZvBgVyHQBu/REC0iJrBdJXRQOzBGECE
0qbBzxenQEbozD8OMajByYeeQMCjrz/JQrTBd9eyQKK4fEAUJIvBZqgfQWTRAMCGnl/Bz9Z+QIot
9748q6DBaeWqQDO+eD77OqLBQd+vQL+qUEDgpJXBmEaDQDP/GUAZk6PBAo5EQBL4ZEC505XBKfv4
QFGrQkDWSpfBe1cNQQZn37+WLG3BnnAfQJQKmsBAx5jBuIgIQb9+xsCENYDBvPuNQFqiqcD7DY3B
Id/RQK7dt8CEo4vBNsoSQK/EJsBtv6HBYhcaQfGBi8BseGzBgeC+QHhSq7/k0ZLBVEzYQHofyb9C
EoPB4OzRQNmAT0C1WqzBesDsQHiu3D8znKjBDXGAQIm8UD+aRLXBNwacQLkAFkC/VrjB0A25QAWQ
Sz+Vv7fBsHWSQICzhECZE4jBTDTEQPvIU0CRcoXBkBLEQAbOnEBXHozBOxYlQe6tib8/LFjB7Bwb
QZmzLsCEEVPBSK4sQaPuG8BYU2nBYEFhQMRsI796jqjB8PZUQDibGz5ivpvBWirAQCIr1L5q3qbB
fv24QGgS2z6zTZrB8alOQBEiHEC1dqfB/70LQERUW0DNTpnBeidIQB7dgkAd+I7BkVhQQHjMgcDT
npfB3kQEQTqDNMC6EXjBljSLQKNGisDh3pDBRprkQAdRI8AndYLBM19JQAngM8DJx5zBd0YMQU5C
hMCZi3bBm/qmQO6cBcA6SJTBjOngQF4NncA4dYfBwuqqQPdOVcCVJY/BU3TQQN1JZsBxNojBL22E
QGu16b+zR5vB4HYCQeAEpsDH84DByF/VQARnOUB/OJvBYm6HQOuNREBmhZrBUazRQPn+GEAL1abB
UCynQJmNzT+1OqjBIaOeQPevsD91TbTBZ+eyQOUYfEAUGovB6rsAQTdI8cBGtoXB1d9+QCqQ9b5a
yqDBYeyqQGNUfT5qS6LB+fCvQLpeUEBioJXBU12DQGY4GkDSl6PBCqhEQAVzZED1yZXBLw75QHGK
QkB9SJfBohQLQXnPzsAXyH/Bf9gfQNnumcBy15jB+e0LQe9AAcBuXm/BCuqNQE8IqcAk/YzBLlHY
QL24xb+8AYPBWUATQIvoJsCO56HBXwkaQX60isCLmmzBL6i+QOofqb/E3JLBluDRQEeetsCZ5IvB
IAvSQDfiT0CSV6zBOtXsQPYv3T8XoqjB1YmAQNUQUz+8UrXB5ymcQPCXFkCnXbjBHSi5QHy5TT90
y7fBIIWSQIhQhEB5B4jB90nEQH0CU0AIboXB8xvEQJuFnEDtDIzB2y4JQanBB8GTI4TB/wHgQMoh
9MAAE4PBsysBQepQ6sDQVY7BoLVhQL+EI7+tsqjByKtUQCskHz5q6ZvBLkjAQBTn0L6v7KbBb+O4
QLNX3D66WZrBNuVOQLCdHEDsfafBOdoLQLPkWkCFRpnBOzhIQMpxgkA56I7BD9BEQPlOccCo/pLB
pKQFQbJKwsBS8o7BwO2KQC7licA4mZDBgVjiQJOuscBGCJHBwSw+QM0SIsB/TJjBmOgWQZyYpsBs
5ozBn+GsQAAaGMC42JjBmXL+QLJuUsCKAo/BX4SwQErnZsAceZPBKozbQC0AhcCCGJHBQFOEQNu2
6b8cQpvBKdETQa0qc8Dv6YzBVzvVQNPtOEBELZvB702HQMW3REDUhZrB8JPRQKIeGUAFzKbBsAmn
QDVnzj8EPajBTYSeQG/7sz9vV7TBIcKyQE2ZfEDUIIvBjys5QanBWsC9qIjBMJp/QHuDBb8TcqHB
/uKqQDK8dj6DhKLB+syvQGhiUEAqnpXBgzCDQBIDGkDBjqPBL3hEQF80ZUCo15XB8ej4QMQiQkBc
PZfBEBkkQbCbOMDR7YrBXJoLQOrcicArwpDBdCIIQY195MAS6o7BUk+NQKNXqMDijYzBov3HQHIm
x8CQl5LBWMP/P/TXB8A+G5rBqpcmQdWis8CKT4vBVXzJQGoN7L/lKZvBMGX5QB8ODsAgB4/B6QvS
QAlAUECyRKzBBLLsQA1U3T87nqjB02OAQMd9Wj8TbLXBqxucQPOlGEDqTrjBegO5QAtYVT/u4rfB
fl+SQJG8hEAlFIjBeAvEQAawU0DnaoXBcg/EQJ6ynEDMHYzBhGZEQfy5JcByQYfBCGk4QdW7gcBl
fYHBpLI+QV6DgMA9go/BBGJnQNWYP7+yganBKotRQD0F/T0/Pp3BPDnBQPJyxr7dGKfBLMm3QFOE
0j6dcZrBWkZOQK+1G0CwZqfBUrILQPu/W0BXV5nBFQpIQGn8gkAo/I7BPng5QITKSsAQApHBTFf7
QB7psMBEYYTB3X6CQHBod8CnkY7BYw7XQIFXp8ArnIrBTGw7QKjEBsBYapjBxswMQSu2kMBUC4LB
GW+pQCiAIMAKopvBiLbwQP7MO8CtpozB6TepQI5rYMA9opPBw8rRQMZ9e8BszY7BVDCEQGfd4L94
sJ3BtgUKQaBlTcC59IXB1tzVQCIPOUD4NZvB8RuIQFLEOkB6VJrBs9vSQDRjI0A9LafBcXqpQLOz
3j+HUqnBC0ehQM742z/kgLXBEVSyQOT0WEBLsonBO6QQQQZEW797moLBmNGEQOaRFL9BiKXBWTWu
QNAGkj7npqTBkC6wQNagQUC4KpXBGgqFQLCkHEBeH6TBUTtFQCY6U0ACMJXBwhH5QACRSECgWJfB
ZnEYQdiODsB5xILBvuv7P86NXMAVN43BrgQAQUz60MAlYYHBfu2BQIeQlcDP1ojBY12/QMW2v8Bp
LIzB5ZUBQKuwxr/MFJrBqqAaQQhImMD7cHrBWzTGQNV6FMCVLaDBKEztQAsI+r+AKZDBjxHSQN33
XkAy3KvBu+DuQN9y+j/Vi6nBEwCEQLuWkj+6L7fBP2mdQEntL0AZbrjBdJa8QMONnz/UkrnB4b+R
QFB9XEDFZIbBnMHEQHgtKEBOVYXB+hXCQIfEi0A414jBv4kdQV53Pb4M6n/B3W0LQRN1Eb+er4rB
uQ0DQamlR7+UFnrBFZGCQAr1eb8Hua3BMP5RQImBez1246PB1PvHQBnKZ763B6nBmey2QF0xuz55
JpzBVV9TQFhKJECtKajBSfsMQE6kTUBl8JjBxIhHQPBoakCDvI3BxU1CQMlpQ8CogY/Biu/8QIEA
xcDxsozBAKOGQB9xdMBBaI7BQVfVQOTrsMD2k47BrQZAQF6h/L87w5bB/7kRQUaNr8CKEo/B1Xyo
QMd9H8DceJzBLPD6QP3qY8CyUJXBb+WqQIHVYcAOypTBGQzUQB5Uh8AdBZPBXAeEQEgs1r8vLZ3B
VGoRQb2UhcApOJPB24PVQJpDOkBETZvBp6aHQDZXPkD5hJrBqZHSQBu+JUAJTKfBef6oQBIt5T95
dKnByhuhQG5m4D9UpLXBcbuxQPGfV0Cgu4nBDZEkQf/xBMBMEpXBiwSDQKZP/r6ZAqXBlSitQBih
rj5LqaTBwMavQM7TSEBhcZXB58mEQGhBIUBbXaTBX3lDQK/2UED6MZXB3vP4QLNuQUC4MZfBTNok
QWn4YcCm6ZTB+24KQEmuUsCJyorB8M/9QDn55MDybInB3sOHQCwilMCAsojBi+u3QK9JwcBKoIzB
5twGQMqjr7+8bJfB1dcgQYZgv8B9tI3BYPzCQPT8FMBx3KHBrhz6QBxnJMCVt5jBzwDSQJSxYUB2
6KvBGHDuQCqr/j8bt6nB1KeDQEIamD8TUbfBOridQETuMUBprbjB8la8QIHboT9hnrnBejORQCCt
YUCHnYbB3x3AQAOUH0AnzoXBalfFQCVMiEBfF4jBINw0Qa6V2b90eJbB+/QZQUBr3b/rhJvBIKke
Qezb2b8pWI3BlDN9QOgkY7+LKa3BYfFPQIGOIT5E76LBPc3FQEW1S75xOanBU0e3QE473D5VQ5zB
FqJTQLelKkCfgajBZ0kLQMIcSEC/3JjBSRlFQBg3Z0Bzso3BPxZDQJLhR8CsXY/B8J4RQULlhMAZ
LpXBs5yHQAmjd8A3i47BKUP7QKW6YsDBj5bBgY4+QFdtAcCpaJbBT+8SQap7rsAk/ZDBvImnQJMu
H8DOiJzBf/zXQErOsMAtV4/BmTurQLOkYsA6DJXB4RzVQNITh8BHs5PBb8eCQGfS1r+/3ZzBMw8A
QUAKxcDyHI7B85LVQF26OUBWR5vBOraHQF9wPkDehZrBD7LSQBsCJECIP6fBN8GoQPvu4z8laqnB
FwqhQEAC3z/Vm7XBg6mxQI7hV0C+vInB/T4UQc4VA8F2CYvBsvSAQJ3O7L7tUaTBnyKsQLvSqD5d
mqTB79GvQCSySEDWcJXB6dmEQA/YIUBWY6TBTZtDQN+aUEDVK5XBuP/4QOo2QkD0M5fBp0IAQcy8
7sDSOIrBDBYMQLcvWcDimYrBCwogQSraZ8DjV5fBuKiJQOMclsDX9YjBEH75QHLgIsAP15nB/YEE
QMEsuL/h3pbBCWEiQVJpvcDg8Y/BKlvBQE1DE8DVFKLB1jS7QL1UwcDk7YzBjL3SQFh/X0Aw9KvB
Wk7uQO/m+D9Xj6nBUlqDQKxYmD9aTLfBzyyeQChAMUAtrLjB6Rm8QIGxnj8NjLnB4BuRQJY0YkDy
pYbBAu6/QA/lH0AOxYXBfVPFQB1niECnHIjBdSgSQYA5E8GWr4fBxPQYQZNSBMFOfpPBo8YgQXYr
9cD4jIbByQhzQJMNT7+DdqzBP/hOQLAPWT4OiKHBHRbDQKCOd75rdqnB4yu4QPUa0z4fXJzBpTtU
QHFxLEB/lKjBv2YLQB7NR0D21ZjBGEJFQN96ZkDnp43BfJ7kQOK5EsBr4bLB3UKZQPjHlsAGw43B
FBvRQEuxO8BsIqrB0YyuQCGOgMDB6JXBsijVQL/xhr+eaLbBpIReQKOFi8BA6orBrVagQOpVh7/N
C6jBZF9eQL9RKMDol5jB9eSuQKv+E8Ark6TB14OZQL/uPsA4hZvBkfexQKgq8b77M7HBrhA0QIYS
U8DxQJDBYjvWQELEXUBP5JrB8WaJQIKxSEC9lprBydnRQGWIgECmT6bBN+euQN51TECMBqzBGWmi
QJS9dUCbz7bBr9eyQCSpPEAAconBVIRdPwWhYsCvAIXB8OSjQLPRZD/uIbTBBsDBQBi+5j91163B
d7+wQJndTkADDZXBesiHQEp4R0ChH6XB1PlFQGoaQkAfDpXBXbv5QBOnTUAJOpfBtszDPxDmN8A0
xI3BnXj/QEpPMMCK3rbBOjOpQMersMBIp4nBHEbcQIj0ecDNoKfB6SjPQNrBiMCn55fBgCrkQI5T
Db8QE73B9xM+QM/SnMBdoYTBKYiHQNFTC7/tpaPBqP89QKQU67+M1ZzBn47IQG93okBsCqbBr3Dw
QMmRekC8lqrB6n2JQPDqTkDDsbrBnyGWQHVem0AHZbXBwbe+QKL8eECYBrzBTE2SQEjVMkCgUobB
hf3FQP6VAkD6F4jB8c3BQGgHc0BcSoXBwa8Mvi0SR8Di5IPBAYlGP3Smk8CCzYbB2t25P0ISWsDr
RXvB/l6nQGoPiD/KyLzBlmOCQAefhz97yLHBCu/fQBnt8z8rS7LByCXIQMeiqz8vBKbBK1xWQH4D
Q0DBqqjBleQOQFGtPEBTEpnBKcJFQCfJQkBADo3B

>  <OMEGA_E>  (6) 
+D6VPtRbfj9Y8H0/wt19Pwikcj9MNW8/npttP/4ibT8smQQ/

>  <OMEGA_NBR>  (6) 
     20627

$$$$
50145427
     RDKit          3D

 52 54  0  0  1  0  0  0  0  0999 V2000
    6.3813   -2.7343  -21.8977 C   0  0  0  0  0  0  0  0  0  0  0  0
    5.8431   -4.8195  -16.6760 C   0  0  0  0  0  0  0  0  0  0  0  0
    6.0831   -3.3304  -20.6632 C   0  0  0  0  0  0  0  0  0  0  0  0
    5.3494   -4.3585  -17.9101 C   0  0  0  0  0  0  0  0  0  0  0  0
    5.9518   -1.4234  -22.1635 C   0  0  0  0  0  0  0  0  0  0  0  0
    6.5774   -3.9547  -15.8358 C   0  0  0  0  0  0  0  0  0  0  0  0
    4.8971   -1.3123  -19.9664 C   0  0  0  0  0  0  0  0  0  0  0  0
    6.2523   -2.1403  -17.4243 C   0  0  0  0  0  0  0  0  0  0  0  0
    5.3934   -2.5980  -19.6747 C   0  0  0  0  0  0  0  0  0  0  0  0
    5.5623   -3.0176  -18.2878 C   0  0  0  0  0  0  0  0  0  0  0  0
    5.1701   -0.7297  -21.2177 C   0  0  0  0  0  0  0  0  0  0  0  0
    6.7966   -2.6015  -16.2137 C   0  0  0  0  0  0  0  0  0  0  0  0
    6.7561    3.6871  -18.8513 C   0  0  0  0  0  0  0  0  0  0  0  0
    4.3331    3.4754  -18.9919 C   0  0  0  0  0  0  0  0  0  0  0  0
    6.8036    3.8931  -20.3716 C   0  0  0  0  0  0  0  0  0  0  0  0
    5.6461    3.1033  -21.0229 C   0  0  1  0  0  0  0  0  0  0  0  0
    5.4917    3.5467  -22.4938 C   0  0  0  0  0  0  0  0  0  0  0  0
    5.4340    3.4060  -16.7403 C   0  0  0  0  0  0  0  0  0  0  0  0
    8.2342   -2.1977  -14.3003 C   0  0  0  0  0  0  0  0  0  0  0  0
    4.8039    0.7054  -21.4649 C   0  0  0  0  0  0  0  0  0  0  0  0
    5.9531    1.5834  -20.9332 C   0  0  0  0  0  0  0  0  0  0  0  0
    5.5093    3.5722  -18.2115 N   0  0  0  0  0  0  0  0  0  0  0  0
    4.3820    3.4161  -20.3043 N   0  0  0  0  0  0  0  0  0  0  0  0
    3.0794    3.4223  -18.3960 N   0  0  0  0  0  0  0  0  0  0  0  0
    7.8055    3.7075  -18.2181 O   0  0  0  0  0  0  0  0  0  0  0  0
    7.5663   -1.6997  -15.4842 O   0  0  0  0  0  0  0  0  0  0  0  0
    6.9398   -3.2821  -22.6422 H   0  0  0  0  0  0  0  0  0  0  0  0
    5.6596   -5.8389  -16.3701 H   0  0  0  0  0  0  0  0  0  0  0  0
    6.3816   -4.3501  -20.4698 H   0  0  0  0  0  0  0  0  0  0  0  0
    4.8106   -5.0281  -18.5641 H   0  0  0  0  0  0  0  0  0  0  0  0
    6.2211   -0.9462  -23.0941 H   0  0  0  0  0  0  0  0  0  0  0  0
    6.9747   -4.3227  -14.9014 H   0  0  0  0  0  0  0  0  0  0  0  0
    4.3107   -0.7771  -19.2342 H   0  0  0  0  0  0  0  0  0  0  0  0
    6.3633   -1.1012  -17.6973 H   0  0  0  0  0  0  0  0  0  0  0  0
    6.6955    4.9632  -20.6023 H   0  0  0  0  0  0  0  0  0  0  0  0
    7.7648    3.5288  -20.7632 H   0  0  0  0  0  0  0  0  0  0  0  0
    4.6685    2.9868  -22.9616 H   0  0  0  0  0  0  0  0  0  0  0  0
    5.2701    4.6235  -22.5307 H   0  0  0  0  0  0  0  0  0  0  0  0
    6.4268    3.3459  -23.0372 H   0  0  0  0  0  0  0  0  0  0  0  0
    4.3804    3.3348  -16.4323 H   0  0  0  0  0  0  0  0  0  0  0  0
    5.9643    2.4878  -16.4475 H   0  0  0  0  0  0  0  0  0  0  0  0
    5.9017    4.2720  -16.2491 H   0  0  0  0  0  0  0  0  0  0  0  0
    8.8013   -1.3819  -13.8281 H   0  0  0  0  0  0  0  0  0  0  0  0
    7.4859   -2.5820  -13.5916 H   0  0  0  0  0  0  0  0  0  0  0  0
    8.9230   -3.0079  -14.5816 H   0  0  0  0  0  0  0  0  0  0  0  0
    4.6699    0.8770  -22.5431 H   0  0  0  0  0  0  0  0  0  0  0  0
    3.8708    0.9499  -20.9360 H   0  0  0  0  0  0  0  0  0  0  0  0
    6.8572    1.3729  -21.5234 H   0  0  0  0  0  0  0  0  0  0  0  0
    6.1343    1.3238  -19.8797 H   0  0  0  0  0  0  0  0  0  0  0  0
    3.5495    3.5853  -20.8319 H   0  0  0  0  0  0  0  0  0  0  0  0
    2.2594    3.3421  -18.9627 H   0  0  0  0  0  0  0  0  0  0  0  0
    2.9969    3.4643  -17.4003 H   0  0  0  0  0  0  0  0  0  0  0  0
  1  3  2  0
  1  5  1  0
  2  4  2  0
  2  6  1  0
  3  9  1  0
  4 10  1  0
  5 11  2  0
  6 12  2  0
  7  9  2  0
  7 11  1  0
  8 10  2  0
  8 12  1  0
  9 10  1  0
 11 20  1  0
 12 26  1  0
 13 15  1  0
 13 22  1  0
 13 25  2  0
 14 22  1  0
 14 23  2  0
 14 24  1  0
 15 16  1  0
 16 17  1  6
 16 21  1  0
 16 23  1  0
 18 22  1  0
 19 26  1  0
 20 21  1  0
  1 27  1  0
  2 28  1  0
  3 29  1  0
  4 30  1  0
  5 31  1  0
  6 32  1  0
  7 33  1  0
  8 34  1  0
 15 35  1  0
 15 36  1  0
 17 37  1  0
 17 38  1  0
 17 39  1  0
 18 40  1  0
 18 41  1  0
 18 42  1  0
 19 43  1  0
 19 44  1  0
 19 45  1  0
 20 46  1  0
 20 47  1  0
 21 48  1  0
 21 49  1  0
 23 50  1  0
 24 51  1  0
 24 52  1  0
M  CHG  1  23   1
M  END
>  <OMEGA_C>  (7) 
NjPMQM/+LsCDLq/BlPq6QEw5msBfaIXBiqjCQKskVcAyTqXBYS6rQMx4i8DqR4/BInW+QGIwtr/B
TrHBDnrSQLkZfcCHX33BSbWcQLr4p79Iu5/BnRLIQPH5CMDqZIvBEpesQHFFJsDNZZ3BL/6xQI0g
QcBzTZLBq3GlQETLOr/nvanBwn3ZQMl+JsCytYHB/THYQIr5a0COz5bB2qiKQD9sXkB475fBFrfZ
QEgoeUD8+KLBgKy0QOSbRkDWLqjBNLyvQLf8YkBD87PBB+OtQJH7WUAh7IXBbb8DQcGmDMAuzmTB
R7mZQLCWND8XuKvBFoC+QKWtyj83d6fBUkywQGufZEA8sZHBAzmMQAehWkArb6LBlRRFQBIHW0D8
KpPBb8b5QOlHbUDFvpHBhR/yQJqO2b9Zv3fBwBLeQGQOUsBOI7XBSBu1QEbYusAF9oLBeTbMQPIz
i8AYwqPBYPCZQJbmoMAwg5TBUxPHQGI5cr/QwLjBgjDfQJ1TisAkbG7BmfGJQPvxRr+r35nBjKDL
QLr1jL8ElI3B4UHWQFrSnkB10aTBSHn4QNjXYUAPG6bBZmSVQP0nP0BjsbfB9qSoQKfzk0DTPrTB
najNQJYjVkAfTLjB8yuMQABtVUBbdYPBUdu+QPo3H0CTlIPBtNq8QDC0iEA6/oHBBdIMQRvjsL/V
P13BZYzvQO8/JcBad1nBsMQOQcCBQMANTmnBNXCVQI+EYD9YWLTBkrt3QP4pcz8CfafBJW7bQEy7
rz/7L6zBL0zEQJNyqT+6CZ/BRStjQK51ZUDEp6bBtZkQQNvkVUCes5fB3cw/QJu3XUDIM4vB6Jq0
QFB2HcC3rLDBuh/9QHV6s8CLso7B7BTCQGmbUsDnP6jBoxnwQE2VmMD3FJfB3ZytQPHri78m3a7B
/rHwQLmUqsAlH4TBZ7vBQO0Lsb+UIJzBTwHKQIfcVsDCSorByInIQHOhMMDl353BblvWQBu8aMAZ
+JTBgvm0QHgADL8UnKTBtezWQNVMhsBP0YHBIkTXQOmbYEAYV5fBWPiIQP9cYkDS/JfB5oPYQJOa
eEDHOKPBtg2wQGEoV0BHI6nBVparQMOMhEBIyrPBVvOtQC8DRUD3gIbBkZDWQFaol8BW1F3BIcms
QNwGZz+JLqLBioOzQCzy6z9Z7qvBv46vQPMUXEBzB5LB3/GIQGvPZ0ChiaLBzstCQNsJX0Av3ZLB
zib5QKb0UkCsrZLBvGTJQLdgd8DqHW/BYKCvQJgHOMChjbjB9GEIQZ8bz8DrYJDBMo3HQAvuisCv
s6nBWcz5QBiZn8DsL5/BE5+iQHZX676iTLXBGsz6QDpyv8BubXvB51TGQCK7d79LPJTBY3e2QDhv
H8Bhn4jBY/LZQE5Yn0CF+KPBtSj1QPYsXECL5qbB1RyPQAF2ckD+HrjBXkOoQCnrpkCMFLLBgDnI
QON4fkBTu7jBlnyMQDK7REBAxoPB3+q7QG4LBUC3W4XB7UTAQHstdEA42IHBTLXJQMqNi8Cjmk7B
PkbKQNEeuMBiwGDBQ7f5QG+JmMBvA13BEISLQETegD9+bp/BK7HCQOuMmz+jw5vBtBybQDWezT/F
+7HBvYfTQKCp0z8jQq/B/n5bQMCrd0AEQqbBg9kMQI7LYECsKZfBj/M/QGjlWkCC44rBAcC0QI16
HcD/rrDBsLLVQNgIu8AOc4zBuSTCQJCjUsC4QKjBDDvJQAoRoMBM35TBm7+tQLD4i7/F367BS4Pu
QF3zqsAT+oPBiLnBQJgjsb8LIZzB03LuQKXXSMCoV4zB/3nIQHG2MMDG3p3B8pHVQCsWacCD65TB
rRC1QAEVDL9DnqTBfx/7QMOVfsDE2IPB0E/XQHV0YEDDVZfBQwSJQPVhYkCa/JfBEpXYQG15eEAL
N6PBTx2wQGwXV0AlIqnBKq+rQNeFhEArybPBUPWtQB0VRUBhf4bBZHMQQdE+icAlL2bBka2sQHej
Zj/7L6LBs42zQJ7T6z9B7avBvZivQA0OXECABpLBvwCJQE7KZ0B4iaLBWuFCQJYuX0Ac3ZLB1y/5
QMG3UkAdrJLBN9kJQZmcWsC4eXfBpNevQIkHOMDZkLjBUzDMQKZC3MC7eozBQ6XHQJbwisDEtKnB
iB22QI6hrMBMWZvBdciiQK6M6779T7XBXQr4QCPnv8BHEHvBs0rGQPbnd799PJTB59H3QAZQBsAX
T4zBognaQK9Hn0Ax9qPBTjj1QBMEXECj5KbBwTSPQAB1ckCOHrjBDGOoQN3kpkBkE7LB8VLIQCRf
fkCWubjBaX2MQPDlRECExYPBNeO7QLwXBUC2V4XBwUvAQIE+dECv14HBmP8ZQa3rbcCEkFrBnjYC
QT5llsDyMV7BWyYaQZGZo8Apq2zB1lWLQHJCgD8xfJ/B3WfCQEyLmz+PvJvBSzebQLqlzT+M/7HB
WJrTQNRt0z8bO6/B3p9bQA2nd0CKQqbBZ/AMQH7+YEDFKZfBVQZAQLwSW0Bh44rBfMu0QEiSHcCg
rbDBgsHVQPHehMC7wIHB+x3CQJp8UsCfNajB4QPJQBGPVMBrPYrB27qtQLj/i78j6q7BujPvQIwg
qcCNv4PBNpTBQLHzr7/1KJzBImLvQK83mMDeypbBf1jIQHccMMBu2J3B67XVQHebZ8B62ZTB4ey0
QJINC79Mq6TBdkL8QMsUs8A3WI7BVUXXQExyYED/VZfBQfqIQORBYkDj/JfBv4nYQG+deECBNqPB
LxSwQJ5IV0CsJKnBUqCrQJi2hEDAx7PBuu+tQHPLRED7gIbBgjIRQcMC8sCRRIjBvousQA6SZz9r
QaLBN5KzQLZW7D9K+avBAY+vQJnsW0D9BpLBnPWIQKzQZ0CpiaLBP85CQEDgXkCB3ZLBsib5QIm+
UkBzrJLBT7cKQS021sAI8pDBIf6vQFtdOMA7jbjBmfvLQNblesAQWnPBGKLHQPrjisC6nqnBwXi1
QDz2HMA3qojB79CiQLlC7b7HYLXBi9r4QON7vcCGZHrBTCPGQOxgdL89SJTBukH5QHyIn8Ar3p7B
RfvZQA1bn0D+8aPBEC/1QIw5XEAy5abBHCiPQDnfckC/HrjB/kyoQMoQp0DQDLLB/0TIQIDkfkAM
ubjBWHiMQACHREC/xoPBiuO7QB7PBEDkXIXB0ELAQHLrc0D51oHBowQbQXEnBsFkcovBjJYaQbyX
38Cka4LBv+gCQTRB/8CoVoTBNiqLQD3OgD+glZ/B1i7CQEfwmz+vyJvBQFObQNJdzj90ErLBiKvT
QBMN1D88QK/BP4RbQFWud0BzQabBgNwMQPCsYEAIKpfB//Q/QG6mWkAC5IrB

>  <OMEGA_E>  (7) 
kOoeP2ZlNz9CZzc/SmY3Pw==

>  <OMEGA_NBR>  (7) 
      5433

$$$$
