408873
     RDKit          3D

 50 53  0  0  1  0  0  0  0  0999 V2000
    7.0052    5.1330  -23.8736 C   0  0  0  0  0  0  0  0  0  0  0  0
    5.6264    4.8898  -23.7341 C   0  0  0  0  0  0  0  0  0  0  0  0
    7.9254    4.4613  -23.0484 C   0  0  0  0  0  0  0  0  0  0  0  0
    6.6221   -0.9118  -22.7541 C   0  0  0  0  0  0  0  0  0  0  0  0
    4.9273   -4.5771  -18.5864 C   0  0  0  0  0  0  0  0  0  0  0  0
    6.0769   -1.8951  -21.9072 C   0  0  0  0  0  0  0  0  0  0  0  0
    5.4424   -3.6897  -19.5480 C   0  0  0  0  0  0  0  0  0  0  0  0
    5.1644    3.9816  -22.7645 C   0  0  0  0  0  0  0  0  0  0  0  0
    7.4683    3.5591  -22.0717 C   0  0  0  0  0  0  0  0  0  0  0  0
    6.4338    0.4545  -22.4694 C   0  0  0  0  0  0  0  0  0  0  0  0
    3.7074   -4.2956  -17.9404 C   0  0  0  0  0  0  0  0  0  0  0  0
    5.1320   -0.1450  -20.5032 C   0  0  0  0  0  0  0  0  0  0  0  0
    3.5055   -2.2391  -19.2256 C   0  0  0  0  0  0  0  0  0  0  0  0
    5.3141   -1.5109  -20.7830 C   0  0  0  0  0  0  0  0  0  0  0  0
    4.7397   -2.5065  -19.8607 C   0  0  0  0  0  0  0  0  0  0  0  0
    6.0799    3.3237  -21.9034 C   0  0  0  0  0  0  0  0  0  0  0  0
    5.6934    0.8481  -21.3263 C   0  0  0  0  0  0  0  0  0  0  0  0
    2.9831   -3.1165  -18.2612 C   0  0  0  0  0  0  0  0  0  0  0  0
    6.3236    2.4566  -19.5350 C   0  0  0  0  0  0  0  0  0  0  0  0
    4.1448    3.0962  -19.2011 C   0  0  0  0  0  0  0  0  0  0  0  0
    5.5809    2.3040  -20.8685 C   0  0  1  0  0  0  0  0  0  0  0  0
    5.7038    3.2031  -17.2082 C   0  0  0  0  0  0  0  0  0  0  0  0
    1.2876   -3.6033  -16.6057 C   0  0  0  0  0  0  0  0  0  0  0  0
    4.1859    2.6042  -20.4989 N   0  0  0  0  0  0  0  0  0  0  0  0
    5.4261    3.0229  -18.6401 N   0  0  0  0  0  0  0  0  0  0  0  0
    3.0662    3.5471  -18.6137 N   0  0  0  0  0  0  0  0  0  0  0  0
    7.4570    2.0689  -19.2697 O   0  0  0  0  0  0  0  0  0  0  0  0
    1.7800   -2.7563  -17.6677 O   0  0  0  0  0  0  0  0  0  0  0  0
    7.3571    5.8356  -24.6145 H   0  0  0  0  0  0  0  0  0  0  0  0
    4.9215    5.4014  -24.3726 H   0  0  0  0  0  0  0  0  0  0  0  0
    8.9843    4.6390  -23.1652 H   0  0  0  0  0  0  0  0  0  0  0  0
    7.1873   -1.2064  -23.6260 H   0  0  0  0  0  0  0  0  0  0  0  0
    5.4694   -5.4786  -18.3419 H   0  0  0  0  0  0  0  0  0  0  0  0
    6.2418   -2.9417  -22.1170 H   0  0  0  0  0  0  0  0  0  0  0  0
    6.3741   -3.9133  -20.0464 H   0  0  0  0  0  0  0  0  0  0  0  0
    4.1065    3.7839  -22.6751 H   0  0  0  0  0  0  0  0  0  0  0  0
    8.1797    3.0415  -21.4452 H   0  0  0  0  0  0  0  0  0  0  0  0
    6.8543    1.2041  -23.1234 H   0  0  0  0  0  0  0  0  0  0  0  0
    3.3213   -4.9788  -17.1984 H   0  0  0  0  0  0  0  0  0  0  0  0
    4.5509    0.1468  -19.6409 H   0  0  0  0  0  0  0  0  0  0  0  0
    2.9558   -1.3467  -19.4859 H   0  0  0  0  0  0  0  0  0  0  0  0
    4.8357    3.6720  -16.7219 H   0  0  0  0  0  0  0  0  0  0  0  0
    5.8979    2.2237  -16.7465 H   0  0  0  0  0  0  0  0  0  0  0  0
    6.5861    3.8482  -17.0843 H   0  0  0  0  0  0  0  0  0  0  0  0
    0.3343   -3.2037  -16.2295 H   0  0  0  0  0  0  0  0  0  0  0  0
    1.1315   -4.6215  -16.9915 H   0  0  0  0  0  0  0  0  0  0  0  0
    2.0223   -3.6298  -15.7875 H   0  0  0  0  0  0  0  0  0  0  0  0
    3.3913    2.4735  -21.0917 H   0  0  0  0  0  0  0  0  0  0  0  0
    3.1125    3.8827  -17.6728 H   0  0  0  0  0  0  0  0  0  0  0  0
    2.1956    3.5562  -19.1055 H   0  0  0  0  0  0  0  0  0  0  0  0
  1  2  2  0
  1  3  1  0
  2  8  1  0
  3  9  2  0
  4  6  2  0
  4 10  1  0
  5  7  2  0
  5 11  1  0
  6 14  1  0
  7 15  1  0
  8 16  2  0
  9 16  1  0
 10 17  2  0
 11 18  2  0
 12 14  2  0
 12 17  1  0
 13 15  2  0
 13 18  1  0
 14 15  1  0
 21 16  1  6
 17 21  1  0
 18 28  1  0
 19 21  1  0
 19 25  1  0
 19 27  2  0
 20 24  1  0
 20 25  1  0
 20 26  2  0
 21 24  1  0
 22 25  1  0
 23 28  1  0
  1 29  1  0
  2 30  1  0
  3 31  1  0
  4 32  1  0
  5 33  1  0
  6 34  1  0
  7 35  1  0
  8 36  1  0
  9 37  1  0
 10 38  1  0
 11 39  1  0
 12 40  1  0
 13 41  1  0
 22 42  1  0
 22 43  1  0
 22 44  1  0
 23 45  1  0
 23 46  1  0
 23 47  1  0
 24 48  1  0
 26 49  1  0
 26 50  1  0
M  CHG  1  26   1
M  END
>  <OMEGA_C>  (1) 
YirgQIhBpEAc/b7BZQu0QEh5nEBp373BAp39QD3DjkANY7jBFujTQDxrab9dCLbBTqydQEV3ksDl
sJTB33XCQDiU8r/0Qa/B9ieuQOIjbMBYYpzBDkOlQHHSfkDAHbbBlvzuQPzHY0DxkrDBXeHNQMW2
6D5WwbPBSEVtQD51icDuhY/BlDmkQDeFFL52BqTBEVpgQBhOD8APzpnBtAyqQO1lwb+AQ6bBrquX
QPlpIMCr4p7Bg47CQOG3VEAYOq/BhjC2QDAfWT89nKrBees+QCR1R8ABF5LB8lrKQJY4HUDCR5zB
+aGEQOInRkDZm5nBc5ayQER0E0DE8qbBqoW2QEH/TEBtqonB8M+kP26cZsB52ITBR/OFQI+qJkCv
/aPBYaKtQKB3QUACH5XB0DxEQDAEY0DD6JTBZ5/uQBJoBEBqKJrBE9jjP85mMMCMV43BxG3rQAG9
ukBv6sTB1HydQIHYrEAs+8LBpb8PQVtylEA7UrnBCv7lQEtrmr/6Ab3BeQWvQG5Qr8AyvJLB6LzH
QBNEPMCr77DBP/jLQJBzesAEX6DBGmiDQCgrckCmZrXB4t8CQbinQkDbj6vBNlbbQDcgmj+u/LjB
8pBUQKNSn8BblonBoaCRQIBeFj6cIJ3BJiw9QLJfrL8h45vB3L2aQN0Ba0CMxoXBzru8QNtRDkC7
+IXBZ8HSQEJJdkCsrIjBwSmrPpUJTcDr1YHBB9SQP5Ljk8CO7ofBDm4BQEdPaMCemXzBggpZQFRO
HkDAu6jBZjJHQCp+eEDXYY3BoYQMQFKZY0Ah2JjBXezfQGxio0AzEr/BM3P9QPfBjUCLhLjBR8qz
QOn0m0Dr173Bn1PTQOfxbL+T9rXBwTmfQMGykcByIZTBggbCQPA79L+bKa/BFjevQBYxa8DX9ZvB
xeTuQDFRYkBqobDBzBWlQHEffkARCrbBh1vNQKCm4T7arrPB2E9vQGFdicCQI4/B0NujQPdsIL7L
6qPBz4xfQJylEcA23JnBlMSpQILvwr/uJqbBDM2XQIE3IcDnup7BDXXCQN7UU0D8L6/BDtO1QKEd
Vj82hKrBvsk+QNyAScBtEZLBcXPKQCSjHEDQN5zBXOuEQKTZRkC7h5nBUYGyQO/TEkAY3abBfeu2
QHVWTUCrm4nBtAGnP3s2ZsAkl4TBKveFQDSFJkA036PBJ+OtQN5DQUAcDJXBJkRFQCv/ZEB92pTB
HsfuQIz7A0CeIZrBurrfPzSlNMB4rY3BpCLrQC2xuUCXC8XBy6sPQT0gk0Cji7nBqCmdQDh5rEAr
58LBjELlQDlAnL8b9rzB81mxQE7IrcBg75HB/EzHQGgaPcDi1bDBEFnNQOGgeMD115/BQtsCQekt
QUDJoqvBlTeDQOLccUD9QbXB+r7aQG5DmD/A7rjBH3xXQPzgnsCHEYnBITuRQMOFCj5JBp3Btvo6
QHXrs79+KZzBIjObQLCVa0A9uIXBdia9QMHUDkD63oXBvC7TQDugdkB/q4jBcu2jPr/+TsDv8oHB
ti2dP3IBlcAr4YbBudgBQI9mX8C+CnzBA9hYQOHqHUCykajBWZVIQIjnekAkWY3BAIkNQMAhZkC3
yJjBe9DiQHRznkCHjL/BgID/QIc1iUC5sbjB+Wu2QHYrmUCmM77BbpjHQKZ7R79qSrjBcserQNl+
icAcVJLB4nu+QE0i6L9yHLHB6BqdQGgTVMDliJnBudjvQO4HXkACbbDBG5mmQMjefUD99LXBAvfC
QDY3Dj8GDrXBruzXQIzHjMAo6I/BFAyqQBQIO76KhaPBu/XmQA4GJMCO85vB/rWwQAHQwb8iq6bB
TVG7QPiFHsA1fp7B7iPDQCBBVEA31q7BEoG0QIFZXj8hlarBmrL1QDrIX8Cwa5TBFNbJQIJyHUBW
4pvBj1uEQHaOSEANapnBJCGyQDjYE0DHkqbBRVW2QAxaU0AagonBMjIcQaK4EsAcFJLB5Z+FQK4a
J0DdsKPBEU6tQMoXREAq4pTBXs5DQNwkZ0Do3ZTBmC/uQPRjBUCttZnB/yMQQVpjYsAoNZHBMNzu
QN/QskC52MXBkskQQasEjUApyLnBNnGgQNdMqUD1gsPBtSzSQNUKgb85T8DBIUOVQOsrn8AspI7B
HAbCQIPpNcDnlbPBYcB2QDouTcByNZvBLQIDQWn5PEBfPqvB9YCEQF07dUB0C7XBunbKQJscrT+h
k7rBivTiQH2WpcCaj4rB0/ScQA/qFD1CuJvBX3r9QGWR87+u1Z/BwZ+aQJm4ckCXwYXBuYi8QFjs
FUCpf4XBAJ3SQDrUfEAxwIjBC7IsQVMvHcAMT4/B3mkcQT0/+78weZrBmZAUQR6Lwr98HI3BaGJY
QFKZHUAMZqjBrbBGQGBffkDLa43BGD0MQPVMZ0D+1ZjBQNTiQDXbnkAaUr/BWZW2QLxml0D8Zr7B
bV7/QI9ni0BZG7jB4n7GQGpiRr98eLjBTl+fQIeihsCrzZHBtqm8QGnL6L/OdLHBUSmVQMIQSsDd
6pjB2sWmQOKDeUBFPLbBAbbvQFC6YUAZ56/B6cHCQO+kDT93CLXBrETKQGiXlMBPsJDBExepQODY
Vr7xmaPBPtLgQOIXQMBbyJ3B8yivQGn/xL+O8qbBMDS2QIzVJMCCA5/BLRLDQFa3U0C8uK7BLiG0
QNxNWj/bjKrBajzrQC+ugMAunpbBRV/JQJUuG0B6u5vBDhCEQFrfR0DNaZnB+/axQLrQEkBTfKbB
n0m2QHQPV0B4nYnBHugVQQBvfsCakIzBMW2FQL7oJkAbtaPBIHqrQEgcOUDia5TBB/FEQP41bEBg
IZXBhw3uQFLTBEAQoZnBnqcKQWvYjcB3+ZXBHd/uQK+As0Crj8XB3LOgQEYqpkC1+sPBOK4QQSja
kEDy3bjBNvPQQE/dfb9zhcDBCVyGQF3BlcBYMY3BT26/QKn0NcDkGrTBzDlpQICfM8Cjq5nBgdSE
QMFJbUCBrrXB7+oCQWJgQ0DWdKrBDBbLQBbDrT8xabrBjM3RQLiDrsBPS4vB+ROcQNqvl7rrxZvB
98n5QHomIsBPcKLBePKYQAxGa0AndoXB9YvFQPXOIkAfHoXBRXrMQIrDhkAoLIrBx3MmQYYyi8A2
vYzBmgsWQXQLOMCobIzBj8kNQaRIi8AUXYXBsTlYQCk1HkCeeqjBRwBHQExHgEC+jI3BCoUPQEml
c0DKb5nBHmvqQPTxnEC5H7/Bz08BQZOndkATsLrBFzzAQLU2pEB3nLvBq8GsQPSYUb8cl7jBl5uo
QL5Em8AccZfBj6GwQNGn7L/f/bDBp9OkQKrEdsAqVJ/BMKvwQMD4QUCsubLB8SSuQID4iUBqqbPB
GpKtQBwCBz/zT7XBimDAQExbk8DmEY7B8hi1QJRyPL4jyKLBNA/RQCB1F8CWf5TBw860QFCWxL+4
A6bB7Oq4QE2UJsC94J3BIDrGQCAaUEC0Hq/Bdf6yQK6kWz95XarBHsvUQAojV8DhfYzBIlTKQB09
IUAV75vBP4iDQFvwREDbWJnBZ7SyQBmOFEB/oqbB/0i0QC9ISkDOHYnBngEAQaEB8b9/eIHB8kKG
QIqWK0Dj/qPBRVSsQLvKQEAmrZTBBxtAQPNVXUCHp5TB9OLvQAc4EEB8/5nBdtnrQNc+S8D4FYPB
vzj4QNUosUArOcXB0HsRQSl+a0C3ZL3BZ7etQED/vUDpBr/BzSWpQL/Yh78I9sDB9T+ZQGnlucC3
kpjBMmqwQDxaOMA2jLPBFY6SQBmNgcCkf6bBc6sBQY17DkDcV6/BWMKNQPetj0ASAbHBAQuqQAkf
qD/OK7vBYv/CQMT2q8DpCYjBZfW2QOPJZj0SX5rBatngQGQltb98bZPB14+XQBlzZEB/OIXBP967
QIlkC0A2pYXBTmDPQJMUdkBe2ofBOn8IQb2S8L9khnPBl3ULQSmz2L9B+ofBe2XnQMlcjL92c4HB
bFFbQChYKUCGGqnBgfVAQIBmb0D++ozBNiAJQHHhXUC1v5jBtIPnQA3jnUA6kr/B1xu7QN7alkAo
6b7Bsp4BQWTUiUDGQbjBG22tQJAnUb/ki7jB4guqQGKMm8CPsZfBGX6xQNH067/k77DB1iimQAdV
dsBYbZ/BGUqqQH0KeUB2zbbBg6DyQJjHXUCnQLDBmHWuQDZ6Bz+5TbXBze7BQGlklMB4U47BQF22
QD9hNL6ewaLBNUzSQO40GMCJZ5TBZQi2QBOXw7+596XBDDi6QI9FJsD32J3Buc3FQJesUUDQOK/B
yvqzQBS3XT/vXKrBmVrWQOfGWMCdmYzBoaXKQOW3IUBu1JvBMOeDQDaeRUDaW5nBn1+zQOo1FUDR
oqbBfV60QE2aS0DbF4nBz6vyQIhuhMBwKHfBYd+GQJV+LEBTA6TBZqCsQDUyQkDdqZTB5ZJAQCov
XUDEqZTB1YvvQFmRDUCgl5nBpYruQOAkRsByj4PBKU30QGarskCOsMXB7ualQJGxpUDcosTBw6kS
QQ8fj0CiybjByH+pQDP/h78h58DBt6CaQOIRusAx8pjBUCaxQCkNOMD4eLPB6seTQPThgMBtmqbB
GC+IQPp8bkD9V7bBKBUEQcxaPUCj2KrBLgarQLsLqD/DL7vB2cHEQAlyrcCkaojBMnm4QH9ohz1h
WprBIcDhQFJYtr/9K5PB/7yXQFueZkDmPoXBX227QK+MDEB3mYXBqbvPQHOndkDty4fB8T0DQZqU
ccBz02nBB8TSQLgpjcDmI3HBWPIAQVuvoMBEY37BILhcQG2EKkBFJqnBxjFBQN0Hb0Aa+4zBFp8J
QApQXUCNw5jB

>  <OMEGA_E>  (1) 
AAAAAAAAAACgBzM/qFosPzYNQD8A8j0/

>  <OMEGA_NBR>  (1) 
      8789

$$$$
50215526
     RDKit          3D

 50 53  0  0  1  0  0  0  0  0999 V2000
    4.3828    3.8633  -17.8873 C   0  0  0  0  0  0  0  0  0  0  0  0
    3.4661    3.6186  -18.9265 C   0  0  0  0  0  0  0  0  0  0  0  0
    5.7567    3.6403  -18.0912 C   0  0  0  0  0  0  0  0  0  0  0  0
    6.8996   -0.9975  -22.9483 C   0  0  0  0  0  0  0  0  0  0  0  0
    3.1163   -2.4634  -18.3757 C   0  0  0  0  0  0  0  0  0  0  0  0
    6.3868   -1.8079  -21.9188 C   0  0  0  0  0  0  0  0  0  0  0  0
    3.7320   -1.7075  -19.3837 C   0  0  0  0  0  0  0  0  0  0  0  0
    3.9245    3.1842  -20.1820 C   0  0  0  0  0  0  0  0  0  0  0  0
    6.2189    3.1965  -19.3417 C   0  0  0  0  0  0  0  0  0  0  0  0
    6.7316    0.3993  -22.8957 C   0  0  0  0  0  0  0  0  0  0  0  0
    3.8075   -3.5330  -17.7825 C   0  0  0  0  0  0  0  0  0  0  0  0
    5.5315    0.1753  -20.7912 C   0  0  0  0  0  0  0  0  0  0  0  0
    5.7288   -3.1034  -19.2270 C   0  0  0  0  0  0  0  0  0  0  0  0
    5.6788   -1.2166  -20.8513 C   0  0  0  0  0  0  0  0  0  0  0  0
    5.0382   -2.0292  -19.8153 C   0  0  0  0  0  0  0  0  0  0  0  0
    5.3130    3.0087  -20.4156 C   0  0  0  0  0  0  0  0  0  0  0  0
    6.0689    0.9995  -21.7973 C   0  0  0  0  0  0  0  0  0  0  0  0
    5.1182   -3.8525  -18.1890 C   0  0  0  0  0  0  0  0  0  0  0  0
    7.0463    3.2861  -22.2062 C   0  0  0  0  0  0  0  0  0  0  0  0
    5.3363    3.6980  -23.6598 C   0  0  0  0  0  0  0  0  0  0  0  0
    5.8180    2.5040  -21.7757 C   0  0  2  0  0  0  0  0  0  0  0  0
    7.5413    4.8287  -24.1125 C   0  0  0  0  0  0  0  0  0  0  0  0
    7.1816   -4.9903  -17.6933 C   0  0  0  0  0  0  0  0  0  0  0  0
    6.6196    4.0859  -23.2491 N   0  0  0  0  0  0  0  0  0  0  0  0
    4.8451    2.8109  -22.8304 N   0  0  0  0  0  0  0  0  0  0  0  0
    4.6791    4.1518  -24.7920 N   0  0  0  0  0  0  0  0  0  0  0  0
    8.1916    3.1912  -21.7770 O   0  0  0  0  0  0  0  0  0  0  0  0
    5.7494   -4.8935  -17.5319 O   0  0  0  0  0  0  0  0  0  0  0  0
    4.0310    4.2229  -16.9316 H   0  0  0  0  0  0  0  0  0  0  0  0
    2.4092    3.7647  -18.7590 H   0  0  0  0  0  0  0  0  0  0  0  0
    6.4565    3.8103  -17.2863 H   0  0  0  0  0  0  0  0  0  0  0  0
    7.4224   -1.4473  -23.7795 H   0  0  0  0  0  0  0  0  0  0  0  0
    2.1128   -2.2238  -18.0561 H   0  0  0  0  0  0  0  0  0  0  0  0
    6.5344   -2.8774  -21.9456 H   0  0  0  0  0  0  0  0  0  0  0  0
    3.2062   -0.8770  -19.8313 H   0  0  0  0  0  0  0  0  0  0  0  0
    3.2167    2.9831  -20.9726 H   0  0  0  0  0  0  0  0  0  0  0  0
    7.2705    2.9973  -19.4855 H   0  0  0  0  0  0  0  0  0  0  0  0
    7.1101    1.0164  -23.6972 H   0  0  0  0  0  0  0  0  0  0  0  0
    3.3301   -4.1153  -17.0082 H   0  0  0  0  0  0  0  0  0  0  0  0
    4.9996    0.6207  -19.9635 H   0  0  0  0  0  0  0  0  0  0  0  0
    6.7226   -3.3576  -19.5649 H   0  0  0  0  0  0  0  0  0  0  0  0
    6.9678    5.3894  -24.8654 H   0  0  0  0  0  0  0  0  0  0  0  0
    8.1298    5.5301  -23.5029 H   0  0  0  0  0  0  0  0  0  0  0  0
    8.2186    4.1243  -24.6174 H   0  0  0  0  0  0  0  0  0  0  0  0
    7.5578   -5.8534  -17.1246 H   0  0  0  0  0  0  0  0  0  0  0  0
    7.4224   -5.1202  -18.7587 H   0  0  0  0  0  0  0  0  0  0  0  0
    7.6555   -4.0705  -17.3198 H   0  0  0  0  0  0  0  0  0  0  0  0
    3.9361    2.4009  -22.9054 H   0  0  0  0  0  0  0  0  0  0  0  0
    3.7710    3.7993  -25.0180 H   0  0  0  0  0  0  0  0  0  0  0  0
    5.1129    4.8318  -25.3831 H   0  0  0  0  0  0  0  0  0  0  0  0
  1  2  2  0
  1  3  1  0
  2  8  1  0
  3  9  2  0
  4  6  2  0
  4 10  1  0
  5  7  2  0
  5 11  1  0
  6 14  1  0
  7 15  1  0
  8 16  2  0
  9 16  1  0
 10 17  2  0
 11 18  2  0
 12 14  2  0
 12 17  1  0
 13 15  2  0
 13 18  1  0
 14 15  1  0
 21 16  1  1
 17 21  1  0
 18 28  1  0
 19 21  1  0
 19 24  1  0
 19 27  2  0
 20 24  1  0
 20 25  2  0
 20 26  1  0
 21 25  1  0
 22 24  1  0
 23 28  1  0
  1 29  1  0
  2 30  1  0
  3 31  1  0
  4 32  1  0
  5 33  1  0
  6 34  1  0
  7 35  1  0
  8 36  1  0
  9 37  1  0
 10 38  1  0
 11 39  1  0
 12 40  1  0
 13 41  1  0
 22 42  1  0
 22 43  1  0
 22 44  1  0
 23 45  1  0
 23 46  1  0
 23 47  1  0
 25 48  1  0
 26 49  1  0
 26 50  1  0
M  CHG  1  25   1
M  END
>  <OMEGA_C>  (2) 
wz+MQHNAd0A5GY/BTtRdQL+WZ0BhaZfB/za4QAX7aEDFupDBfMncQDRef78ulrfB5HBHQESoHcBZ
AZPBXmDMQLJn57+4Wa/BLNluQC6O2r/TEZvBTip7QADKS0DRdKHB0gDHQNqTTEDVu5rBcmnXQHh0
zD5iKrfBlq1zQAwcYsCFQo7BEgKxQBiAMz5dVKbBilK3QGyeRsDZ0JnBWbi1QAK6m795z6bBGDmh
QPLeAcC/hZ7BLASqQB+PQEA4U6PBzzTCQPLhfz/WYK7BV8ijQB6QdsD+gpHBjHvhQPxPUkBPprHB
xMKqQMCrbEBJR73BEC26QCxBIECfNK7BF1LxQMKEmkBs5sDBzc/lQCSwn8Dji43B3tPTQA/AgkAg
/rnBZAubQP/kM0CSpLbB7rqVQGbbhEAIVsbBqRADQbU8TEA4N67Byvq3QGeXnMA/QYzBz/2AQEsi
h0ADdIfBQDAaQHfwcEBtEpbBj5vOQMPbc0BiSorBV4TtQDVBub9VPL7B3zgHQOJSDsDLcpDBxxnR
QPgmOMCUkK/BrTJNQBeGYL+Hpp7BDt5NQK3qPkDmx6fBOajoQNrTP0BJ4pvB7IXjQD8agj/Ik73B
JyBVQDewg8DlEIjBtPyfQNjnHj9CtZ/Bax/XQJDjVsD7hJzBg/jeQI91rEBa7MbBiBMCQf32sEDn
BbzBdn8DQfv5g0CJ8MTBF9nxQDdPu8Ac/4jBiITtQMjYo8DeEZbBPfr0QMdBgsD2jorBIel7QP6o
GUArPrfBVFdxQMgnc0DwJMjBepyjQPydmkCoEMvB/KOLQAAweUB6D4/BGIK3QODSaEBqjJDBAzxd
QMxsa0AbfpfBKMnbQDInfb+JkrfBhuBGQJ5yH8ABBJPBPojLQPtb5r8rVK/ByOBtQH++3L9fC5vB
IIXGQJQgTEBHhprBhAB7QGo0T0Cif6HBkJ3WQFS50D6wGbfBI+hzQLRTY8B2QY7BzFmwQOA+Oz7U
PKbBjl63QIgwRsDBwpnBBhe1QP/gmr9sv6bBfuSgQGLZAcCxdZ7BHt6pQCGrQUBIOKPB+KTBQKn7
gD+zRq7BSQakQEDldsCyfZHBDPnhQEDJUUCnd7HBILerQN5EbUAaOr3BFi+6QC7xIEAkE67BQCbz
QAAdmUDq5cDB5N3kQIn0o8DHzI7BZiHVQE0BgkCn/LnB822bQJY8NUAelLbBnseWQI/zhUDIN8bB
uy4DQf9eS0B54K3B4FW4QFXTnMBPRIzBJjqAQOMriECmb4fBDqnNQAFQckASBorBxLcZQOePdkAh
RpbBQj3sQLASuL9TRL7BD1cGQPAWEcDofpDBrTXQQDGjN8DHkK/Bt6pLQLxKZr9kn57BHxboQB/2
PUAwkpvBvhtOQFHDQ0AW6afBl7biQDZRgz+sgb3B4b1VQNZuhMDODojBskefQEaAID9Pnp/B5E7X
QAeRVcCncZzBiT3hQNS1qkDaEMfBhOoCQUnPr0DHDrzB93UEQQwqgkD+wcTBKPTwQGg3v8DXH4rB
uBvoQOjvqsANY5fBQHX3QEIih8Dg0YzBOlJ8QIfcG0B6NbfByKRyQH0ud0BG98fBKiGlQIxdm0BL
9crBvCiSQD/UfECtTo/BRti8QPkLfUCU4pLB6ytjQMOCXEDp85XBKxTlQFCzcr9Bl7bBUAGsQOXN
hMDvE5PBJEnUQDyb5b9aqq7Baye9QNAKU8By6ZrBjgDHQJhdXUAUHZ3B8wF3QMAiPkBURKDBWOzZ
QIUv0z7FyLbBNSODQJy/ecCZ0I7BNd2sQMpbrz2ZE6fBraB4QGwJ+L/CQprBdL+3QNmgpL8p4abB
GX2lQAi2C8Dilp7B7lOmQDuxP0BUE6TBa4m+QE2kdD8e267BbrBVQBl0MsA+Y5LB9kDTQLiTU0A1
zbTBAlWVQBVrV0BMpr7B6FexQOwSHEDLSK/B9JvVQBH6k0BP/8XBsq7BP71yV8DUfYbBixC/QCWy
d0BQl73BalyMQF19JEDbkrbBWgFyQLxMakBU5cbBLUr5QFp/WkC7hLLB/XIEQEkNH8BzjI7BrGSK
QIG3ikBceIfBs9zVQAzJikDTxY3B0NchQMIAW0AJI5PBD6H6QKIgrL+qjbzBIEm+QGn6n8CfUZDB
GjXdQMyRNcDmg67BhZTcQKKfX8ALJZ7BDvrnQOGcW0DvsJ/Boa9EQBh0JUCwUqXBPFLmQBt0hj9q
B73BxE9sQNP9kcBey4jBr8OWQHPD8z7ZNqHBKiFUQLtNi7/rBp3BCXW+QMPfnkBNCszBaKDlQBzd
r0Boa8LBsJjtQBJvfkCOz8nBZjADP+awQMCyMoTBff23P1BYjMDyvYnBxLcKQLrKV8Dr1X7BK2hg
QB1NB0AdgrXBWWk3QGaOUEAH7MbBxuyBQLrPiEDkzMzB

>  <OMEGA_E>  (2) 
8FuBP75hgT/gzoc/

>  <OMEGA_NBR>  (2) 
    152773

$$$$
50215908
     RDKit          3D

 50 53  0  0  1  0  0  0  0  0999 V2000
    6.6057    5.2587  -24.2322 C   0  0  0  0  0  0  0  0  0  0  0  0
    7.5604    5.0013  -23.2310 C   0  0  0  0  0  0  0  0  0  0  0  0
    5.3060    4.7322  -24.1202 C   0  0  0  0  0  0  0  0  0  0  0  0
    6.7411   -0.4373  -22.7913 C   0  0  0  0  0  0  0  0  0  0  0  0
    5.6895   -4.1311  -18.4212 C   0  0  0  0  0  0  0  0  0  0  0  0
    6.3676   -1.4487  -21.8900 C   0  0  0  0  0  0  0  0  0  0  0  0
    6.1340   -3.1715  -19.3501 C   0  0  0  0  0  0  0  0  0  0  0  0
    7.2181    4.2184  -22.1149 C   0  0  0  0  0  0  0  0  0  0  0  0
    4.9598    3.9469  -23.0081 C   0  0  0  0  0  0  0  0  0  0  0  0
    6.4708    0.9114  -22.4931 C   0  0  0  0  0  0  0  0  0  0  0  0
    4.3740   -4.0721  -17.9181 C   0  0  0  0  0  0  0  0  0  0  0  0
    5.3963    0.2345  -20.4170 C   0  0  0  0  0  0  0  0  0  0  0  0
    3.9546   -2.0799  -19.2495 C   0  0  0  0  0  0  0  0  0  0  0  0
    5.6927   -1.1098  -20.7016 C   0  0  0  0  0  0  0  0  0  0  0  0
    5.2621   -2.1422  -19.7598 C   0  0  0  0  0  0  0  0  0  0  0  0
    5.9069    3.6952  -21.9838 C   0  0  0  0  0  0  0  0  0  0  0  0
    5.7940    1.2589  -21.2939 C   0  0  0  0  0  0  0  0  0  0  0  0
    3.4950   -3.0476  -18.3286 C   0  0  0  0  0  0  0  0  0  0  0  0
    6.2919    2.9821  -19.5587 C   0  0  0  0  0  0  0  0  0  0  0  0
    4.0723    3.4530  -19.3008 C   0  0  0  0  0  0  0  0  0  0  0  0
    5.5554    2.7089  -20.8676 C   0  0  1  0  0  0  0  0  0  0  0  0
    5.5756    3.8292  -17.2980 C   0  0  0  0  0  0  0  0  0  0  0  0
    1.3462   -1.9376  -18.1975 C   0  0  0  0  0  0  0  0  0  0  0  0
    5.3058    3.3259  -18.6499 N   0  0  0  0  0  0  0  0  0  0  0  0
    4.1425    2.8994  -20.4880 N   0  0  0  0  0  0  0  0  0  0  0  0
    2.9258    4.0243  -18.7696 N   0  0  0  0  0  0  0  0  0  0  0  0
    7.4717    2.7662  -19.3018 O   0  0  0  0  0  0  0  0  0  0  0  0
    2.2095   -3.0369  -17.8069 O   0  0  0  0  0  0  0  0  0  0  0  0
    6.8712    5.8615  -25.0881 H   0  0  0  0  0  0  0  0  0  0  0  0
    8.5577    5.4059  -23.3203 H   0  0  0  0  0  0  0  0  0  0  0  0
    4.5744    4.9318  -24.8892 H   0  0  0  0  0  0  0  0  0  0  0  0
    7.2368   -0.6956  -23.7154 H   0  0  0  0  0  0  0  0  0  0  0  0
    6.3575   -4.9140  -18.0935 H   0  0  0  0  0  0  0  0  0  0  0  0
    6.5973   -2.4813  -22.1077 H   0  0  0  0  0  0  0  0  0  0  0  0
    7.1372   -3.2233  -19.7466 H   0  0  0  0  0  0  0  0  0  0  0  0
    7.9571    4.0145  -21.3541 H   0  0  0  0  0  0  0  0  0  0  0  0
    3.9655    3.5320  -22.9330 H   0  0  0  0  0  0  0  0  0  0  0  0
    6.7796    1.6858  -23.1795 H   0  0  0  0  0  0  0  0  0  0  0  0
    4.0362   -4.8169  -17.2127 H   0  0  0  0  0  0  0  0  0  0  0  0
    4.8573    0.4832  -19.5148 H   0  0  0  0  0  0  0  0  0  0  0  0
    3.2948   -1.2849  -19.5641 H   0  0  0  0  0  0  0  0  0  0  0  0
    4.6238    4.0260  -16.7828 H   0  0  0  0  0  0  0  0  0  0  0  0
    6.1488    3.0780  -16.7348 H   0  0  0  0  0  0  0  0  0  0  0  0
    6.1567    4.7609  -17.3629 H   0  0  0  0  0  0  0  0  0  0  0  0
    0.3642   -2.0527  -17.7154 H   0  0  0  0  0  0  0  0  0  0  0  0
    1.7995   -0.9860  -17.8832 H   0  0  0  0  0  0  0  0  0  0  0  0
    1.2205   -1.9407  -19.2903 H   0  0  0  0  0  0  0  0  0  0  0  0
    3.3563    2.6448  -21.0511 H   0  0  0  0  0  0  0  0  0  0  0  0
    2.0786    4.0315  -19.3008 H   0  0  0  0  0  0  0  0  0  0  0  0
    2.9463    4.4290  -17.8554 H   0  0  0  0  0  0  0  0  0  0  0  0
  1  2  2  0
  1  3  1  0
  2  8  1  0
  3  9  2  0
  4  6  2  0
  4 10  1  0
  5  7  2  0
  5 11  1  0
  6 14  1  0
  7 15  1  0
  8 16  2  0
  9 16  1  0
 10 17  2  0
 11 18  2  0
 12 14  2  0
 12 17  1  0
 13 15  2  0
 13 18  1  0
 14 15  1  0
 21 16  1  6
 17 21  1  0
 18 28  1  0
 19 21  1  0
 19 24  1  0
 19 27  2  0
 20 24  1  0
 20 25  2  0
 20 26  1  0
 21 25  1  0
 22 24  1  0
 23 28  1  0
  1 29  1  0
  2 30  1  0
  3 31  1  0
  4 32  1  0
  5 33  1  0
  6 34  1  0
  7 35  1  0
  8 36  1  0
  9 37  1  0
 10 38  1  0
 11 39  1  0
 12 40  1  0
 13 41  1  0
 22 42  1  0
 22 43  1  0
 22 44  1  0
 23 45  1  0
 23 46  1  0
 23 47  1  0
 25 48  1  0
 26 49  1  0
 26 50  1  0
M  CHG  1  25   1
M  END
>  <OMEGA_C>  (3) 
+GHTQHBHqECa28HBee7xQKIKoEAw2bnB7MqpQFZul0At9sDBxLbXQJzh376oVLbBnhC2QE8yhMCk
XpPBvsPLQEpuub+kHq/BbknEQBv5SsDxzJrBBfvmQBL9hkBh67DBkLaeQE+ZfECHELjBlxDPQGVO
aT/F8bPBpPeLQFtOgsA5WI/Bva6sQKgqcD73VaPBkhh9QC4dBcDx/pnBjiq2QF4Mjr/jnKXBwmKo
QDIZCcAjFJ7BNQW9QO9+bEC83q/BXmi5QEokoT/yWarBbq5fQM8LQ8ASoZLBBFfJQAHbPkA2eJzB
XFCCQDz+XED/Z5rB+sWxQMpeLUDb8KbBAGuyQJYRdUBLYorBpk6sPzQE+L+NlJHBe8mpQMbbVEAL
M5XBEY+EQDGQOUBb56PBR0A7QM/GgEAeKJbBCxjvQKQIMUAAaprBMmgNQEFdQsCEdI7BOeHbQJiR
u0BvtMjBWuwIQXr9rEAJkLrBi2GSQCHRnUAIHcfBqZPnQCMQMr80ub3BPnDLQG4/ncBnv5DBSR3T
QOvMHsCn3LDB6WPkQNZKTsAI+Z3BVqD+QMR2gEBF1arBIsp9QMoMYkC5drfBi/LYQDTI1z+vb7nB
6SiBQEUkmsCss4nBpW6bQBRg9z47HpzBJ95SQJl2pL8zg5zBRPaTQKfUgEAcQ4bBtsLEQEX+REDq
4IXBggPFQGZZmEA054rBk3S6PolfA8AZuY3BJ1fmP0hofL/fEI/BWjqcP6Zo+L+bUprB+M1WQARE
KUCtaKjBJQcFQDICgUDyZ5rBao88QBW6jUDK147BRYHZQIhzpUCw8MHBzSGvQAaIlkD4O8HBmbH2
QJonnUDjnrnBK+/TQPDgur5iH7fBBZG/QMgjgMDn2pTB3/jEQIQRsb+Va7DBap3GQLoQQsBesJzB
peShQFCifkBtNbjBT5fpQNb9hUAvj7DBoPvNQB4Mej9CNLTBTAqYQFzmgcBgjI/Bnj6oQDGEjz6Z
EaTBcsx9QKwqCMAorJnBZMivQKo0h78H06bBb2mmQPkZBsBSFp/Bi9a+QNt1bkDctq/Bpp23QKbX
pz8qqKrBojRuQIklSMAJApLBsqDIQF8sPkBgSZzB8oWBQNdQXkCAdZrB2baxQGkLMECJ7KbBHNCw
QFDWc0D4NorB9oQMQEyBiMBNM4bBaM6oQLDFVUCjKJXBdICEQLHJPkD+JaTB6FM4QHBwf0BrJJbB
w8jtQJJzLEAeBprB6A0eQCwLSsDnSo3B46rjQG1St0Cj4sjBXM2YQKHunECrocfBzJsLQRqcqECk
M7rB2gDkQIBmHL+1g77BB3rYQOHElsDQ45LB06jJQFHCGsB8mbLB38TkQDb/P8AE56DBrnSBQNEW
Z0Cpu7fBYRMAQXvXfkBBOarBuXraQGGP4T+hPrnB25OSQNAgmsBTionBH6CWQO+fBD8k4pzB1WNN
QOCcsb+dZpvBECqSQM8jgUAASIbBB63BQETBQUCLsIXBkZzEQDcBl0B6eIrBtmiWP1mHhcCFAIPB
hVsSQIm9psCdpYrBm6w6QIFAiMCTHH/BW1tXQPWFMkBi9ajBxpoCQNAcgEAsfZrB5Cc4QNJFi0CP
ro7BAjTQQAvKp0BgIsLBr6WnQLyplEDXKcHBsIzvQJsAoUD9OrrBG5/ZQOhlB7/pKLXBUQdCQPU0
LcD4w5LBM0vJQOo2wL/4Gq7BJe5mQAjt67+iTJrBFVieQOvKdUD8Q7jB5VPmQNhnh0BOSLHBqrXS
QEhYVz9DHbPBlmxyQOvncMCigo7Bw3mrQAp8hj47+KLBdBm2QNltR8CCmpnBQ46xQMIgjL8WFKXB
S/6dQN03A8B9vp3B+0u9QLN5aUCQHrDB8jO7QEz3nj838KnBYNujQHE4fsBPypHB3LzKQN4GQUDs
g5zBu/yCQPpdV0DVN5rBqEyzQLObLED26qbBXuayQDNecEA3MIrB9MvmQL+RpMDLnY/BPdaqQIxL
UkA3IJXBhu+FQCrsN0D16KPBlrE6QISndUBwu5XBdOLwQOhkN0DNi5rB4/25QCBIoMDr+IzB507X
QEm8u0B69sjBPbGPQCPMmUDqQcfBYmAHQYF/r0CBC7vBeXfrQKQxVb/pJbzBIZsAQGTDI8BiPZDB
sOjOQI5BI8DzmK/BnEJCQLFWgr/IeZ3BbNl+QK9YV0ASn7fB6JP+QIT0gUB6R6vB3EvfQAnvyj/5
hrjBxwFWQF2VjcAnq4jBi2CaQOHcDz9r2pvBZWrWQKYjUsCeW5zBHUGUQFkheUD1/4XBxFzGQOXQ
QEAR5YXBziPEQDXalkBreIrBGmf0QP37v8D7RIvBaDnqQMXHqcDyRpjBm+H3QOwyh8BaUY3BGQta
QHqfKUABmqjBKVcEQDFOdEDW85nB4746QM1shkCuRo7BFs7PQJk6p0AiOcLBFEzvQIKFoEDbWbrB
fzWnQDNBlEAbLMHBufnZQBpkBr/bF7XBQZRAQJoqLsC9JJPBndHJQEnvv7/MB67BzpVmQFZi7b9I
j5rBLy3mQM8sh0AMWrHB4QSeQBFpdUBbOrjB8N/SQMYWWD+lDbPBvZ5wQIJoccA+uI7B7cKrQGEa
hj4A5qLBOB62QE9HR8AYdZnBjgeyQCYtjL/oAaXBPCqeQD9pA8DWv53BNB29QMdRaUAoHLDBtVu7
QDQanz9f36nB+U6jQMgxfsBEvJHBss3KQLqLQUADf5zBYwyDQBSnV0AvK5rBuEmzQDCuLECO36bB
8gyzQGEucUCBLIrBwsXlQHxTpcCeeI/Bs/GqQKjkUkAjGZXB3++FQC7MN0Aj16PBNNU6QJ75dUDm
rZXBrPPwQMfXN0CeiJrBvB65QN0ooMD+xozBStTWQF//ukDPFsnBWkQHQZjirkCyOrvBTiOPQKhW
mUCEPcfBL9brQCCtU7+eFbzB0iL9PytBJcAY1pDB35rPQO8RI8Cfg6/BYjhCQBw1hL+h153BEof+
QEHNgUCpXqvBwCh+QLEgV0CthrfB0lPfQBFzyz/JebjBz2FTQNbejcAn84jBtqCaQFgnDz8myJvB
CrbWQIKfUcDyBZzBcmyUQEb1eUAz+oXBq4/GQMm/QUCL34XB3kHEQCVGl0DHeorBVRrzQIaNwMCq
/4rBFOLoQCNWq8BjG5jBm1f3QN4DiMCMXI3B//xZQIcbKUDggKjB32UEQNVSdECm4ZnB7Ps6QIu/
hkA8PY7B5WrTQLHVp0CKEMLBYL6pQHtOl0B9DMHBi0PyQKxXn0B6JbrBq6TWQOKn6r4QQLbB+TGz
QOUgg8DN4pLBUqDKQIrAur9J8q7BtV/CQMIPSsBEXJrBY9eeQNWnfEAJHLjBSYDnQMBvhkC/LbHB
wrnOQGR7ZT+f6LPBlMKIQCmUgMDkGI/BUCutQErsfT7DIKPBCSR6QPdOAsDq+pnBk8m1QC4Ijb98
YaXBwC6nQDGwB8Bd1p3BzG29QBw9bEDj/K/Bc9W5QLJnoT98QKrBqGpaQNuiP8DXsZLBzunJQBNV
QEDShpzBiYiCQD9+WkAPSZrBDEyyQBvOLUCY96bBlPGyQM+4dUBIaorBNJibP3Rb/b/Oe5PB+VCq
QGVnVEAdLpXBdBKFQDC1OUCv7KPBTas6QKRDe0C31pXBxeTvQFmbNEBJiJrBqs8GQHOBPsBV9I7B
0L7bQKoSu0AC78jBkx+SQOzRnUBeJMfB5CEJQT77q0DE9brBCf/lQN7AOr89rr3B6hXIQF82nMCD
DJDBsFjRQKjEH8A7qrDB4qDiQMO3TsB5aJ3Bged9QLuWYkCQa7fBO2P/QH9jf0CXKqvBapbYQNa3
1D+le7nBNIZ6QCTgl8A9ZonBc5+cQCWiAj+x1pvB9jZRQMV7nb/SnJzBDoGUQCAugEBkM4bBmVvG
QMAuR0A+8IXBoXLEQHNMmUCQCYvBBFpgPnTfBMCU1o/B07POP690eb+M3pHBAq2RP0NuCMA8LZzB
BQBYQAvuKkAqiqjB/zkEQC/WekBHC5rBTHQ7QOCpiUAmbY7B

>  <OMEGA_E>  (3) 
0JapPghLsT4UHLk+yBi6PsCooz4=

>  <OMEGA_NBR>  (3) 
    175151

$$$$
